MODEL 1
REMARK VINA RESULT:      -6.3      0.000      0.000
REMARK  12 active torsions:
REMARK  status: ('A' for Active; 'I' for Inactive)
REMARK    1  A    between atoms: C_2  and  O_3 
REMARK    2  A    between atoms: C_4  and  O_3 
REMARK    3  A    between atoms: C_4  and  C_5 
REMARK    4  A    between atoms: C_4  and  C_29 
REMARK    5  A    between atoms: C_5  and  C_6 
REMARK    6  A    between atoms: C_9  and  O_12 
REMARK    7  A    between atoms: O_12  and  C_13 
REMARK    8  A    between atoms: C_13  and  C_14 
REMARK    9  A    between atoms: C_14  and  N_15 
REMARK   10  A    between atoms: C_19  and  C_20 
REMARK   11  A    between atoms: C_23  and  S_26 
REMARK   12  A    between atoms: C_29  and  O_31 
ROOT
HETATM    1  O   UNK N   1      19.952  14.428   8.402  0.00  0.00    -0.350 OA
ENDROOT
BRANCH   1   2
HETATM    2  C   UNK N   1      20.150  15.316   7.397  0.00  0.00     0.068 A 
HETATM    3  C   UNK N   1      20.854  16.518   7.592  0.00  0.00     0.037 A 
HETATM    4  C   UNK N   1      21.175  17.330   6.509  0.00  0.00     0.010 A 
HETATM    5  C   UNK N   1      20.783  16.958   5.219  0.00  0.00    -0.055 A 
HETATM    6  C   UNK N   1      20.022  15.802   5.028  0.00  0.00     0.010 A 
HETATM    7  C   UNK N   1      19.706  14.984   6.115  0.00  0.00     0.037 A 
BRANCH   5   8
HETATM    8  C   UNK N   1      21.255  17.725   4.034  0.00  0.00     0.081 C 
BRANCH   8   9
HETATM    9  C   UNK N   1      20.188  17.655   2.937  0.00  0.00     0.223 C 
BRANCH   9  10
HETATM   10  O   UNK N   1      20.770  17.295   1.717  0.00  0.00    -0.375 OA
BRANCH  10  11
HETATM   11  C   UNK N   1      20.114  16.124   1.326  0.00  0.00     0.164 C 
HETATM   12  C   UNK N   1      19.371  16.367   0.029  0.00  0.00     0.033 C 
ENDBRANCH  10  11
ENDBRANCH   9  10
BRANCH   9  13
HETATM   13  C   UNK N   1      19.404  18.928   2.782  0.00  0.00     0.170 C 
HETATM   14  O   UNK N   1      19.891  20.007   3.085  0.00  0.00    -0.648 OA
BRANCH  13  15
HETATM   15  O   UNK N   1      18.139  18.876   2.325  0.00  0.00    -0.774 OA
HETATM   16  H   UNK N   1      17.764  19.051   1.483  0.00  0.00     0.167 HD
ENDBRANCH  13  15
ENDBRANCH   9  13
ENDBRANCH   8   9
ENDBRANCH   5   8
ENDBRANCH   1   2
BRANCH   1  17
HETATM   17  C   UNK N   1      20.773  14.263   9.500  0.00  0.00     0.196 C 
BRANCH  17  18
HETATM   18  C   UNK N   1      21.229  12.821   9.711  0.00  0.00     0.156 C 
BRANCH  18  19
HETATM   19  N   UNK N   1      22.695  12.678   9.815  0.00  0.00    -0.348 N 
HETATM   20  C   UNK N   1      23.331  12.304  10.941  0.00  0.00     0.008 A 
HETATM   21  C   UNK N   1      24.702  12.326  10.759  0.00  0.00     0.027 A 
HETATM   22  C   UNK N   1      22.654  11.934  12.217  0.00  0.00     0.068 C 
HETATM   23  C   UNK N   1      24.914  12.742   9.453  0.00  0.00     0.032 A 
HETATM   24  C   UNK N   1      23.660  12.934   8.898  0.00  0.00     0.045 A 
BRANCH  24  25
HETATM   25  C   UNK N   1      23.431  13.404   7.525  0.00  0.00    -0.009 A 
HETATM   26  C   UNK N   1      22.757  12.583   6.616  0.00  0.00     0.015 A 
HETATM   27  C   UNK N   1      22.666  12.955   5.273  0.00  0.00     0.019 A 
HETATM   28  C   UNK N   1      23.242  14.153   4.835  0.00  0.00    -0.000 A 
HETATM   29  C   UNK N   1      23.893  14.989   5.746  0.00  0.00     0.019 A 
HETATM   30  C   UNK N   1      23.989  14.615   7.089  0.00  0.00     0.015 A 
BRANCH  28  31
HETATM   31  S   UNK N   1      23.199  14.589   3.102  0.00  0.00    -0.134 SA
HETATM   32  C   UNK N   1      22.209  13.136   2.656  0.00  0.00     0.095 C 
ENDBRANCH  28  31
ENDBRANCH  24  25
ENDBRANCH  18  19
ENDBRANCH  17  18
ENDBRANCH   1  17
TORSDOF 12
ENDMDL
MODEL 2
REMARK VINA RESULT:      -6.2     15.412     18.249
REMARK  12 active torsions:
REMARK  status: ('A' for Active; 'I' for Inactive)
REMARK    1  A    between atoms: C_2  and  O_3 
REMARK    2  A    between atoms: C_4  and  O_3 
REMARK    3  A    between atoms: C_4  and  C_5 
REMARK    4  A    between atoms: C_4  and  C_29 
REMARK    5  A    between atoms: C_5  and  C_6 
REMARK    6  A    between atoms: C_9  and  O_12 
REMARK    7  A    between atoms: O_12  and  C_13 
REMARK    8  A    between atoms: C_13  and  C_14 
REMARK    9  A    between atoms: C_14  and  N_15 
REMARK   10  A    between atoms: C_19  and  C_20 
REMARK   11  A    between atoms: C_23  and  S_26 
REMARK   12  A    between atoms: C_29  and  O_31 
ROOT
HETATM    1  O   UNK N   1      29.759  27.047  -7.007  0.00  0.00    -0.350 OA
ENDROOT
BRANCH   1   2
HETATM    2  C   UNK N   1      29.580  25.863  -6.371  0.00  0.00     0.068 A 
HETATM    3  C   UNK N   1      29.501  24.646  -7.071  0.00  0.00     0.037 A 
HETATM    4  C   UNK N   1      29.476  23.436  -6.382  0.00  0.00     0.010 A 
HETATM    5  C   UNK N   1      29.515  23.431  -4.984  0.00  0.00    -0.055 A 
HETATM    6  C   UNK N   1      29.523  24.639  -4.282  0.00  0.00     0.010 A 
HETATM    7  C   UNK N   1      29.554  25.851  -4.974  0.00  0.00     0.037 A 
BRANCH   5   8
HETATM    8  C   UNK N   1      29.653  22.151  -4.237  0.00  0.00     0.081 C 
BRANCH   8   9
HETATM    9  C   UNK N   1      31.141  21.860  -4.016  0.00  0.00     0.223 C 
BRANCH   9  10
HETATM   10  O   UNK N   1      31.465  20.591  -4.508  0.00  0.00    -0.375 OA
BRANCH  10  11
HETATM   11  C   UNK N   1      32.201  20.823  -5.674  0.00  0.00     0.164 C 
HETATM   12  C   UNK N   1      31.532  20.133  -6.843  0.00  0.00     0.033 C 
ENDBRANCH  10  11
ENDBRANCH   9  10
BRANCH   9  13
HETATM   13  C   UNK N   1      31.568  21.985  -2.580  0.00  0.00     0.170 C 
HETATM   14  O   UNK N   1      30.963  22.710  -1.806  0.00  0.00    -0.648 OA
BRANCH  13  15
HETATM   15  O   UNK N   1      32.646  21.304  -2.147  0.00  0.00    -0.774 OA
HETATM   16  H   UNK N   1      33.325  21.519  -1.538  0.00  0.00     0.167 HD
ENDBRANCH  13  15
ENDBRANCH   9  13
ENDBRANCH   8   9
ENDBRANCH   5   8
ENDBRANCH   1   2
BRANCH   1  17
HETATM   17  C   UNK N   1      29.468  28.291  -6.483  0.00  0.00     0.196 C 
BRANCH  17  18
HETATM   18  C   UNK N   1      28.055  28.774  -6.806  0.00  0.00     0.156 C 
BRANCH  18  19
HETATM   19  N   UNK N   1      27.161  28.799  -5.632  0.00  0.00    -0.348 N 
HETATM   20  C   UNK N   1      27.121  29.812  -4.745  0.00  0.00     0.008 A 
HETATM   21  C   UNK N   1      26.242  29.526  -3.716  0.00  0.00     0.027 A 
HETATM   22  C   UNK N   1      27.926  31.062  -4.845  0.00  0.00     0.068 C 
HETATM   23  C   UNK N   1      25.722  28.268  -3.987  0.00  0.00     0.032 A 
HETATM   24  C   UNK N   1      26.295  27.859  -5.178  0.00  0.00     0.045 A 
BRANCH  24  25
HETATM   25  C   UNK N   1      26.034  26.561  -5.814  0.00  0.00    -0.009 A 
HETATM   26  C   UNK N   1      25.942  25.410  -5.026  0.00  0.00     0.015 A 
HETATM   27  C   UNK N   1      25.844  24.154  -5.631  0.00  0.00     0.019 A 
HETATM   28  C   UNK N   1      25.831  24.046  -7.027  0.00  0.00    -0.000 A 
HETATM   29  C   UNK N   1      25.895  25.198  -7.818  0.00  0.00     0.019 A 
HETATM   30  C   UNK N   1      25.998  26.452  -7.213  0.00  0.00     0.015 A 
BRANCH  28  31
HETATM   31  S   UNK N   1      25.790  22.436  -7.802  0.00  0.00    -0.134 SA
HETATM   32  C   UNK N   1      26.426  23.067  -9.379  0.00  0.00     0.095 C 
ENDBRANCH  28  31
ENDBRANCH  24  25
ENDBRANCH  18  19
ENDBRANCH  17  18
ENDBRANCH   1  17
TORSDOF 12
ENDMDL
MODEL 3
REMARK VINA RESULT:      -6.1     11.814     14.757
REMARK  12 active torsions:
REMARK  status: ('A' for Active; 'I' for Inactive)
REMARK    1  A    between atoms: C_2  and  O_3 
REMARK    2  A    between atoms: C_4  and  O_3 
REMARK    3  A    between atoms: C_4  and  C_5 
REMARK    4  A    between atoms: C_4  and  C_29 
REMARK    5  A    between atoms: C_5  and  C_6 
REMARK    6  A    between atoms: C_9  and  O_12 
REMARK    7  A    between atoms: O_12  and  C_13 
REMARK    8  A    between atoms: C_13  and  C_14 
REMARK    9  A    between atoms: C_14  and  N_15 
REMARK   10  A    between atoms: C_19  and  C_20 
REMARK   11  A    between atoms: C_23  and  S_26 
REMARK   12  A    between atoms: C_29  and  O_31 
ROOT
HETATM    1  O   UNK N   1      36.663  13.414  13.098  0.00  0.00    -0.350 OA
ENDROOT
BRANCH   1   2
HETATM    2  C   UNK N   1      36.222  13.974  11.944  0.00  0.00     0.068 A 
HETATM    3  C   UNK N   1      35.975  13.207  10.791  0.00  0.00     0.037 A 
HETATM    4  C   UNK N   1      35.373  13.785   9.676  0.00  0.00     0.010 A 
HETATM    5  C   UNK N   1      35.026  15.140   9.696  0.00  0.00    -0.055 A 
HETATM    6  C   UNK N   1      35.334  15.922  10.812  0.00  0.00     0.010 A 
HETATM    7  C   UNK N   1      35.931  15.340  11.932  0.00  0.00     0.037 A 
BRANCH   5   8
HETATM    8  C   UNK N   1      34.240  15.735   8.582  0.00  0.00     0.081 C 
BRANCH   8   9
HETATM    9  C   UNK N   1      33.903  17.189   8.930  0.00  0.00     0.223 C 
BRANCH   9  10
HETATM   10  O   UNK N   1      32.517  17.373   8.954  0.00  0.00    -0.375 OA
BRANCH  10  11
HETATM   11  C   UNK N   1      31.990  16.312   8.213  0.00  0.00     0.164 C 
HETATM   12  C   UNK N   1      30.855  16.812   7.343  0.00  0.00     0.033 C 
ENDBRANCH  10  11
ENDBRANCH   9  10
BRANCH   9  13
HETATM   13  C   UNK N   1      34.544  18.188   8.007  0.00  0.00     0.170 C 
HETATM   14  O   UNK N   1      35.096  19.185   8.446  0.00  0.00    -0.648 OA
BRANCH  13  15
HETATM   15  O   UNK N   1      34.491  17.990   6.677  0.00  0.00    -0.774 OA
HETATM   16  H   UNK N   1      33.801  18.096   6.050  0.00  0.00     0.167 HD
ENDBRANCH  13  15
ENDBRANCH   9  13
ENDBRANCH   8   9
ENDBRANCH   5   8
ENDBRANCH   1   2
BRANCH   1  17
HETATM   17  C   UNK N   1      36.369  13.862  14.370  0.00  0.00     0.196 C 
BRANCH  17  18
HETATM   18  C   UNK N   1      35.010  13.390  14.885  0.00  0.00     0.156 C 
BRANCH  18  19
HETATM   19  N   UNK N   1      35.091  12.181  15.729  0.00  0.00    -0.348 N 
HETATM   20  C   UNK N   1      35.205  12.214  17.070  0.00  0.00     0.008 A 
HETATM   21  C   UNK N   1      35.329  10.934  17.581  0.00  0.00     0.027 A 
HETATM   22  C   UNK N   1      35.216  13.456  17.893  0.00  0.00     0.068 C 
HETATM   23  C   UNK N   1      35.295  10.075  16.492  0.00  0.00     0.032 A 
HETATM   24  C   UNK N   1      35.132  10.874  15.373  0.00  0.00     0.045 A 
BRANCH  24  25
HETATM   25  C   UNK N   1      35.071  10.361  13.998  0.00  0.00    -0.009 A 
HETATM   26  C   UNK N   1      36.240   9.914  13.374  0.00  0.00     0.015 A 
HETATM   27  C   UNK N   1      36.221   9.567  12.021  0.00  0.00     0.019 A 
HETATM   28  C   UNK N   1      35.032   9.658  11.289  0.00  0.00    -0.000 A 
HETATM   29  C   UNK N   1      33.855  10.079  11.916  0.00  0.00     0.019 A 
HETATM   30  C   UNK N   1      33.875  10.431  13.268  0.00  0.00     0.015 A 
BRANCH  28  31
HETATM   31  S   UNK N   1      35.025   9.294   9.538  0.00  0.00    -0.134 SA
HETATM   32  C   UNK N   1      33.633  10.409   9.209  0.00  0.00     0.095 C 
ENDBRANCH  28  31
ENDBRANCH  24  25
ENDBRANCH  18  19
ENDBRANCH  17  18
ENDBRANCH   1  17
TORSDOF 12
ENDMDL
MODEL 4
REMARK VINA RESULT:      -6.0      3.804      5.818
REMARK  12 active torsions:
REMARK  status: ('A' for Active; 'I' for Inactive)
REMARK    1  A    between atoms: C_2  and  O_3 
REMARK    2  A    between atoms: C_4  and  O_3 
REMARK    3  A    between atoms: C_4  and  C_5 
REMARK    4  A    between atoms: C_4  and  C_29 
REMARK    5  A    between atoms: C_5  and  C_6 
REMARK    6  A    between atoms: C_9  and  O_12 
REMARK    7  A    between atoms: O_12  and  C_13 
REMARK    8  A    between atoms: C_13  and  C_14 
REMARK    9  A    between atoms: C_14  and  N_15 
REMARK   10  A    between atoms: C_19  and  C_20 
REMARK   11  A    between atoms: C_23  and  S_26 
REMARK   12  A    between atoms: C_29  and  O_31 
ROOT
HETATM    1  O   UNK N   1      21.574  14.362   4.191  0.00  0.00    -0.350 OA
ENDROOT
BRANCH   1   2
HETATM    2  C   UNK N   1      21.238  15.671   4.087  0.00  0.00     0.068 A 
HETATM    3  C   UNK N   1      21.394  16.568   5.159  0.00  0.00     0.037 A 
HETATM    4  C   UNK N   1      21.190  17.932   4.971  0.00  0.00     0.010 A 
HETATM    5  C   UNK N   1      20.812  18.413   3.714  0.00  0.00    -0.055 A 
HETATM    6  C   UNK N   1      20.586  17.519   2.664  0.00  0.00     0.010 A 
HETATM    7  C   UNK N   1      20.798  16.152   2.851  0.00  0.00     0.037 A 
BRANCH   5   8
HETATM    8  C   UNK N   1      20.747  19.877   3.452  0.00  0.00     0.081 C 
BRANCH   8   9
HETATM    9  C   UNK N   1      21.706  20.223   2.309  0.00  0.00     0.223 C 
BRANCH   9  10
HETATM   10  O   UNK N   1      22.684  21.120   2.751  0.00  0.00    -0.375 OA
BRANCH  10  11
HETATM   11  C   UNK N   1      23.729  20.323   3.226  0.00  0.00     0.164 C 
HETATM   12  C   UNK N   1      24.984  20.598   2.425  0.00  0.00     0.033 C 
ENDBRANCH  10  11
ENDBRANCH   9  10
BRANCH   9  13
HETATM   13  C   UNK N   1      21.013  20.769   1.092  0.00  0.00     0.170 C 
HETATM   14  O   UNK N   1      20.867  20.083   0.091  0.00  0.00    -0.648 OA
BRANCH  13  15
HETATM   15  O   UNK N   1      20.566  22.039   1.097  0.00  0.00    -0.774 OA
HETATM   16  H   UNK N   1      20.830  22.804   0.623  0.00  0.00     0.167 HD
ENDBRANCH  13  15
ENDBRANCH   9  13
ENDBRANCH   8   9
ENDBRANCH   5   8
ENDBRANCH   1   2
BRANCH   1  17
HETATM   17  C   UNK N   1      22.640  13.862   4.914  0.00  0.00     0.196 C 
BRANCH  17  18
HETATM   18  C   UNK N   1      23.611  13.033   4.076  0.00  0.00     0.156 C 
BRANCH  18  19
HETATM   19  N   UNK N   1      23.674  13.454   2.662  0.00  0.00    -0.348 N 
HETATM   20  C   UNK N   1      23.023  12.824   1.666  0.00  0.00     0.008 A 
HETATM   21  C   UNK N   1      23.326  13.399   0.445  0.00  0.00     0.027 A 
HETATM   22  C   UNK N   1      22.116  11.656   1.848  0.00  0.00     0.068 C 
HETATM   23  C   UNK N   1      24.214  14.432   0.710  0.00  0.00     0.032 A 
HETATM   24  C   UNK N   1      24.393  14.447   2.082  0.00  0.00     0.045 A 
BRANCH  24  25
HETATM   25  C   UNK N   1      25.284  15.379   2.786  0.00  0.00    -0.009 A 
HETATM   26  C   UNK N   1      24.739  16.432   3.526  0.00  0.00     0.015 A 
HETATM   27  C   UNK N   1      25.576  17.409   4.073  0.00  0.00     0.019 A 
HETATM   28  C   UNK N   1      26.961  17.331   3.887  0.00  0.00    -0.000 A 
HETATM   29  C   UNK N   1      27.511  16.264   3.171  0.00  0.00     0.019 A 
HETATM   30  C   UNK N   1      26.675  15.291   2.620  0.00  0.00     0.015 A 
BRANCH  28  31
HETATM   31  S   UNK N   1      28.025  18.624   4.514  0.00  0.00    -0.134 SA
HETATM   32  C   UNK N   1      28.421  17.705   6.026  0.00  0.00     0.095 C 
ENDBRANCH  28  31
ENDBRANCH  24  25
ENDBRANCH  18  19
ENDBRANCH  17  18
ENDBRANCH   1  17
TORSDOF 12
ENDMDL
MODEL 5
REMARK VINA RESULT:      -5.8      6.141      7.747
REMARK  12 active torsions:
REMARK  status: ('A' for Active; 'I' for Inactive)
REMARK    1  A    between atoms: C_2  and  O_3 
REMARK    2  A    between atoms: C_4  and  O_3 
REMARK    3  A    between atoms: C_4  and  C_5 
REMARK    4  A    between atoms: C_4  and  C_29 
REMARK    5  A    between atoms: C_5  and  C_6 
REMARK    6  A    between atoms: C_9  and  O_12 
REMARK    7  A    between atoms: O_12  and  C_13 
REMARK    8  A    between atoms: C_13  and  C_14 
REMARK    9  A    between atoms: C_14  and  N_15 
REMARK   10  A    between atoms: C_19  and  C_20 
REMARK   11  A    between atoms: C_23  and  S_26 
REMARK   12  A    between atoms: C_29  and  O_31 
ROOT
HETATM    1  O   UNK N   1      28.917  16.695   7.413  0.00  0.00    -0.350 OA
ENDROOT
BRANCH   1   2
HETATM    2  C   UNK N   1      27.976  17.210   6.584  0.00  0.00     0.068 A 
HETATM    3  C   UNK N   1      28.191  18.395   5.858  0.00  0.00     0.037 A 
HETATM    4  C   UNK N   1      27.271  18.810   4.898  0.00  0.00     0.010 A 
HETATM    5  C   UNK N   1      26.119  18.052   4.665  0.00  0.00    -0.055 A 
HETATM    6  C   UNK N   1      25.866  16.913   5.434  0.00  0.00     0.010 A 
HETATM    7  C   UNK N   1      26.792  16.494   6.391  0.00  0.00     0.037 A 
BRANCH   5   8
HETATM    8  C   UNK N   1      25.209  18.389   3.537  0.00  0.00     0.081 C 
BRANCH   8   9
HETATM    9  C   UNK N   1      24.267  19.516   3.975  0.00  0.00     0.223 C 
BRANCH   9  10
HETATM   10  O   UNK N   1      23.033  18.989   4.372  0.00  0.00    -0.375 OA
BRANCH  10  11
HETATM   11  C   UNK N   1      22.833  17.867   3.563  0.00  0.00     0.164 C 
HETATM   12  C   UNK N   1      21.937  16.878   4.279  0.00  0.00     0.033 C 
ENDBRANCH  10  11
ENDBRANCH   9  10
BRANCH   9  13
HETATM   13  C   UNK N   1      24.068  20.571   2.923  0.00  0.00     0.170 C 
HETATM   14  O   UNK N   1      23.068  21.273   2.918  0.00  0.00    -0.648 OA
BRANCH  13  15
HETATM   15  O   UNK N   1      24.995  20.730   1.961  0.00  0.00    -0.774 OA
HETATM   16  H   UNK N   1      25.020  20.472   1.059  0.00  0.00     0.167 HD
ENDBRANCH  13  15
ENDBRANCH   9  13
ENDBRANCH   8   9
ENDBRANCH   5   8
ENDBRANCH   1   2
BRANCH   1  17
HETATM   17  C   UNK N   1      30.224  17.130   7.512  0.00  0.00     0.196 C 
BRANCH  17  18
HETATM   18  C   UNK N   1      31.242  16.141   6.947  0.00  0.00     0.156 C 
BRANCH  18  19
HETATM   19  N   UNK N   1      31.861  16.593   5.685  0.00  0.00    -0.348 N 
HETATM   20  C   UNK N   1      32.992  17.322   5.628  0.00  0.00     0.008 A 
HETATM   21  C   UNK N   1      33.292  17.656   4.320  0.00  0.00     0.027 A 
HETATM   22  C   UNK N   1      33.802  17.730   6.811  0.00  0.00     0.068 C 
HETATM   23  C   UNK N   1      32.286  17.107   3.537  0.00  0.00     0.032 A 
HETATM   24  C   UNK N   1      31.434  16.448   4.406  0.00  0.00     0.045 A 
BRANCH  24  25
HETATM   25  C   UNK N   1      30.214  15.746   3.988  0.00  0.00    -0.009 A 
HETATM   26  C   UNK N   1      29.387  16.316   3.015  0.00  0.00     0.015 A 
HETATM   27  C   UNK N   1      28.152  15.733   2.719  0.00  0.00     0.019 A 
HETATM   28  C   UNK N   1      27.742  14.575   3.391  0.00  0.00    -0.000 A 
HETATM   29  C   UNK N   1      28.579  13.988   4.344  0.00  0.00     0.019 A 
HETATM   30  C   UNK N   1      29.811  14.573   4.644  0.00  0.00     0.015 A 
BRANCH  28  31
HETATM   31  S   UNK N   1      26.127  13.877   3.073  0.00  0.00    -0.134 SA
HETATM   32  C   UNK N   1      25.735  15.105   1.798  0.00  0.00     0.095 C 
ENDBRANCH  28  31
ENDBRANCH  24  25
ENDBRANCH  18  19
ENDBRANCH  17  18
ENDBRANCH   1  17
TORSDOF 12
ENDMDL
MODEL 6
REMARK VINA RESULT:      -5.8     11.588     14.307
REMARK  12 active torsions:
REMARK  status: ('A' for Active; 'I' for Inactive)
REMARK    1  A    between atoms: C_2  and  O_3 
REMARK    2  A    between atoms: C_4  and  O_3 
REMARK    3  A    between atoms: C_4  and  C_5 
REMARK    4  A    between atoms: C_4  and  C_29 
REMARK    5  A    between atoms: C_5  and  C_6 
REMARK    6  A    between atoms: C_9  and  O_12 
REMARK    7  A    between atoms: O_12  and  C_13 
REMARK    8  A    between atoms: C_13  and  C_14 
REMARK    9  A    between atoms: C_14  and  N_15 
REMARK   10  A    between atoms: C_19  and  C_20 
REMARK   11  A    between atoms: C_23  and  S_26 
REMARK   12  A    between atoms: C_29  and  O_31 
ROOT
HETATM    1  O   UNK N   1      36.731  14.217  12.087  0.00  0.00    -0.350 OA
ENDROOT
BRANCH   1   2
HETATM    2  C   UNK N   1      35.821  14.469  11.114  0.00  0.00     0.068 A 
HETATM    3  C   UNK N   1      34.457  14.655  11.399  0.00  0.00     0.037 A 
HETATM    4  C   UNK N   1      33.578  15.068  10.401  0.00  0.00     0.010 A 
HETATM    5  C   UNK N   1      34.051  15.285   9.103  0.00  0.00    -0.055 A 
HETATM    6  C   UNK N   1      35.392  15.033   8.798  0.00  0.00     0.010 A 
HETATM    7  C   UNK N   1      36.273  14.625   9.801  0.00  0.00     0.037 A 
BRANCH   5   8
HETATM    8  C   UNK N   1      33.166  15.879   8.066  0.00  0.00     0.081 C 
BRANCH   8   9
HETATM    9  C   UNK N   1      33.060  17.389   8.305  0.00  0.00     0.223 C 
BRANCH   9  10
HETATM   10  O   UNK N   1      31.830  17.869   7.842  0.00  0.00    -0.375 OA
BRANCH  10  11
HETATM   11  C   UNK N   1      30.884  17.410   8.762  0.00  0.00     0.164 C 
HETATM   12  C   UNK N   1      30.079  18.579   9.290  0.00  0.00     0.033 C 
ENDBRANCH  10  11
ENDBRANCH   9  10
BRANCH   9  13
HETATM   13  C   UNK N   1      34.188  18.172   7.692  0.00  0.00     0.170 C 
HETATM   14  O   UNK N   1      34.788  19.019   8.336  0.00  0.00    -0.648 OA
BRANCH  13  15
HETATM   15  O   UNK N   1      34.526  17.951   6.408  0.00  0.00    -0.774 OA
HETATM   16  H   UNK N   1      35.334  18.048   5.942  0.00  0.00     0.167 HD
ENDBRANCH  13  15
ENDBRANCH   9  13
ENDBRANCH   8   9
ENDBRANCH   5   8
ENDBRANCH   1   2
BRANCH   1  17
HETATM   17  C   UNK N   1      36.453  14.106  13.436  0.00  0.00     0.196 C 
BRANCH  17  18
HETATM   18  C   UNK N   1      36.674  12.701  13.992  0.00  0.00     0.156 C 
BRANCH  18  19
HETATM   19  N   UNK N   1      35.443  11.887  14.035  0.00  0.00    -0.348 N 
HETATM   20  C   UNK N   1      34.693  11.726  15.141  0.00  0.00     0.008 A 
HETATM   21  C   UNK N   1      33.644  10.857  14.898  0.00  0.00     0.027 A 
HETATM   22  C   UNK N   1      34.963  12.377  16.454  0.00  0.00     0.068 C 
HETATM   23  C   UNK N   1      33.764  10.463  13.574  0.00  0.00     0.032 A 
HETATM   24  C   UNK N   1      34.869  11.126  13.070  0.00  0.00     0.045 A 
BRANCH  24  25
HETATM   25  C   UNK N   1      35.368  10.970  11.697  0.00  0.00    -0.009 A 
HETATM   26  C   UNK N   1      36.733  10.764  11.476  0.00  0.00     0.015 A 
HETATM   27  C   UNK N   1      37.238  10.764  10.173  0.00  0.00     0.019 A 
HETATM   28  C   UNK N   1      36.378  10.963   9.087  0.00  0.00    -0.000 A 
HETATM   29  C   UNK N   1      35.009  11.143   9.303  0.00  0.00     0.019 A 
HETATM   30  C   UNK N   1      34.505  11.147  10.605  0.00  0.00     0.015 A 
BRANCH  28  31
HETATM   31  S   UNK N   1      37.035  11.048   7.426  0.00  0.00    -0.134 SA
HETATM   32  C   UNK N   1      38.733  11.323   8.003  0.00  0.00     0.095 C 
ENDBRANCH  28  31
ENDBRANCH  24  25
ENDBRANCH  18  19
ENDBRANCH  17  18
ENDBRANCH   1  17
TORSDOF 12
ENDMDL
MODEL 7
REMARK VINA RESULT:      -5.8      6.756      8.839
REMARK  12 active torsions:
REMARK  status: ('A' for Active; 'I' for Inactive)
REMARK    1  A    between atoms: C_2  and  O_3 
REMARK    2  A    between atoms: C_4  and  O_3 
REMARK    3  A    between atoms: C_4  and  C_5 
REMARK    4  A    between atoms: C_4  and  C_29 
REMARK    5  A    between atoms: C_5  and  C_6 
REMARK    6  A    between atoms: C_9  and  O_12 
REMARK    7  A    between atoms: O_12  and  C_13 
REMARK    8  A    between atoms: C_13  and  C_14 
REMARK    9  A    between atoms: C_14  and  N_15 
REMARK   10  A    between atoms: C_19  and  C_20 
REMARK   11  A    between atoms: C_23  and  S_26 
REMARK   12  A    between atoms: C_29  and  O_31 
ROOT
HETATM    1  O   UNK N   1      28.553  13.750   4.410  0.00  0.00    -0.350 OA
ENDROOT
BRANCH   1   2
HETATM    2  C   UNK N   1      27.757  14.846   4.346  0.00  0.00     0.068 A 
HETATM    3  C   UNK N   1      27.589  15.576   3.156  0.00  0.00     0.037 A 
HETATM    4  C   UNK N   1      26.646  16.598   3.082  0.00  0.00     0.010 A 
HETATM    5  C   UNK N   1      25.871  16.911   4.203  0.00  0.00    -0.055 A 
HETATM    6  C   UNK N   1      26.084  16.237   5.409  0.00  0.00     0.010 A 
HETATM    7  C   UNK N   1      27.025  15.208   5.479  0.00  0.00     0.037 A 
BRANCH   5   8
HETATM    8  C   UNK N   1      24.751  17.885   4.099  0.00  0.00     0.081 C 
BRANCH   8   9
HETATM    9  C   UNK N   1      25.328  19.293   3.920  0.00  0.00     0.223 C 
BRANCH   9  10
HETATM   10  O   UNK N   1      25.594  19.871   5.166  0.00  0.00    -0.375 OA
BRANCH  10  11
HETATM   11  C   UNK N   1      26.693  20.709   4.957  0.00  0.00     0.164 C 
HETATM   12  C   UNK N   1      26.973  21.502   6.216  0.00  0.00     0.033 C 
ENDBRANCH  10  11
ENDBRANCH   9  10
BRANCH   9  13
HETATM   13  C   UNK N   1      24.450  20.200   3.103  0.00  0.00     0.170 C 
HETATM   14  O   UNK N   1      23.282  20.386   3.409  0.00  0.00    -0.648 OA
BRANCH  13  15
HETATM   15  O   UNK N   1      24.952  20.797   2.007  0.00  0.00    -0.774 OA
HETATM   16  H   UNK N   1      25.582  21.483   1.894  0.00  0.00     0.167 HD
ENDBRANCH  13  15
ENDBRANCH   9  13
ENDBRANCH   8   9
ENDBRANCH   5   8
ENDBRANCH   1   2
BRANCH   1  17
HETATM   17  C   UNK N   1      29.638  13.498   3.595  0.00  0.00     0.196 C 
BRANCH  17  18
HETATM   18  C   UNK N   1      30.983  13.635   4.308  0.00  0.00     0.156 C 
BRANCH  18  19
HETATM   19  N   UNK N   1      31.760  14.812   3.871  0.00  0.00    -0.348 N 
HETATM   20  C   UNK N   1      32.760  14.754   2.971  0.00  0.00     0.008 A 
HETATM   21  C   UNK N   1      33.348  15.995   2.814  0.00  0.00     0.027 A 
HETATM   22  C   UNK N   1      33.188  13.519   2.255  0.00  0.00     0.068 C 
HETATM   23  C   UNK N   1      32.675  16.856   3.669  0.00  0.00     0.032 A 
HETATM   24  C   UNK N   1      31.697  16.100   4.290  0.00  0.00     0.045 A 
BRANCH  24  25
HETATM   25  C   UNK N   1      30.768  16.624   5.301  0.00  0.00    -0.009 A 
HETATM   26  C   UNK N   1      29.861  17.629   4.951  0.00  0.00     0.015 A 
HETATM   27  C   UNK N   1      29.080  18.239   5.936  0.00  0.00     0.019 A 
HETATM   28  C   UNK N   1      29.198  17.841   7.273  0.00  0.00    -0.000 A 
HETATM   29  C   UNK N   1      30.085  16.818   7.622  0.00  0.00     0.019 A 
HETATM   30  C   UNK N   1      30.870  16.212   6.638  0.00  0.00     0.015 A 
BRANCH  28  31
HETATM   31  S   UNK N   1      28.261  18.678   8.545  0.00  0.00    -0.134 SA
HETATM   32  C   UNK N   1      29.619  18.593   9.743  0.00  0.00     0.095 C 
ENDBRANCH  28  31
ENDBRANCH  24  25
ENDBRANCH  18  19
ENDBRANCH  17  18
ENDBRANCH   1  17
TORSDOF 12
ENDMDL
MODEL 8
REMARK VINA RESULT:      -5.8     12.510     15.198
REMARK  12 active torsions:
REMARK  status: ('A' for Active; 'I' for Inactive)
REMARK    1  A    between atoms: C_2  and  O_3 
REMARK    2  A    between atoms: C_4  and  O_3 
REMARK    3  A    between atoms: C_4  and  C_5 
REMARK    4  A    between atoms: C_4  and  C_29 
REMARK    5  A    between atoms: C_5  and  C_6 
REMARK    6  A    between atoms: C_9  and  O_12 
REMARK    7  A    between atoms: O_12  and  C_13 
REMARK    8  A    between atoms: C_13  and  C_14 
REMARK    9  A    between atoms: C_14  and  N_15 
REMARK   10  A    between atoms: C_19  and  C_20 
REMARK   11  A    between atoms: C_23  and  S_26 
REMARK   12  A    between atoms: C_29  and  O_31 
ROOT
HETATM    1  O   UNK N   1      36.763  13.122  13.978  0.00  0.00    -0.350 OA
ENDROOT
BRANCH   1   2
HETATM    2  C   UNK N   1      36.275  13.586  12.801  0.00  0.00     0.068 A 
HETATM    3  C   UNK N   1      36.049  14.956  12.577  0.00  0.00     0.037 A 
HETATM    4  C   UNK N   1      35.699  15.414  11.309  0.00  0.00     0.010 A 
HETATM    5  C   UNK N   1      35.556  14.506  10.256  0.00  0.00    -0.055 A 
HETATM    6  C   UNK N   1      35.710  13.137  10.490  0.00  0.00     0.010 A 
HETATM    7  C   UNK N   1      36.067  12.679  11.759  0.00  0.00     0.037 A 
BRANCH   5   8
HETATM    8  C   UNK N   1      35.343  14.989   8.865  0.00  0.00     0.081 C 
BRANCH   8   9
HETATM    9  C   UNK N   1      33.953  15.626   8.765  0.00  0.00     0.223 C 
BRANCH   9  10
HETATM   10  O   UNK N   1      33.943  16.871   9.404  0.00  0.00    -0.375 OA
BRANCH  10  11
HETATM   11  C   UNK N   1      34.476  17.767   8.474  0.00  0.00     0.164 C 
HETATM   12  C   UNK N   1      33.576  17.835   7.258  0.00  0.00     0.033 C 
ENDBRANCH  10  11
ENDBRANCH   9  10
BRANCH   9  13
HETATM   13  C   UNK N   1      32.856  14.754   9.309  0.00  0.00     0.170 C 
HETATM   14  O   UNK N   1      32.531  13.723   8.738  0.00  0.00    -0.648 OA
BRANCH  13  15
HETATM   15  O   UNK N   1      32.207  15.125  10.428  0.00  0.00    -0.774 OA
HETATM   16  H   UNK N   1      32.050  15.963  10.818  0.00  0.00     0.167 HD
ENDBRANCH  13  15
ENDBRANCH   9  13
ENDBRANCH   8   9
ENDBRANCH   5   8
ENDBRANCH   1   2
BRANCH   1  17
HETATM   17  C   UNK N   1      36.458  13.625  15.227  0.00  0.00     0.196 C 
BRANCH  17  18
HETATM   18  C   UNK N   1      35.055  13.255  15.708  0.00  0.00     0.156 C 
BRANCH  18  19
HETATM   19  N   UNK N   1      35.030  12.065  16.582  0.00  0.00    -0.348 N 
HETATM   20  C   UNK N   1      35.150  12.120  17.922  0.00  0.00     0.008 A 
HETATM   21  C   UNK N   1      35.161  10.847  18.463  0.00  0.00     0.027 A 
HETATM   22  C   UNK N   1      35.274  13.376  18.714  0.00  0.00     0.068 C 
HETATM   23  C   UNK N   1      35.047   9.968  17.396  0.00  0.00     0.032 A 
HETATM   24  C   UNK N   1      34.953  10.751  16.258  0.00  0.00     0.045 A 
BRANCH  24  25
HETATM   25  C   UNK N   1      34.843  10.212  14.895  0.00  0.00    -0.009 A 
HETATM   26  C   UNK N   1      35.900   9.473  14.357  0.00  0.00     0.015 A 
HETATM   27  C   UNK N   1      35.870   9.085  13.015  0.00  0.00     0.019 A 
HETATM   28  C   UNK N   1      34.779   9.430  12.208  0.00  0.00    -0.000 A 
HETATM   29  C   UNK N   1      33.708  10.146  12.751  0.00  0.00     0.019 A 
HETATM   30  C   UNK N   1      33.740  10.538  14.091  0.00  0.00     0.015 A 
BRANCH  28  31
HETATM   31  S   UNK N   1      34.777   9.008  10.471  0.00  0.00    -0.134 SA
HETATM   32  C   UNK N   1      33.469  10.200  10.079  0.00  0.00     0.095 C 
ENDBRANCH  28  31
ENDBRANCH  24  25
ENDBRANCH  18  19
ENDBRANCH  17  18
ENDBRANCH   1  17
TORSDOF 12
ENDMDL
MODEL 9
REMARK VINA RESULT:      -5.7      3.784      8.182
REMARK  12 active torsions:
REMARK  status: ('A' for Active; 'I' for Inactive)
REMARK    1  A    between atoms: C_2  and  O_3 
REMARK    2  A    between atoms: C_4  and  O_3 
REMARK    3  A    between atoms: C_4  and  C_5 
REMARK    4  A    between atoms: C_4  and  C_29 
REMARK    5  A    between atoms: C_5  and  C_6 
REMARK    6  A    between atoms: C_9  and  O_12 
REMARK    7  A    between atoms: O_12  and  C_13 
REMARK    8  A    between atoms: C_13  and  C_14 
REMARK    9  A    between atoms: C_14  and  N_15 
REMARK   10  A    between atoms: C_19  and  C_20 
REMARK   11  A    between atoms: C_23  and  S_26 
REMARK   12  A    between atoms: C_29  and  O_31 
ROOT
HETATM    1  O   UNK N   1      21.086  17.297   6.692  0.00  0.00    -0.350 OA
ENDROOT
BRANCH   1   2
HETATM    2  C   UNK N   1      21.145  16.162   7.432  0.00  0.00     0.068 A 
HETATM    3  C   UNK N   1      22.175  15.219   7.267  0.00  0.00     0.037 A 
HETATM    4  C   UNK N   1      22.296  14.147   8.148  0.00  0.00     0.010 A 
HETATM    5  C   UNK N   1      21.380  13.999   9.194  0.00  0.00    -0.055 A 
HETATM    6  C   UNK N   1      20.313  14.894   9.319  0.00  0.00     0.010 A 
HETATM    7  C   UNK N   1      20.197  15.972   8.440  0.00  0.00     0.037 A 
BRANCH   5   8
HETATM    8  C   UNK N   1      21.585  12.958  10.237  0.00  0.00     0.081 C 
BRANCH   8   9
HETATM    9  C   UNK N   1      22.989  12.364  10.079  0.00  0.00     0.223 C 
BRANCH   9  10
HETATM   10  O   UNK N   1      22.920  11.115   9.453  0.00  0.00    -0.375 OA
BRANCH  10  11
HETATM   11  C   UNK N   1      23.895  11.149   8.453  0.00  0.00     0.164 C 
HETATM   12  C   UNK N   1      23.353  10.508   7.192  0.00  0.00     0.033 C 
ENDBRANCH  10  11
ENDBRANCH   9  10
BRANCH   9  13
HETATM   13  C   UNK N   1      23.741  12.253  11.377  0.00  0.00     0.170 C 
HETATM   14  O   UNK N   1      23.186  11.863  12.393  0.00  0.00    -0.648 OA
BRANCH  13  15
HETATM   15  O   UNK N   1      25.038  12.611  11.424  0.00  0.00    -0.774 OA
HETATM   16  H   UNK N   1      25.762  12.293  11.927  0.00  0.00     0.167 HD
ENDBRANCH  13  15
ENDBRANCH   9  13
ENDBRANCH   8   9
ENDBRANCH   5   8
ENDBRANCH   1   2
BRANCH   1  17
HETATM   17  C   UNK N   1      22.161  17.917   6.086  0.00  0.00     0.196 C 
BRANCH  17  18
HETATM   18  C   UNK N   1      22.229  17.688   4.577  0.00  0.00     0.156 C 
BRANCH  18  19
HETATM   19  N   UNK N   1      22.476  18.923   3.807  0.00  0.00    -0.348 N 
HETATM   20  C   UNK N   1      21.513  19.600   3.152  0.00  0.00     0.008 A 
HETATM   21  C   UNK N   1      22.052  20.671   2.464  0.00  0.00     0.027 A 
HETATM   22  C   UNK N   1      20.068  19.235   3.151  0.00  0.00     0.068 C 
HETATM   23  C   UNK N   1      23.418  20.644   2.707  0.00  0.00     0.032 A 
HETATM   24  C   UNK N   1      23.640  19.567   3.548  0.00  0.00     0.045 A 
BRANCH  24  25
HETATM   25  C   UNK N   1      24.967  19.162   4.033  0.00  0.00    -0.009 A 
HETATM   26  C   UNK N   1      25.515  17.947   3.614  0.00  0.00     0.015 A 
HETATM   27  C   UNK N   1      26.704  17.483   4.183  0.00  0.00     0.019 A 
HETATM   28  C   UNK N   1      27.351  18.236   5.170  0.00  0.00    -0.000 A 
HETATM   29  C   UNK N   1      26.819  19.465   5.572  0.00  0.00     0.019 A 
HETATM   30  C   UNK N   1      25.629  19.927   5.006  0.00  0.00     0.015 A 
BRANCH  28  31
HETATM   31  S   UNK N   1      28.826  17.605   5.958  0.00  0.00    -0.134 SA
HETATM   32  C   UNK N   1      29.075  16.326   4.697  0.00  0.00     0.095 C 
ENDBRANCH  28  31
ENDBRANCH  24  25
ENDBRANCH  18  19
ENDBRANCH  17  18
ENDBRANCH   1  17
TORSDOF 12
ENDMDL
