MODEL 1
REMARK VINA RESULT:      -8.6      0.000      0.000
REMARK  10 active torsions:
REMARK  status: ('A' for Active; 'I' for Inactive)
REMARK    1  A    between atoms: C_3  and  O_34 
REMARK    2  A    between atoms: C_6  and  C_7 
REMARK    3  A    between atoms: C_10  and  C_14 
REMARK    4  A    between atoms: C_14  and  C_15 
REMARK    5  A    between atoms: C_15  and  C_16 
REMARK    6  A    between atoms: C_15  and  C_23 
REMARK    7  A    between atoms: C_15  and  O_31 
REMARK    8  A    between atoms: C_16  and  N_17 
REMARK    9  A    between atoms: O_34  and  C_35 
REMARK   10  A    between atoms: C_35  and  C_36 
ROOT
HETATM    1  C   UNK N   1      33.402  17.228   7.957  0.00  0.00     0.322 C 
HETATM    2  F   UNK N   1      33.708  18.567   8.140  0.00  0.00    -0.195 F 
HETATM    3  F   UNK N   1      33.780  16.879   6.669  0.00  0.00    -0.195 F 
ENDROOT
BRANCH   1   4
HETATM    4  C   UNK N   1      34.263  16.455   8.922  0.00  0.00     0.085 A 
HETATM    5  C   UNK N   1      34.922  17.121   9.968  0.00  0.00     0.032 A 
HETATM    6  C   UNK N   1      35.468  16.375  11.015  0.00  0.00     0.016 A 
HETATM    7  C   UNK N   1      35.279  14.987  11.033  0.00  0.00    -0.011 A 
HETATM    8  C   UNK N   1      34.682  14.367   9.943  0.00  0.00     0.100 A 
HETATM    9  N   UNK N   1      34.228  15.100   8.910  0.00  0.00    -0.363 N 
ATOM     10  HN  UNK N   1      33.846  14.622   8.093  1.00  0.00     0.165 HD
BRANCH   7  11
HETATM   11  C   UNK N   1      35.597  14.177  12.204  0.00  0.00    -0.025 A 
HETATM   12  C   UNK N   1      35.149  12.862  12.319  0.00  0.00     0.015 A 
HETATM   13  C   UNK N   1      35.425  12.147  13.481  0.00  0.00     0.037 A 
HETATM   14  C   UNK N   1      36.202  12.712  14.506  0.00  0.00     0.069 A 
HETATM   15  C   UNK N   1      36.715  13.996  14.351  0.00  0.00     0.037 A 
HETATM   16  C   UNK N   1      36.391  14.735  13.220  0.00  0.00     0.015 A 
BRANCH  14  17
HETATM   17  O   UNK N   1      36.430  12.057  15.663  0.00  0.00    -0.342 OA
BRANCH  17  18
HETATM   18  C   UNK N   1      35.441  11.843  16.603  0.00  0.00     0.293 C 
BRANCH  18  19
HETATM   19  C   UNK N   1      34.975  13.104  17.314  0.00  0.00     0.408 C 
HETATM   20  F   UNK N   1      33.900  13.612  16.615  0.00  0.00    -0.169 F 
HETATM   21  F   UNK N   1      34.559  12.838  18.603  0.00  0.00    -0.169 F 
HETATM   22  F   UNK N   1      35.991  14.039  17.338  0.00  0.00    -0.169 F 
ENDBRANCH  18  19
ENDBRANCH  17  18
ENDBRANCH  14  17
ENDBRANCH   7  11
ENDBRANCH   1   4
BRANCH   1  23
HETATM   23  C   UNK N   1      31.850  17.030   8.124  0.00  0.00     0.177 C 
BRANCH  23  24
HETATM   24  C   UNK N   1      31.051  18.277   8.627  0.00  0.00     0.197 C 
BRANCH  24  25
HETATM   25  N   UNK N   1      29.645  18.164   9.020  0.00  0.00    -0.269 N 
HETATM   26  C   UNK N   1      28.634  18.869   8.484  0.00  0.00     0.212 A 
HETATM   27  N   UNK N   1      27.467  18.351   8.914  0.00  0.00    -0.281 N 
HETATM   28  N   UNK N   1      27.784  17.319   9.686  0.00  0.00    -0.008 NA
ATOM     29  HN  UNK N   1      26.530  18.685   8.693  1.00  0.00     0.184 HD
HETATM   30  N   UNK N   1      29.099  17.196   9.735  0.00  0.00    -0.005 NA
ENDBRANCH  24  25
ENDBRANCH  23  24
BRANCH  23  31
HETATM   31  C   UNK N   1      31.276  16.401   6.845  0.00  0.00     0.023 A 
HETATM   32  C   UNK N   1      30.654  17.261   5.919  0.00  0.00     0.017 A 
HETATM   33  C   UNK N   1      30.130  16.780   4.721  0.00  0.00     0.043 A 
HETATM   34  C   UNK N   1      30.217  15.425   4.419  0.00  0.00     0.119 A 
HETATM   35  C   UNK N   1      30.822  14.550   5.318  0.00  0.00     0.085 A 
HETATM   36  F   UNK N   1      29.719  14.957   3.251  0.00  0.00    -0.206 F 
HETATM   37  C   UNK N   1      31.352  15.019   6.522  0.00  0.00     0.128 A 
HETATM   38  F   UNK N   1      31.928  14.115   7.341  0.00  0.00    -0.205 F 
ENDBRANCH  23  31
BRANCH  23  39
HETATM   39  O   UNK N   1      31.672  16.092   9.145  0.00  0.00    -0.377 OA
HETATM   40  H   UNK N   1      32.061  15.342   9.620  0.00  0.00     0.211 HD
ENDBRANCH  23  39
ENDBRANCH   1  23
TORSDOF 10
ENDMDL
MODEL 2
REMARK VINA RESULT:      -8.3      3.810     10.181
REMARK  10 active torsions:
REMARK  status: ('A' for Active; 'I' for Inactive)
REMARK    1  A    between atoms: C_3  and  O_34 
REMARK    2  A    between atoms: C_6  and  C_7 
REMARK    3  A    between atoms: C_10  and  C_14 
REMARK    4  A    between atoms: C_14  and  C_15 
REMARK    5  A    between atoms: C_15  and  C_16 
REMARK    6  A    between atoms: C_15  and  C_23 
REMARK    7  A    between atoms: C_15  and  O_31 
REMARK    8  A    between atoms: C_16  and  N_17 
REMARK    9  A    between atoms: O_34  and  C_35 
REMARK   10  A    between atoms: C_35  and  C_36 
ROOT
HETATM    1  C   UNK N   1      36.732  11.878  13.983  0.00  0.00     0.322 C 
HETATM    2  F   UNK N   1      37.311  10.682  13.589  0.00  0.00    -0.195 F 
HETATM    3  F   UNK N   1      37.548  12.445  14.952  0.00  0.00    -0.195 F 
ENDROOT
BRANCH   1   4
HETATM    4  C   UNK N   1      36.746  12.780  12.777  0.00  0.00     0.085 A 
HETATM    5  C   UNK N   1      36.745  12.229  11.485  0.00  0.00     0.032 A 
HETATM    6  C   UNK N   1      36.461  13.053  10.393  0.00  0.00     0.016 A 
HETATM    7  C   UNK N   1      36.112  14.389  10.620  0.00  0.00    -0.011 A 
HETATM    8  C   UNK N   1      36.194  14.905  11.907  0.00  0.00     0.100 A 
HETATM    9  N   UNK N   1      36.540  14.110  12.936  0.00  0.00    -0.363 N 
ATOM     10  HN  UNK N   1      36.652  14.521  13.864  1.00  0.00     0.165 HD
BRANCH   7  11
HETATM   11  C   UNK N   1      35.565  15.238   9.566  0.00  0.00    -0.025 A 
HETATM   12  C   UNK N   1      35.444  14.778   8.256  0.00  0.00     0.015 A 
HETATM   13  C   UNK N   1      34.974  15.642   7.270  0.00  0.00     0.037 A 
HETATM   14  C   UNK N   1      34.562  16.945   7.594  0.00  0.00     0.069 A 
HETATM   15  C   UNK N   1      34.610  17.373   8.918  0.00  0.00     0.037 A 
HETATM   16  C   UNK N   1      35.135  16.534   9.893  0.00  0.00     0.015 A 
BRANCH  14  17
HETATM   17  O   UNK N   1      34.161  17.815   6.645  0.00  0.00    -0.342 OA
BRANCH  17  18
HETATM   18  C   UNK N   1      33.376  17.437   5.573  0.00  0.00     0.293 C 
BRANCH  18  19
HETATM   19  C   UNK N   1      31.932  17.126   5.938  0.00  0.00     0.408 C 
HETATM   20  F   UNK N   1      31.126  17.610   4.930  0.00  0.00    -0.169 F 
HETATM   21  F   UNK N   1      31.715  15.766   6.042  0.00  0.00    -0.169 F 
HETATM   22  F   UNK N   1      31.600  17.741   7.129  0.00  0.00    -0.169 F 
ENDBRANCH  18  19
ENDBRANCH  17  18
ENDBRANCH  14  17
ENDBRANCH   7  11
ENDBRANCH   1   4
BRANCH   1  23
HETATM   23  C   UNK N   1      35.313  11.583  14.595  0.00  0.00     0.177 C 
BRANCH  23  24
HETATM   24  C   UNK N   1      34.705  10.180  14.267  0.00  0.00     0.197 C 
BRANCH  24  25
HETATM   25  N   UNK N   1      34.456   9.771  12.882  0.00  0.00    -0.269 N 
HETATM   26  C   UNK N   1      34.907   8.637  12.319  0.00  0.00     0.212 A 
HETATM   27  N   UNK N   1      34.304   8.476  11.125  0.00  0.00    -0.281 N 
HETATM   28  N   UNK N   1      33.473   9.502  10.990  0.00  0.00    -0.008 NA
ATOM     29  HN  UNK N   1      34.456   7.719  10.459  1.00  0.00     0.184 HD
HETATM   30  N   UNK N   1      33.553  10.274  12.059  0.00  0.00    -0.005 NA
ENDBRANCH  24  25
ENDBRANCH  23  24
BRANCH  23  31
HETATM   31  C   UNK N   1      35.325  11.918  16.094  0.00  0.00     0.023 A 
HETATM   32  C   UNK N   1      34.950  13.222  16.473  0.00  0.00     0.017 A 
HETATM   33  C   UNK N   1      34.906  13.605  17.812  0.00  0.00     0.043 A 
HETATM   34  C   UNK N   1      35.234  12.690  18.807  0.00  0.00     0.119 A 
HETATM   35  C   UNK N   1      35.614  11.394  18.462  0.00  0.00     0.085 A 
HETATM   36  F   UNK N   1      35.181  13.055  20.109  0.00  0.00    -0.206 F 
HETATM   37  C   UNK N   1      35.661  10.998  17.124  0.00  0.00     0.128 A 
HETATM   38  F   UNK N   1      36.031   9.727  16.865  0.00  0.00    -0.205 F 
ENDBRANCH  23  31
BRANCH  23  39
HETATM   39  O   UNK N   1      34.422  12.477  13.993  0.00  0.00    -0.377 OA
HETATM   40  H   UNK N   1      34.004  12.753  13.164  0.00  0.00     0.211 HD
ENDBRANCH  23  39
ENDBRANCH   1  23
TORSDOF 10
ENDMDL
MODEL 3
REMARK VINA RESULT:      -8.2      3.594      5.425
REMARK  10 active torsions:
REMARK  status: ('A' for Active; 'I' for Inactive)
REMARK    1  A    between atoms: C_3  and  O_34 
REMARK    2  A    between atoms: C_6  and  C_7 
REMARK    3  A    between atoms: C_10  and  C_14 
REMARK    4  A    between atoms: C_14  and  C_15 
REMARK    5  A    between atoms: C_15  and  C_16 
REMARK    6  A    between atoms: C_15  and  C_23 
REMARK    7  A    between atoms: C_15  and  O_31 
REMARK    8  A    between atoms: C_16  and  N_17 
REMARK    9  A    between atoms: O_34  and  C_35 
REMARK   10  A    between atoms: C_35  and  C_36 
ROOT
HETATM    1  C   UNK N   1      29.285  16.602   5.772  0.00  0.00     0.322 C 
HETATM    2  F   UNK N   1      29.024  15.252   5.594  0.00  0.00    -0.195 F 
HETATM    3  F   UNK N   1      28.253  17.135   6.533  0.00  0.00    -0.195 F 
ENDROOT
BRANCH   1   4
HETATM    4  C   UNK N   1      30.553  16.692   6.579  0.00  0.00     0.085 A 
HETATM    5  C   UNK N   1      30.569  17.397   7.793  0.00  0.00     0.032 A 
HETATM    6  C   UNK N   1      31.646  17.229   8.667  0.00  0.00     0.016 A 
HETATM    7  C   UNK N   1      32.647  16.306   8.343  0.00  0.00    -0.011 A 
HETATM    8  C   UNK N   1      32.625  15.684   7.101  0.00  0.00     0.100 A 
HETATM    9  N   UNK N   1      31.613  15.916   6.244  0.00  0.00    -0.363 N 
ATOM     10  HN  UNK N   1      31.645  15.496   5.314  1.00  0.00     0.165 HD
BRANCH   7  11
HETATM   11  C   UNK N   1      33.664  15.894   9.306  0.00  0.00    -0.025 A 
HETATM   12  C   UNK N   1      34.612  16.794   9.787  0.00  0.00     0.015 A 
HETATM   13  C   UNK N   1      35.600  16.344  10.658  0.00  0.00     0.037 A 
HETATM   14  C   UNK N   1      35.611  15.012  11.106  0.00  0.00     0.069 A 
HETATM   15  C   UNK N   1      34.614  14.137  10.685  0.00  0.00     0.037 A 
HETATM   16  C   UNK N   1      33.662  14.568   9.769  0.00  0.00     0.015 A 
BRANCH  14  17
HETATM   17  O   UNK N   1      36.593  14.543  11.902  0.00  0.00    -0.342 OA
BRANCH  17  18
HETATM   18  C   UNK N   1      36.405  13.485  12.770  0.00  0.00     0.293 C 
BRANCH  18  19
HETATM   19  C   UNK N   1      36.409  13.877  14.240  0.00  0.00     0.408 C 
HETATM   20  F   UNK N   1      35.144  13.654  14.742  0.00  0.00    -0.169 F 
HETATM   21  F   UNK N   1      37.298  13.112  14.968  0.00  0.00    -0.169 F 
HETATM   22  F   UNK N   1      36.728  15.214  14.374  0.00  0.00    -0.169 F 
ENDBRANCH  18  19
ENDBRANCH  17  18
ENDBRANCH  14  17
ENDBRANCH   7  11
ENDBRANCH   1   4
BRANCH   1  23
HETATM   23  C   UNK N   1      29.322  17.306   4.366  0.00  0.00     0.177 C 
BRANCH  23  24
HETATM   24  C   UNK N   1      29.794  16.418   3.168  0.00  0.00     0.197 C 
BRANCH  24  25
HETATM   25  N   UNK N   1      31.195  16.013   3.034  0.00  0.00    -0.269 N 
HETATM   26  C   UNK N   1      31.633  14.744   3.004  0.00  0.00     0.212 A 
HETATM   27  N   UNK N   1      32.931  14.740   2.644  0.00  0.00    -0.281 N 
HETATM   28  N   UNK N   1      33.258  16.009   2.432  0.00  0.00    -0.008 NA
ATOM     29  HN  UNK N   1      33.540  13.927   2.552  1.00  0.00     0.184 HD
HETATM   30  N   UNK N   1      32.205  16.775   2.652  0.00  0.00    -0.005 NA
ENDBRANCH  24  25
ENDBRANCH  23  24
BRANCH  23  31
HETATM   31  C   UNK N   1      27.986  18.022   4.118  0.00  0.00     0.023 A 
HETATM   32  C   UNK N   1      27.966  19.425   4.243  0.00  0.00     0.017 A 
HETATM   33  C   UNK N   1      26.805  20.159   4.009  0.00  0.00     0.043 A 
HETATM   34  C   UNK N   1      25.633  19.505   3.644  0.00  0.00     0.119 A 
HETATM   35  C   UNK N   1      25.620  18.117   3.519  0.00  0.00     0.085 A 
HETATM   36  F   UNK N   1      24.506  20.215   3.406  0.00  0.00    -0.206 F 
HETATM   37  C   UNK N   1      26.778  17.371   3.749  0.00  0.00     0.128 A 
HETATM   38  F   UNK N   1      26.694  16.033   3.603  0.00  0.00    -0.205 F 
ENDBRANCH  23  31
BRANCH  23  39
HETATM   39  O   UNK N   1      30.301  18.302   4.441  0.00  0.00    -0.377 OA
HETATM   40  H   UNK N   1      31.169  18.596   4.127  0.00  0.00     0.211 HD
ENDBRANCH  23  39
ENDBRANCH   1  23
TORSDOF 10
ENDMDL
MODEL 4
REMARK VINA RESULT:      -8.1      3.905      6.242
REMARK  10 active torsions:
REMARK  status: ('A' for Active; 'I' for Inactive)
REMARK    1  A    between atoms: C_3  and  O_34 
REMARK    2  A    between atoms: C_6  and  C_7 
REMARK    3  A    between atoms: C_10  and  C_14 
REMARK    4  A    between atoms: C_14  and  C_15 
REMARK    5  A    between atoms: C_15  and  C_16 
REMARK    6  A    between atoms: C_15  and  C_23 
REMARK    7  A    between atoms: C_15  and  O_31 
REMARK    8  A    between atoms: C_16  and  N_17 
REMARK    9  A    between atoms: O_34  and  C_35 
REMARK   10  A    between atoms: C_35  and  C_36 
ROOT
HETATM    1  C   UNK N   1      35.087  14.747  11.421  0.00  0.00     0.322 C 
HETATM    2  F   UNK N   1      33.803  15.226  11.627  0.00  0.00    -0.195 F 
HETATM    3  F   UNK N   1      35.942  15.838  11.362  0.00  0.00    -0.195 F 
ENDROOT
BRANCH   1   4
HETATM    4  C   UNK N   1      35.444  13.939  12.641  0.00  0.00     0.085 A 
HETATM    5  C   UNK N   1      36.427  14.403  13.530  0.00  0.00     0.032 A 
HETATM    6  C   UNK N   1      36.541  13.811  14.791  0.00  0.00     0.016 A 
HETATM    7  C   UNK N   1      35.624  12.821  15.163  0.00  0.00    -0.011 A 
HETATM    8  C   UNK N   1      34.715  12.347  14.226  0.00  0.00     0.100 A 
HETATM    9  N   UNK N   1      34.671  12.883  12.992  0.00  0.00    -0.363 N 
ATOM     10  HN  UNK N   1      34.037  12.482  12.300  1.00  0.00     0.165 HD
BRANCH   7  11
HETATM   11  C   UNK N   1      35.522  12.336  16.536  0.00  0.00    -0.025 A 
HETATM   12  C   UNK N   1      35.704  10.990  16.845  0.00  0.00     0.015 A 
HETATM   13  C   UNK N   1      35.537  10.562  18.159  0.00  0.00     0.037 A 
HETATM   14  C   UNK N   1      35.252  11.481  19.183  0.00  0.00     0.069 A 
HETATM   15  C   UNK N   1      35.150  12.836  18.882  0.00  0.00     0.037 A 
HETATM   16  C   UNK N   1      35.257  13.259  17.563  0.00  0.00     0.015 A 
BRANCH  14  17
HETATM   17  O   UNK N   1      35.028  11.079  20.451  0.00  0.00    -0.342 OA
BRANCH  17  18
HETATM   18  C   UNK N   1      34.141  10.069  20.764  0.00  0.00     0.293 C 
BRANCH  18  19
HETATM   19  C   UNK N   1      33.146  10.430  21.857  0.00  0.00     0.408 C 
HETATM   20  F   UNK N   1      33.073  11.806  21.925  0.00  0.00    -0.169 F 
HETATM   21  F   UNK N   1      31.883   9.949  21.576  0.00  0.00    -0.169 F 
HETATM   22  F   UNK N   1      33.573   9.932  23.072  0.00  0.00    -0.169 F 
ENDBRANCH  18  19
ENDBRANCH  17  18
ENDBRANCH  14  17
ENDBRANCH   7  11
ENDBRANCH   1   4
BRANCH   1  23
HETATM   23  C   UNK N   1      35.129  13.968  10.055  0.00  0.00     0.177 C 
BRANCH  23  24
HETATM   24  C   UNK N   1      35.010  14.844   8.764  0.00  0.00     0.197 C 
BRANCH  24  25
HETATM   25  N   UNK N   1      34.057  15.953   8.689  0.00  0.00    -0.269 N 
HETATM   26  C   UNK N   1      34.385  17.243   8.506  0.00  0.00     0.212 A 
HETATM   27  N   UNK N   1      33.262  17.946   8.260  0.00  0.00    -0.281 N 
HETATM   28  N   UNK N   1      32.268  17.067   8.269  0.00  0.00    -0.008 NA
ATOM     29  HN  UNK N   1      33.191  18.950   8.099  1.00  0.00     0.184 HD
HETATM   30  N   UNK N   1      32.750  15.862   8.512  0.00  0.00    -0.005 NA
ENDBRANCH  24  25
ENDBRANCH  23  24
BRANCH  23  31
HETATM   31  C   UNK N   1      36.334  13.015  10.048  0.00  0.00     0.023 A 
HETATM   32  C   UNK N   1      36.069  11.631  10.084  0.00  0.00     0.017 A 
HETATM   33  C   UNK N   1      37.100  10.695  10.053  0.00  0.00     0.043 A 
HETATM   34  C   UNK N   1      38.423  11.120   9.985  0.00  0.00     0.119 A 
HETATM   35  C   UNK N   1      38.715  12.481   9.954  0.00  0.00     0.085 A 
HETATM   36  F   UNK N   1      39.425  10.212   9.944  0.00  0.00    -0.206 F 
HETATM   37  C   UNK N   1      37.691  13.431   9.982  0.00  0.00     0.128 A 
HETATM   38  F   UNK N   1      38.048  14.731   9.943  0.00  0.00    -0.205 F 
ENDBRANCH  23  31
BRANCH  23  39
HETATM   39  O   UNK N   1      33.985  13.166  10.013  0.00  0.00    -0.377 OA
HETATM   40  H   UNK N   1      33.024  13.148   9.886  0.00  0.00     0.211 HD
ENDBRANCH  23  39
ENDBRANCH   1  23
TORSDOF 10
ENDMDL
MODEL 5
REMARK VINA RESULT:      -8.1      4.306      6.729
REMARK  10 active torsions:
REMARK  status: ('A' for Active; 'I' for Inactive)
REMARK    1  A    between atoms: C_3  and  O_34 
REMARK    2  A    between atoms: C_6  and  C_7 
REMARK    3  A    between atoms: C_10  and  C_14 
REMARK    4  A    between atoms: C_14  and  C_15 
REMARK    5  A    between atoms: C_15  and  C_16 
REMARK    6  A    between atoms: C_15  and  C_23 
REMARK    7  A    between atoms: C_15  and  O_31 
REMARK    8  A    between atoms: C_16  and  N_17 
REMARK    9  A    between atoms: O_34  and  C_35 
REMARK   10  A    between atoms: C_35  and  C_36 
ROOT
HETATM    1  C   UNK N   1      36.409  13.450  12.478  0.00  0.00     0.322 C 
HETATM    2  F   UNK N   1      36.758  14.703  12.958  0.00  0.00    -0.195 F 
HETATM    3  F   UNK N   1      37.562  12.841  12.004  0.00  0.00    -0.195 F 
ENDROOT
BRANCH   1   4
HETATM    4  C   UNK N   1      35.917  12.659  13.662  0.00  0.00     0.085 A 
HETATM    5  C   UNK N   1      36.635  11.538  14.109  0.00  0.00     0.032 A 
HETATM    6  C   UNK N   1      36.344  10.997  15.364  0.00  0.00     0.016 A 
HETATM    7  C   UNK N   1      35.396  11.631  16.175  0.00  0.00    -0.011 A 
HETATM    8  C   UNK N   1      34.663  12.694  15.664  0.00  0.00     0.100 A 
HETATM    9  N   UNK N   1      34.910  13.153  14.423  0.00  0.00    -0.363 N 
ATOM     10  HN  UNK N   1      34.322  13.896  14.044  1.00  0.00     0.165 HD
BRANCH   7  11
HETATM   11  C   UNK N   1      35.219  11.278  17.580  0.00  0.00    -0.025 A 
HETATM   12  C   UNK N   1      35.346  12.232  18.588  0.00  0.00     0.015 A 
HETATM   13  C   UNK N   1      35.228  11.838  19.919  0.00  0.00     0.037 A 
HETATM   14  C   UNK N   1      34.920  10.508  20.250  0.00  0.00     0.069 A 
HETATM   15  C   UNK N   1      34.715   9.577  19.237  0.00  0.00     0.037 A 
HETATM   16  C   UNK N   1      34.890   9.952  17.911  0.00  0.00     0.015 A 
BRANCH  14  17
HETATM   17  O   UNK N   1      34.861  10.096  21.533  0.00  0.00    -0.342 OA
BRANCH  17  18
HETATM   18  C   UNK N   1      33.839   9.300  22.011  0.00  0.00     0.293 C 
BRANCH  18  19
HETATM   19  C   UNK N   1      32.537  10.045  22.266  0.00  0.00     0.408 C 
HETATM   20  F   UNK N   1      32.843  11.375  22.470  0.00  0.00    -0.169 F 
HETATM   21  F   UNK N   1      31.684   9.965  21.184  0.00  0.00    -0.169 F 
HETATM   22  F   UNK N   1      31.912   9.539  23.389  0.00  0.00    -0.169 F 
ENDBRANCH  18  19
ENDBRANCH  17  18
ENDBRANCH  14  17
ENDBRANCH   7  11
ENDBRANCH   1   4
BRANCH   1  23
HETATM   23  C   UNK N   1      35.379  13.621  11.301  0.00  0.00     0.177 C 
BRANCH  23  24
HETATM   24  C   UNK N   1      34.540  14.941  11.312  0.00  0.00     0.197 C 
BRANCH  24  25
HETATM   25  N   UNK N   1      34.799  16.008  10.342  0.00  0.00    -0.269 N 
HETATM   26  C   UNK N   1      34.142  16.173   9.182  0.00  0.00     0.212 A 
HETATM   27  N   UNK N   1      34.476  17.370   8.660  0.00  0.00    -0.281 N 
HETATM   28  N   UNK N   1      35.312  17.929   9.526  0.00  0.00    -0.008 NA
ATOM     29  HN  UNK N   1      34.152  17.766   7.778  1.00  0.00     0.184 HD
HETATM   30  N   UNK N   1      35.493  17.113  10.549  0.00  0.00    -0.005 NA
ENDBRANCH  24  25
ENDBRANCH  23  24
BRANCH  23  31
HETATM   31  C   UNK N   1      36.083  13.345   9.964  0.00  0.00     0.023 A 
HETATM   32  C   UNK N   1      35.555  12.324   9.149  0.00  0.00     0.017 A 
HETATM   33  C   UNK N   1      36.113  12.025   7.908  0.00  0.00     0.043 A 
HETATM   34  C   UNK N   1      37.215  12.741   7.451  0.00  0.00     0.119 A 
HETATM   35  C   UNK N   1      37.762  13.751   8.238  0.00  0.00     0.085 A 
HETATM   36  F   UNK N   1      37.752  12.459   6.241  0.00  0.00    -0.206 F 
HETATM   37  C   UNK N   1      37.211  14.063   9.483  0.00  0.00     0.128 A 
HETATM   38  F   UNK N   1      37.790  15.057  10.187  0.00  0.00    -0.205 F 
ENDBRANCH  23  31
BRANCH  23  39
HETATM   39  O   UNK N   1      34.417  12.620  11.460  0.00  0.00    -0.377 OA
HETATM   40  H   UNK N   1      33.888  12.111  12.093  0.00  0.00     0.211 HD
ENDBRANCH  23  39
ENDBRANCH   1  23
TORSDOF 10
ENDMDL
MODEL 6
REMARK VINA RESULT:      -8.0      3.493     10.015
REMARK  10 active torsions:
REMARK  status: ('A' for Active; 'I' for Inactive)
REMARK    1  A    between atoms: C_3  and  O_34 
REMARK    2  A    between atoms: C_6  and  C_7 
REMARK    3  A    between atoms: C_10  and  C_14 
REMARK    4  A    between atoms: C_14  and  C_15 
REMARK    5  A    between atoms: C_15  and  C_16 
REMARK    6  A    between atoms: C_15  and  C_23 
REMARK    7  A    between atoms: C_15  and  O_31 
REMARK    8  A    between atoms: C_16  and  N_17 
REMARK    9  A    between atoms: O_34  and  C_35 
REMARK   10  A    between atoms: C_35  and  C_36 
ROOT
HETATM    1  C   UNK N   1      35.739  14.814   9.777  0.00  0.00     0.322 C 
HETATM    2  F   UNK N   1      36.869  14.507   9.036  0.00  0.00    -0.195 F 
HETATM    3  F   UNK N   1      36.138  15.588  10.857  0.00  0.00    -0.195 F 
ENDROOT
BRANCH   1   4
HETATM    4  C   UNK N   1      34.864  15.663   8.893  0.00  0.00     0.085 A 
HETATM    5  C   UNK N   1      34.949  15.547   7.496  0.00  0.00     0.032 A 
HETATM    6  C   UNK N   1      33.945  16.108   6.702  0.00  0.00     0.016 A 
HETATM    7  C   UNK N   1      32.842  16.708   7.322  0.00  0.00    -0.011 A 
HETATM    8  C   UNK N   1      32.836  16.861   8.702  0.00  0.00     0.100 A 
HETATM    9  N   UNK N   1      33.850  16.376   9.443  0.00  0.00    -0.363 N 
ATOM     10  HN  UNK N   1      33.856  16.549  10.449  1.00  0.00     0.165 HD
BRANCH   7  11
HETATM   11  C   UNK N   1      31.647  17.090   6.577  0.00  0.00    -0.025 A 
HETATM   12  C   UNK N   1      30.442  17.354   7.225  0.00  0.00     0.015 A 
HETATM   13  C   UNK N   1      29.313  17.656   6.469  0.00  0.00     0.037 A 
HETATM   14  C   UNK N   1      29.391  17.761   5.070  0.00  0.00     0.069 A 
HETATM   15  C   UNK N   1      30.615  17.575   4.434  0.00  0.00     0.037 A 
HETATM   16  C   UNK N   1      31.731  17.215   5.179  0.00  0.00     0.015 A 
BRANCH  14  17
HETATM   17  O   UNK N   1      28.296  17.994   4.317  0.00  0.00    -0.342 OA
BRANCH  17  18
HETATM   18  C   UNK N   1      27.163  18.601   4.821  0.00  0.00     0.293 C 
BRANCH  18  19
HETATM   19  C   UNK N   1      27.086  20.096   4.550  0.00  0.00     0.408 C 
HETATM   20  F   UNK N   1      25.866  20.547   5.010  0.00  0.00    -0.169 F 
HETATM   21  F   UNK N   1      28.076  20.786   5.221  0.00  0.00    -0.169 F 
HETATM   22  F   UNK N   1      27.186  20.340   3.195  0.00  0.00    -0.169 F 
ENDBRANCH  18  19
ENDBRANCH  17  18
ENDBRANCH  14  17
ENDBRANCH   7  11
ENDBRANCH   1   4
BRANCH   1  23
HETATM   23  C   UNK N   1      35.088  13.479  10.296  0.00  0.00     0.177 C 
BRANCH  23  24
HETATM   24  C   UNK N   1      34.996  12.314   9.257  0.00  0.00     0.197 C 
BRANCH  24  25
HETATM   25  N   UNK N   1      33.924  11.318   9.332  0.00  0.00    -0.269 N 
HETATM   26  C   UNK N   1      33.941  10.222  10.107  0.00  0.00     0.212 A 
HETATM   27  N   UNK N   1      32.714   9.665  10.099  0.00  0.00    -0.281 N 
HETATM   28  N   UNK N   1      31.959  10.448   9.339  0.00  0.00    -0.008 NA
ATOM     29  HN  UNK N   1      32.424   8.814  10.579  1.00  0.00     0.184 HD
HETATM   30  N   UNK N   1      32.686  11.455   8.890  0.00  0.00    -0.005 NA
ENDBRANCH  24  25
ENDBRANCH  23  24
BRANCH  23  31
HETATM   31  C   UNK N   1      35.745  13.074  11.624  0.00  0.00     0.023 A 
HETATM   32  C   UNK N   1      34.996  13.257  12.803  0.00  0.00     0.017 A 
HETATM   33  C   UNK N   1      35.503  12.892  14.049  0.00  0.00     0.043 A 
HETATM   34  C   UNK N   1      36.773  12.334  14.145  0.00  0.00     0.119 A 
HETATM   35  C   UNK N   1      37.539  12.146  12.997  0.00  0.00     0.085 A 
HETATM   36  F   UNK N   1      37.264  11.968  15.352  0.00  0.00    -0.206 F 
HETATM   37  C   UNK N   1      37.043  12.506  11.742  0.00  0.00     0.128 A 
HETATM   38  F   UNK N   1      37.838  12.290  10.674  0.00  0.00    -0.205 F 
ENDBRANCH  23  31
BRANCH  23  39
HETATM   39  O   UNK N   1      33.751  13.769  10.584  0.00  0.00    -0.377 OA
HETATM   40  H   UNK N   1      32.905  14.080  10.228  0.00  0.00     0.211 HD
ENDBRANCH  23  39
ENDBRANCH   1  23
TORSDOF 10
ENDMDL
MODEL 7
REMARK VINA RESULT:      -8.0      4.154      6.491
REMARK  10 active torsions:
REMARK  status: ('A' for Active; 'I' for Inactive)
REMARK    1  A    between atoms: C_3  and  O_34 
REMARK    2  A    between atoms: C_6  and  C_7 
REMARK    3  A    between atoms: C_10  and  C_14 
REMARK    4  A    between atoms: C_14  and  C_15 
REMARK    5  A    between atoms: C_15  and  C_16 
REMARK    6  A    between atoms: C_15  and  C_23 
REMARK    7  A    between atoms: C_15  and  O_31 
REMARK    8  A    between atoms: C_16  and  N_17 
REMARK    9  A    between atoms: O_34  and  C_35 
REMARK   10  A    between atoms: C_35  and  C_36 
ROOT
HETATM    1  C   UNK N   1      35.170  14.945  11.619  0.00  0.00     0.322 C 
HETATM    2  F   UNK N   1      33.837  14.703  11.324  0.00  0.00    -0.195 F 
HETATM    3  F   UNK N   1      35.287  16.279  11.984  0.00  0.00    -0.195 F 
ENDROOT
BRANCH   1   4
HETATM    4  C   UNK N   1      35.503  14.102  12.821  0.00  0.00     0.085 A 
HETATM    5  C   UNK N   1      36.444  14.553  13.761  0.00  0.00     0.032 A 
HETATM    6  C   UNK N   1      36.528  13.918  15.003  0.00  0.00     0.016 A 
HETATM    7  C   UNK N   1      35.621  12.896  15.307  0.00  0.00    -0.011 A 
HETATM    8  C   UNK N   1      34.755  12.438  14.322  0.00  0.00     0.100 A 
HETATM    9  N   UNK N   1      34.742  13.017  13.108  0.00  0.00    -0.363 N 
ATOM     10  HN  UNK N   1      34.141  12.629  12.380  1.00  0.00     0.165 HD
BRANCH   7  11
HETATM   11  C   UNK N   1      35.482  12.360  16.657  0.00  0.00    -0.025 A 
HETATM   12  C   UNK N   1      35.541  10.990  16.903  0.00  0.00     0.015 A 
HETATM   13  C   UNK N   1      35.342  10.519  18.198  0.00  0.00     0.037 A 
HETATM   14  C   UNK N   1      35.149  11.412  19.265  0.00  0.00     0.069 A 
HETATM   15  C   UNK N   1      35.170  12.783  19.027  0.00  0.00     0.037 A 
HETATM   16  C   UNK N   1      35.308  13.254  17.727  0.00  0.00     0.015 A 
BRANCH  14  17
HETATM   17  O   UNK N   1      34.896  10.974  20.515  0.00  0.00    -0.342 OA
BRANCH  17  18
HETATM   18  C   UNK N   1      34.176   9.823  20.768  0.00  0.00     0.293 C 
BRANCH  18  19
HETATM   19  C   UNK N   1      32.969  10.029  21.671  0.00  0.00     0.408 C 
HETATM   20  F   UNK N   1      31.843   9.667  20.961  0.00  0.00    -0.169 F 
HETATM   21  F   UNK N   1      33.035   9.236  22.799  0.00  0.00    -0.169 F 
HETATM   22  F   UNK N   1      32.873  11.356  22.040  0.00  0.00    -0.169 F 
ENDBRANCH  18  19
ENDBRANCH  17  18
ENDBRANCH  14  17
ENDBRANCH   7  11
ENDBRANCH   1   4
BRANCH   1  23
HETATM   23  C   UNK N   1      36.037  14.671  10.335  0.00  0.00     0.177 C 
BRANCH  23  24
HETATM   24  C   UNK N   1      36.694  13.254  10.243  0.00  0.00     0.197 C 
BRANCH  24  25
HETATM   25  N   UNK N   1      37.995  13.066   9.598  0.00  0.00    -0.269 N 
HETATM   26  C   UNK N   1      38.830  12.039   9.828  0.00  0.00     0.212 A 
HETATM   27  N   UNK N   1      39.813  12.063   8.907  0.00  0.00    -0.281 N 
HETATM   28  N   UNK N   1      39.547  13.091   8.111  0.00  0.00    -0.008 NA
ATOM     29  HN  UNK N   1      40.603  11.423   8.836  1.00  0.00     0.184 HD
HETATM   30  N   UNK N   1      38.440  13.686   8.519  0.00  0.00    -0.005 NA
ENDBRANCH  24  25
ENDBRANCH  23  24
BRANCH  23  31
HETATM   31  C   UNK N   1      35.237  15.066   9.085  0.00  0.00     0.023 A 
HETATM   32  C   UNK N   1      34.825  14.032   8.222  0.00  0.00     0.017 A 
HETATM   33  C   UNK N   1      34.072  14.296   7.080  0.00  0.00     0.043 A 
HETATM   34  C   UNK N   1      33.712  15.604   6.774  0.00  0.00     0.119 A 
HETATM   35  C   UNK N   1      34.108  16.648   7.606  0.00  0.00     0.085 A 
HETATM   36  F   UNK N   1      32.971  15.863   5.671  0.00  0.00    -0.206 F 
HETATM   37  C   UNK N   1      34.862  16.397   8.755  0.00  0.00     0.128 A 
HETATM   38  F   UNK N   1      35.206  17.455   9.517  0.00  0.00    -0.205 F 
ENDBRANCH  23  31
BRANCH  23  39
HETATM   39  O   UNK N   1      37.133  15.537  10.398  0.00  0.00    -0.377 OA
HETATM   40  H   UNK N   1      37.899  15.822  10.919  0.00  0.00     0.211 HD
ENDBRANCH  23  39
ENDBRANCH   1  23
TORSDOF 10
ENDMDL
MODEL 8
REMARK VINA RESULT:      -8.0      3.003      4.528
REMARK  10 active torsions:
REMARK  status: ('A' for Active; 'I' for Inactive)
REMARK    1  A    between atoms: C_3  and  O_34 
REMARK    2  A    between atoms: C_6  and  C_7 
REMARK    3  A    between atoms: C_10  and  C_14 
REMARK    4  A    between atoms: C_14  and  C_15 
REMARK    5  A    between atoms: C_15  and  C_16 
REMARK    6  A    between atoms: C_15  and  C_23 
REMARK    7  A    between atoms: C_15  and  O_31 
REMARK    8  A    between atoms: C_16  and  N_17 
REMARK    9  A    between atoms: O_34  and  C_35 
REMARK   10  A    between atoms: C_35  and  C_36 
ROOT
HETATM    1  C   UNK N   1      29.891  17.119   5.078  0.00  0.00     0.322 C 
HETATM    2  F   UNK N   1      30.329  18.210   4.344  0.00  0.00    -0.195 F 
HETATM    3  F   UNK N   1      29.523  16.126   4.181  0.00  0.00    -0.195 F 
ENDROOT
BRANCH   1   4
HETATM    4  C   UNK N   1      31.079  16.624   5.860  0.00  0.00     0.085 A 
HETATM    5  C   UNK N   1      32.206  17.445   6.026  0.00  0.00     0.032 A 
HETATM    6  C   UNK N   1      33.164  17.104   6.984  0.00  0.00     0.016 A 
HETATM    7  C   UNK N   1      32.939  15.993   7.806  0.00  0.00    -0.011 A 
HETATM    8  C   UNK N   1      31.847  15.173   7.559  0.00  0.00     0.100 A 
HETATM    9  N   UNK N   1      30.974  15.481   6.581  0.00  0.00    -0.363 N 
ATOM     10  HN  UNK N   1      30.211  14.835   6.377  1.00  0.00     0.165 HD
BRANCH   7  11
HETATM   11  C   UNK N   1      33.760  15.720   8.982  0.00  0.00    -0.025 A 
HETATM   12  C   UNK N   1      33.757  14.468   9.593  0.00  0.00     0.015 A 
HETATM   13  C   UNK N   1      34.508  14.271  10.749  0.00  0.00     0.037 A 
HETATM   14  C   UNK N   1      35.315  15.297  11.265  0.00  0.00     0.069 A 
HETATM   15  C   UNK N   1      35.377  16.521  10.605  0.00  0.00     0.037 A 
HETATM   16  C   UNK N   1      34.583  16.741   9.486  0.00  0.00     0.015 A 
BRANCH  14  17
HETATM   17  O   UNK N   1      36.003  15.145  12.415  0.00  0.00    -0.342 OA
BRANCH  17  18
HETATM   18  C   UNK N   1      35.724  14.140  13.320  0.00  0.00     0.293 C 
BRANCH  18  19
HETATM   19  C   UNK N   1      36.619  12.917  13.189  0.00  0.00     0.408 C 
HETATM   20  F   UNK N   1      37.267  12.735  14.393  0.00  0.00    -0.169 F 
HETATM   21  F   UNK N   1      35.886  11.777  12.923  0.00  0.00    -0.169 F 
HETATM   22  F   UNK N   1      37.550  13.114  12.190  0.00  0.00    -0.169 F 
ENDBRANCH  18  19
ENDBRANCH  17  18
ENDBRANCH  14  17
ENDBRANCH   7  11
ENDBRANCH   1   4
BRANCH   1  23
HETATM   23  C   UNK N   1      28.643  17.545   5.935  0.00  0.00     0.177 C 
BRANCH  23  24
HETATM   24  C   UNK N   1      28.955  18.272   7.284  0.00  0.00     0.197 C 
BRANCH  24  25
HETATM   25  N   UNK N   1      28.901  17.552   8.559  0.00  0.00    -0.269 N 
HETATM   26  C   UNK N   1      29.916  17.453   9.434  0.00  0.00     0.212 A 
HETATM   27  N   UNK N   1      29.449  16.926  10.583  0.00  0.00    -0.281 N 
HETATM   28  N   UNK N   1      28.148  16.737  10.400  0.00  0.00    -0.008 NA
ATOM     29  HN  UNK N   1      29.987  16.714  11.422  1.00  0.00     0.184 HD
HETATM   30  N   UNK N   1      27.815  17.131   9.184  0.00  0.00    -0.005 NA
ENDBRANCH  24  25
ENDBRANCH  23  24
BRANCH  23  31
HETATM   31  C   UNK N   1      27.645  18.298   5.042  0.00  0.00     0.023 A 
HETATM   32  C   UNK N   1      27.654  19.706   5.098  0.00  0.00     0.017 A 
HETATM   33  C   UNK N   1      26.802  20.469   4.303  0.00  0.00     0.043 A 
HETATM   34  C   UNK N   1      25.919  19.842   3.431  0.00  0.00     0.119 A 
HETATM   35  C   UNK N   1      25.883  18.451   3.358  0.00  0.00     0.085 A 
HETATM   36  F   UNK N   1      25.098  20.581   2.649  0.00  0.00    -0.206 F 
HETATM   37  C   UNK N   1      26.733  17.674   4.148  0.00  0.00     0.128 A 
HETATM   38  F   UNK N   1      26.647  16.334   4.021  0.00  0.00    -0.205 F 
ENDBRANCH  23  31
BRANCH  23  39
HETATM   39  O   UNK N   1      28.009  16.366   6.336  0.00  0.00    -0.377 OA
HETATM   40  H   UNK N   1      27.722  15.480   6.067  0.00  0.00     0.211 HD
ENDBRANCH  23  39
ENDBRANCH   1  23
TORSDOF 10
ENDMDL
MODEL 9
REMARK VINA RESULT:      -7.8      4.361      6.046
REMARK  10 active torsions:
REMARK  status: ('A' for Active; 'I' for Inactive)
REMARK    1  A    between atoms: C_3  and  O_34 
REMARK    2  A    between atoms: C_6  and  C_7 
REMARK    3  A    between atoms: C_10  and  C_14 
REMARK    4  A    between atoms: C_14  and  C_15 
REMARK    5  A    between atoms: C_15  and  C_16 
REMARK    6  A    between atoms: C_15  and  C_23 
REMARK    7  A    between atoms: C_15  and  O_31 
REMARK    8  A    between atoms: C_16  and  N_17 
REMARK    9  A    between atoms: O_34  and  C_35 
REMARK   10  A    between atoms: C_35  and  C_36 
ROOT
HETATM    1  C   UNK N   1      27.807  17.588   6.523  0.00  0.00     0.322 C 
HETATM    2  F   UNK N   1      27.100  16.658   7.269  0.00  0.00    -0.195 F 
HETATM    3  F   UNK N   1      27.350  18.850   6.877  0.00  0.00    -0.195 F 
ENDROOT
BRANCH   1   4
HETATM    4  C   UNK N   1      29.246  17.476   6.951  0.00  0.00     0.085 A 
HETATM    5  C   UNK N   1      29.743  18.296   7.977  0.00  0.00     0.032 A 
HETATM    6  C   UNK N   1      30.973  17.987   8.563  0.00  0.00     0.016 A 
HETATM    7  C   UNK N   1      31.645  16.825   8.162  0.00  0.00    -0.011 A 
HETATM    8  C   UNK N   1      31.150  16.085   7.097  0.00  0.00     0.100 A 
HETATM    9  N   UNK N   1      29.998  16.443   6.499  0.00  0.00    -0.363 N 
ATOM     10  HN  UNK N   1      29.682  15.921   5.681  1.00  0.00     0.165 HD
BRANCH   7  11
HETATM   11  C   UNK N   1      32.798  16.306   8.892  0.00  0.00    -0.025 A 
HETATM   12  C   UNK N   1      32.810  15.008   9.398  0.00  0.00     0.015 A 
HETATM   13  C   UNK N   1      33.906  14.576  10.140  0.00  0.00     0.037 A 
HETATM   14  C   UNK N   1      35.021  15.409  10.327  0.00  0.00     0.069 A 
HETATM   15  C   UNK N   1      35.038  16.676   9.750  0.00  0.00     0.037 A 
HETATM   16  C   UNK N   1      33.922  17.133   9.061  0.00  0.00     0.015 A 
BRANCH  14  17
HETATM   17  O   UNK N   1      36.066  15.030  11.091  0.00  0.00    -0.342 OA
BRANCH  17  18
HETATM   18  C   UNK N   1      36.082  15.194  12.462  0.00  0.00     0.293 C 
BRANCH  18  19
HETATM   19  C   UNK N   1      36.208  13.894  13.243  0.00  0.00     0.408 C 
HETATM   20  F   UNK N   1      37.141  13.105  12.605  0.00  0.00    -0.169 F 
HETATM   21  F   UNK N   1      36.647  14.117  14.533  0.00  0.00    -0.169 F 
HETATM   22  F   UNK N   1      34.993  13.238  13.273  0.00  0.00    -0.169 F 
ENDBRANCH  18  19
ENDBRANCH  17  18
ENDBRANCH  14  17
ENDBRANCH   7  11
ENDBRANCH   1   4
BRANCH   1  23
HETATM   23  C   UNK N   1      27.530  17.336   4.995  0.00  0.00     0.177 C 
BRANCH  23  24
HETATM   24  C   UNK N   1      27.239  15.855   4.588  0.00  0.00     0.197 C 
BRANCH  24  25
HETATM   25  N   UNK N   1      28.111  15.144   3.650  0.00  0.00    -0.269 N 
HETATM   26  C   UNK N   1      27.816  14.886   2.365  0.00  0.00     0.212 A 
HETATM   27  N   UNK N   1      28.924  14.429   1.748  0.00  0.00    -0.281 N 
HETATM   28  N   UNK N   1      29.886  14.441   2.663  0.00  0.00    -0.008 NA
ATOM     29  HN  UNK N   1      29.006  14.132   0.777  1.00  0.00     0.184 HD
HETATM   30  N   UNK N   1      29.398  14.889   3.806  0.00  0.00    -0.005 NA
ENDBRANCH  24  25
ENDBRANCH  23  24
BRANCH  23  31
HETATM   31  C   UNK N   1      26.476  18.335   4.496  0.00  0.00     0.023 A 
HETATM   32  C   UNK N   1      26.929  19.443   3.753  0.00  0.00     0.017 A 
HETATM   33  C   UNK N   1      26.040  20.384   3.238  0.00  0.00     0.043 A 
HETATM   34  C   UNK N   1      24.673  20.239   3.454  0.00  0.00     0.119 A 
HETATM   35  C   UNK N   1      24.196  19.157   4.190  0.00  0.00     0.085 A 
HETATM   36  F   UNK N   1      23.807  21.146   2.946  0.00  0.00    -0.206 F 
HETATM   37  C   UNK N   1      25.077  18.206   4.711  0.00  0.00     0.128 A 
HETATM   38  F   UNK N   1      24.544  17.182   5.408  0.00  0.00    -0.205 F 
ENDBRANCH  23  31
BRANCH  23  39
HETATM   39  O   UNK N   1      28.716  17.635   4.318  0.00  0.00    -0.377 OA
HETATM   40  H   UNK N   1      29.642  17.387   4.178  0.00  0.00     0.211 HD
ENDBRANCH  23  39
ENDBRANCH   1  23
TORSDOF 10
ENDMDL
