REMARK  12 active torsions:
REMARK  status: ('A' for Active; 'I' for Inactive)
REMARK       I    between atoms: C_2  and  N_4 
REMARK    1  A    between atoms: N_7  and  C_10 
REMARK    2  A    between atoms: C_13  and  C_16 
REMARK    3  A    between atoms: C_16  and  N_17 
REMARK    4  A    between atoms: C_18  and  N_17 
REMARK       I    between atoms: N_17  and  C_43 
REMARK    5  A    between atoms: C_18  and  C_19 
REMARK    6  A    between atoms: C_18  and  C_26 
REMARK    7  A    between atoms: C_19  and  C_20 
REMARK       I    between atoms: C_26  and  N_28 
REMARK    8  A    between atoms: N_31  and  C_34 
REMARK    9  A    between atoms: C_34  and  C_35 
REMARK   10  A    between atoms: C_43  and  C_45 
REMARK   11  A    between atoms: C_46  and  C_47 
REMARK   12  A    between atoms: C_50  and  C_53 
ROOT
HETATM    1  C   UNK N   1      -0.759 -16.416   0.312  0.00  0.00    -0.030 A 
HETATM    2  C   UNK N   1      -1.090 -17.493  -0.503  0.00  0.00     0.010 A 
HETATM    3  C   UNK N   1      -2.419 -17.873  -0.665  0.00  0.00     0.023 A 
HETATM    4  C   UNK N   1      -3.430 -17.167  -0.012  0.00  0.00     0.044 A 
HETATM    5  C   UNK N   1      -3.105 -16.093   0.826  0.00  0.00     0.023 A 
HETATM    6  C   UNK N   1      -1.766 -15.718   0.994  0.00  0.00     0.010 A 
HETATM    7  C   UNK N   1      -4.805 -17.524  -0.213  0.00  0.00     0.099 C 
HETATM    8  N   UNK N   1      -5.926 -17.780  -0.349  0.00  0.00    -0.191 NA
ENDROOT
BRANCH   1   9
HETATM    9  C   UNK N   1       0.668 -15.989   0.376  0.00  0.00     0.311 C 
BRANCH   9  10
HETATM   10  N   UNK N   1       1.191 -15.635  -0.958  0.00  0.00     0.095 N 
HETATM   11  C   UNK N   1       2.562 -15.129  -0.808  0.00  0.00     0.292 C 
HETATM   12  C   UNK N   1       2.600 -13.857   0.051  0.00  0.00     0.156 C 
HETATM   13  N   UNK N   1       1.308 -13.219   0.016  0.00  0.00    -0.347 N 
HETATM   14  C   UNK N   1       0.729 -12.731   1.150  0.00  0.00     0.243 C 
HETATM   15  C   UNK N   1       0.609 -13.200  -1.247  0.00  0.00     0.156 C 
HETATM   16  O   UNK N   1       1.316 -12.783   2.220  0.00  0.00    -0.271 OA
HETATM   17  C   UNK N   1       0.335 -14.649  -1.663  0.00  0.00     0.292 C 
BRANCH  14  18
HETATM   18  C   UNK N   1      -0.592 -12.030   1.085  0.00  0.00     0.184 C 
BRANCH  18  19
HETATM   19  N   UNK N   1      -0.504 -10.579   1.106  0.00  0.00    -0.331 N 
HETATM   20  C   UNK N   1       0.576  -9.947   0.518  0.00  0.00     0.244 C 
HETATM   21  O   UNK N   1       1.258 -10.565  -0.283  0.00  0.00    -0.268 OA
BRANCH  19  22
HETATM   22  C   UNK N   1      -1.540  -9.869   1.818  0.00  0.00     0.165 C 
BRANCH  22  23
HETATM   23  C   UNK N   1      -2.293  -8.974   0.870  0.00  0.00    -0.040 C 
HETATM   24  C   UNK N   1      -1.783  -8.730  -0.413  0.00  0.00     0.011 C 
HETATM   25  C   UNK N   1      -2.127  -7.585  -1.090  0.00  0.00     0.030 C 
HETATM   26  C   UNK N   1      -3.031  -6.688  -0.509  0.00  0.00     0.030 C 
HETATM   27  C   UNK N   1      -3.728  -7.060   0.647  0.00  0.00     0.030 C 
HETATM   28  C   UNK N   1      -3.339  -8.193   1.353  0.00  0.00     0.011 C 
BRANCH  26  29
HETATM   29  N   UNK N   1      -2.866  -5.304  -0.771  0.00  0.00    -0.378 N 
HETATM   30  C   UNK N   1      -1.494  -4.888  -1.033  0.00  0.00     0.143 C 
HETATM   31  C   UNK N   1      -0.861  -4.546   0.322  0.00  0.00     0.145 C 
HETATM   32  N   UNK N   1      -1.687  -3.477   0.807  0.00  0.00    -0.349 N 
HETATM   33  C   UNK N   1      -1.362  -2.202   0.464  0.00  0.00     0.215 C 
HETATM   34  C   UNK N   1      -3.041  -3.814   1.180  0.00  0.00     0.145 C 
HETATM   35  C   UNK N   1      -2.365  -1.099   0.569  0.00  0.00     0.117 C 
HETATM   36  O   UNK N   1      -0.273  -1.961  -0.037  0.00  0.00    -0.274 OA
HETATM   37  C   UNK N   1      -3.732  -4.342  -0.092  0.00  0.00     0.143 C 
ENDBRANCH  26  29
ENDBRANCH  22  23
ENDBRANCH  19  22
BRANCH  20  38
HETATM   38  C   UNK N   1       0.979  -8.533   0.801  0.00  0.00     0.075 C 
HETATM   39  C   UNK N   1       2.282  -8.152   0.677  0.00  0.00     0.017 C 
BRANCH  39  40
HETATM   40  C   UNK N   1       3.389  -9.147   0.528  0.00  0.00    -0.036 A 
HETATM   41  C   UNK N   1       4.330  -8.996  -0.494  0.00  0.00     0.012 A 
HETATM   42  C   UNK N   1       5.229 -10.034  -0.786  0.00  0.00     0.009 A 
HETATM   43  C   UNK N   1       5.187 -11.244  -0.068  0.00  0.00    -0.051 A 
HETATM   44  C   UNK N   1       4.267 -11.371   0.983  0.00  0.00     0.009 A 
HETATM   45  C   UNK N   1       3.390 -10.331   1.289  0.00  0.00     0.012 A 
BRANCH  43  46
HETATM   46  C   UNK N   1       6.057 -12.430  -0.458  0.00  0.00    -0.024 C 
HETATM   47  C   UNK N   1       6.564 -13.147   0.782  0.00  0.00     0.019 C 
HETATM   48  C   UNK N   1       5.243 -13.410  -1.278  0.00  0.00     0.019 C 
HETATM   49  C   UNK N   1       7.259 -12.039  -1.303  0.00  0.00     0.019 C 
ENDBRANCH  43  46
ENDBRANCH  39  40
ENDBRANCH  20  38
ENDBRANCH  18  19
BRANCH  18  50
HETATM   50  C   UNK N   1      -1.753 -12.820   0.473  0.00  0.00     0.073 C 
BRANCH  50  51
HETATM   51  C   UNK N   1      -3.007 -12.148   0.063  0.00  0.00    -0.056 A 
HETATM   52  C   UNK N   1      -4.189 -12.451   0.741  0.00  0.00     0.007 A 
HETATM   53  C   UNK N   1      -5.399 -11.898   0.319  0.00  0.00     0.001 A 
HETATM   54  C   UNK N   1      -5.429 -11.044  -0.786  0.00  0.00     0.000 A 
HETATM   55  C   UNK N   1      -4.249 -10.757  -1.480  0.00  0.00     0.001 A 
HETATM   56  C   UNK N   1      -3.040 -11.326  -1.067  0.00  0.00     0.007 A 
ENDBRANCH  50  51
ENDBRANCH  18  50
ENDBRANCH  14  18
ENDBRANCH   9  10
ENDBRANCH   1   9
TORSDOF 12
