REMARK  11 active torsions:
REMARK  status: ('A' for Active; 'I' for Inactive)
REMARK    1  A    between atoms: C_17  and  C_9 
REMARK    2  A    between atoms: C_18  and  C_10 
REMARK    3  A    between atoms: C_19  and  C_11 
REMARK    4  A    between atoms: C_20  and  C_12 
REMARK    5  A    between atoms: C_22  and  C_21 
REMARK    6  A    between atoms: O_33  and  C_25 
REMARK    7  A    between atoms: O_34  and  C_26 
REMARK    8  A    between atoms: O_35  and  C_27 
REMARK    9  A    between atoms: O_36  and  C_28 
REMARK   10  A    between atoms: O_37  and  C_29 
REMARK   11  A    between atoms: O_38  and  C_30 
ROOT
HETATM    1  C   UNK N   1      -1.506   3.532   1.749  0.00  0.00     0.049 C 
HETATM    2  C   UNK N   1      -3.795   3.417   0.889  0.00  0.00     0.020 A 
HETATM    3  C   UNK N   1      -2.595   2.752   1.088  0.00  0.00    -0.047 A 
HETATM    4  C   UNK N   1      -4.928   2.778   0.380  0.00  0.00    -0.012 A 
HETATM    5  C   UNK N   1      -6.073   0.721  -0.300  0.00  0.00     0.051 A 
HETATM    6  C   UNK N   1      -6.106   3.531   0.138  0.00  0.00    -0.007 A 
HETATM    7  C   UNK N   1      -2.460   1.390   0.706  0.00  0.00     0.017 A 
HETATM    8  C   UNK N   1      -4.878   1.390   0.111  0.00  0.00     0.025 A 
HETATM    9  C   UNK N   1      -7.253   1.468  -0.487  0.00  0.00     0.113 A 
HETATM   10  C   UNK N   1      -3.625   0.715   0.229  0.00  0.00     0.089 A 
HETATM   11  C   UNK N   1      -7.268   2.850  -0.298  0.00  0.00     0.107 A 
ENDROOT
BRANCH   7  12
HETATM   12  C   UNK N   1      -1.112   0.672   0.706  0.00  0.00     0.017 A 
HETATM   13  C   UNK N   1      -0.977  -0.689   1.088  0.00  0.00    -0.047 A 
HETATM   14  C   UNK N   1      -2.067  -1.469   1.748  0.00  0.00     0.049 C 
HETATM   15  C   UNK N   1       0.223  -1.355   0.889  0.00  0.00     0.020 A 
HETATM   16  C   UNK N   1       1.356  -0.716   0.380  0.00  0.00    -0.012 A 
HETATM   17  C   UNK N   1       2.534  -1.468   0.138  0.00  0.00    -0.007 A 
HETATM   18  C   UNK N   1       1.305   0.673   0.111  0.00  0.00     0.025 A 
HETATM   19  C   UNK N   1       3.696  -0.788  -0.298  0.00  0.00     0.107 A 
HETATM   20  C   UNK N   1       3.681   0.594  -0.487  0.00  0.00     0.113 A 
HETATM   21  C   UNK N   1       2.500   1.341  -0.300  0.00  0.00     0.051 A 
HETATM   22  C   UNK N   1       0.053   1.347   0.229  0.00  0.00     0.089 A 
BRANCH  17  23
HETATM   23  C   UNK N   1       2.489  -2.989   0.326  0.00  0.00     0.014 C 
HETATM   24  C   UNK N   1       3.800  -3.752   0.232  0.00  0.00     0.015 C 
HETATM   25  C   UNK N   1       1.526  -3.611  -0.677  0.00  0.00     0.015 C 
ENDBRANCH  17  23
BRANCH  19  26
HETATM   26  O   UNK N   1       4.840  -1.450  -0.543  0.00  0.00    -0.357 OA
HETATM   27  H   UNK N   1       4.839  -2.372  -0.713  0.00  0.00     0.217 HD
ENDBRANCH  19  26
BRANCH  20  28
HETATM   28  O   UNK N   1       4.820   1.203  -0.874  0.00  0.00    -0.357 OA
HETATM   29  H   UNK N   1       5.582   0.729  -1.143  0.00  0.00     0.217 HD
ENDBRANCH  20  28
BRANCH  21  30
HETATM   30  C   UNK N   1       2.521   2.817  -0.496  0.00  0.00     0.273 C 
HETATM   31  O   UNK N   1       3.549   3.440  -0.709  0.00  0.00    -0.301 OA
ENDBRANCH  21  30
BRANCH  22  32
HETATM   32  O   UNK N   1      -0.052   2.616  -0.198  0.00  0.00    -0.359 OA
HETATM   33  H   UNK N   1       0.679   3.122  -0.495  0.00  0.00     0.217 HD
ENDBRANCH  22  32
ENDBRANCH   7  12
BRANCH  10  34
HETATM   34  O   UNK N   1      -3.520  -0.554  -0.198  0.00  0.00    -0.359 OA
HETATM   35  H   UNK N   1      -4.251  -1.060  -0.495  0.00  0.00     0.217 HD
ENDBRANCH  10  34
BRANCH   5  36
HETATM   36  C   UNK N   1      -6.093  -0.755  -0.496  0.00  0.00     0.273 C 
HETATM   37  O   UNK N   1      -7.121  -1.378  -0.709  0.00  0.00    -0.301 OA
ENDBRANCH   5  36
BRANCH   6  38
HETATM   38  C   UNK N   1      -6.061   5.052   0.327  0.00  0.00     0.014 C 
HETATM   39  C   UNK N   1      -7.373   5.814   0.232  0.00  0.00     0.015 C 
HETATM   40  C   UNK N   1      -5.099   5.673  -0.677  0.00  0.00     0.015 C 
ENDBRANCH   6  38
BRANCH   9  41
HETATM   41  O   UNK N   1      -8.392   0.860  -0.874  0.00  0.00    -0.357 OA
HETATM   42  H   UNK N   1      -9.154   1.334  -1.143  0.00  0.00     0.217 HD
ENDBRANCH   9  41
BRANCH  11  43
HETATM   43  O   UNK N   1      -8.413   3.513  -0.543  0.00  0.00    -0.357 OA
HETATM   44  H   UNK N   1      -8.412   4.434  -0.713  0.00  0.00     0.217 HD
ENDBRANCH  11  43
TORSDOF 11
