MODEL 1
REMARK VINA RESULT:      -9.2      0.000      0.000
REMARK  6 active torsions:
REMARK  status: ('A' for Active; 'I' for Inactive)
REMARK    1  A    between atoms: C_3  and  C_25 
REMARK    2  A    between atoms: C_5  and  N_7 
REMARK    3  A    between atoms: C_9  and  C_19 
REMARK       I    between atoms: C_19  and  N_21 
REMARK    4  A    between atoms: N_21  and  C_22 
REMARK    5  A    between atoms: C_26  and  C_27 
REMARK    6  A    between atoms: N_31  and  O_33 
ROOT
HETATM    1  N   UNK N   1      22.698  17.468   3.843  0.00  0.00    -0.306 N 
HETATM    2  C   UNK N   1      23.876  18.144   3.955  0.00  0.00     0.120 A 
HETATM    3  C   UNK N   1      24.006  19.492   3.616  0.00  0.00     0.099 A 
HETATM    4  C   UNK N   1      22.873  20.184   3.147  0.00  0.00     0.203 A 
HETATM    5  O   UNK N   1      22.945  21.362   2.840  0.00  0.00    -0.286 OA
HETATM    6  C   UNK N   1      21.655  19.501   3.022  0.00  0.00     0.060 A 
HETATM    7  C   UNK N   1      21.575  18.131   3.373  0.00  0.00     0.126 A 
HETATM    8  N   UNK N   1      20.375  17.492   3.240  0.00  0.00    -0.351 N 
ATOM      9  HN  UNK N   1      20.316  16.507   3.496  1.00  0.00     0.166 HD
HETATM   10  C   UNK N   1      19.258  18.117   2.783  0.00  0.00     0.090 A 
HETATM   11  C   UNK N   1      19.306  19.462   2.428  0.00  0.00     0.018 A 
HETATM   12  C   UNK N   1      20.508  20.155   2.549  0.00  0.00     0.021 A 
ENDROOT
BRANCH   1  13
HETATM   13  C   UNK N   1      22.702  16.058   4.223  0.00  0.00     0.042 A 
HETATM   14  C   UNK N   1      22.484  15.672   5.541  0.00  0.00     0.050 A 
HETATM   15  C   UNK N   1      22.470  14.342   5.927  0.00  0.00     0.020 A 
HETATM   16  C   UNK N   1      22.664  13.335   4.982  0.00  0.00     0.021 A 
HETATM   17  C   UNK N   1      22.893  13.688   3.645  0.00  0.00     0.004 A 
HETATM   18  C   UNK N   1      22.907  15.041   3.266  0.00  0.00     0.030 A 
BRANCH  15  19
HETATM   19  C   UNK N   1      22.171  14.095   7.298  0.00  0.00    -0.061 C 
HETATM   20  C   UNK N   1      22.106  13.633   8.404  0.00  0.00    -0.060 C 
BRANCH  20  21
HETATM   21  C   UNK N   1      22.338  13.030   9.677  0.00  0.00     0.036 A 
HETATM   22  C   UNK N   1      21.297  12.607  10.502  0.00  0.00     0.023 A 
HETATM   23  C   UNK N   1      21.600  12.035  11.741  0.00  0.00     0.021 A 
HETATM   24  C   UNK N   1      22.939  11.895  12.125  0.00  0.00     0.122 A 
HETATM   25  N   UNK N   1      23.938  12.306  11.298  0.00  0.00    -0.246 N 
HETATM   26  C   UNK N   1      23.660  12.865  10.093  0.00  0.00     0.142 A 
BRANCH  25  27
HETATM   27  O   UNK N   1      25.206  12.167  11.673  0.00  0.00    -0.284 OA
ATOM     28  HO  UNK N   1      25.746  11.499  11.269  1.00  0.00     0.245 HD
ENDBRANCH  25  27
ENDBRANCH  20  21
ENDBRANCH  15  19
ENDBRANCH   1  13
BRANCH   3  29
HETATM   29  C   UNK N   1      25.347  20.117   3.761  0.00  0.00     0.257 C 
HETATM   30  O   UNK N   1      25.935  20.508   2.760  0.00  0.00    -0.267 OA
HETATM   31  N   UNK N   1      25.920  20.269   4.983  0.00  0.00    -0.352 N 
HETATM   32  H   UNK N   1      25.436  19.941   5.774  0.00  0.00     0.163 HD
BRANCH  31  33
HETATM   33  C   UNK N   1      27.214  20.890   5.170  0.00  0.00     0.084 A 
HETATM   34  C   UNK N   1      27.177  21.741   6.424  0.00  0.00     0.027 A 
HETATM   35  C   UNK N   1      27.870  20.399   6.452  0.00  0.00     0.027 A 
ENDBRANCH  31  33
ENDBRANCH   3  29
TORSDOF 6
ENDMDL
MODEL 2
REMARK VINA RESULT:      -8.5      8.340     10.929
REMARK  6 active torsions:
REMARK  status: ('A' for Active; 'I' for Inactive)
REMARK    1  A    between atoms: C_3  and  C_25 
REMARK    2  A    between atoms: C_5  and  N_7 
REMARK    3  A    between atoms: C_9  and  C_19 
REMARK       I    between atoms: C_19  and  N_21 
REMARK    4  A    between atoms: N_21  and  C_22 
REMARK    5  A    between atoms: C_26  and  C_27 
REMARK    6  A    between atoms: N_31  and  O_33 
ROOT
HETATM    1  N   UNK N   1      31.491  16.405   7.411  0.00  0.00    -0.306 N 
HETATM    2  C   UNK N   1      30.508  17.328   7.601  0.00  0.00     0.120 A 
HETATM    3  C   UNK N   1      29.291  17.284   6.918  0.00  0.00     0.099 A 
HETATM    4  C   UNK N   1      29.068  16.239   6.001  0.00  0.00     0.203 A 
HETATM    5  O   UNK N   1      28.018  16.165   5.383  0.00  0.00    -0.286 OA
HETATM    6  C   UNK N   1      30.072  15.284   5.791  0.00  0.00     0.060 A 
HETATM    7  C   UNK N   1      31.292  15.375   6.504  0.00  0.00     0.126 A 
HETATM    8  N   UNK N   1      32.252  14.430   6.278  0.00  0.00    -0.351 N 
ATOM      9  HN  UNK N   1      33.130  14.493   6.795  1.00  0.00     0.166 HD
HETATM   10  C   UNK N   1      32.085  13.410   5.396  0.00  0.00     0.090 A 
HETATM   11  C   UNK N   1      30.897  13.295   4.679  0.00  0.00     0.018 A 
HETATM   12  C   UNK N   1      29.889  14.235   4.878  0.00  0.00     0.021 A 
ENDROOT
BRANCH   1  13
HETATM   13  C   UNK N   1      32.718  16.573   8.184  0.00  0.00     0.042 A 
HETATM   14  C   UNK N   1      33.052  15.682   9.199  0.00  0.00     0.050 A 
HETATM   15  C   UNK N   1      34.216  15.810   9.938  0.00  0.00     0.020 A 
HETATM   16  C   UNK N   1      35.108  16.849   9.670  0.00  0.00     0.021 A 
HETATM   17  C   UNK N   1      34.800  17.768   8.658  0.00  0.00     0.004 A 
HETATM   18  C   UNK N   1      33.616  17.629   7.915  0.00  0.00     0.030 A 
BRANCH  15  19
HETATM   19  C   UNK N   1      34.457  14.788  10.902  0.00  0.00    -0.061 C 
HETATM   20  C   UNK N   1      34.883  14.133  11.813  0.00  0.00    -0.060 C 
BRANCH  20  21
HETATM   21  C   UNK N   1      35.393  13.632  13.048  0.00  0.00     0.036 A 
HETATM   22  C   UNK N   1      35.024  12.388  13.557  0.00  0.00     0.023 A 
HETATM   23  C   UNK N   1      35.556  11.967  14.779  0.00  0.00     0.021 A 
HETATM   24  C   UNK N   1      36.451  12.799  15.463  0.00  0.00     0.122 A 
HETATM   25  N   UNK N   1      36.804  14.005  14.941  0.00  0.00    -0.246 N 
HETATM   26  C   UNK N   1      36.294  14.428  13.757  0.00  0.00     0.142 A 
BRANCH  25  27
HETATM   27  O   UNK N   1      37.655  14.786  15.599  0.00  0.00    -0.284 OA
ATOM     28  HO  UNK N   1      37.331  15.380  16.265  1.00  0.00     0.245 HD
ENDBRANCH  25  27
ENDBRANCH  20  21
ENDBRANCH  15  19
ENDBRANCH   1  13
BRANCH   3  29
HETATM   29  C   UNK N   1      28.301  18.359   7.193  0.00  0.00     0.257 C 
HETATM   30  O   UNK N   1      27.978  18.591   8.351  0.00  0.00    -0.267 OA
HETATM   31  N   UNK N   1      27.762  19.088   6.182  0.00  0.00    -0.352 N 
HETATM   32  H   UNK N   1      28.027  18.881   5.258  0.00  0.00     0.163 HD
BRANCH  31  33
HETATM   33  C   UNK N   1      26.811  20.157   6.408  0.00  0.00     0.084 A 
HETATM   34  C   UNK N   1      27.505  21.488   6.198  0.00  0.00     0.027 A 
HETATM   35  C   UNK N   1      26.578  20.952   5.132  0.00  0.00     0.027 A 
ENDBRANCH  31  33
ENDBRANCH   3  29
TORSDOF 6
ENDMDL
MODEL 3
REMARK VINA RESULT:      -8.4      4.626      6.883
REMARK  6 active torsions:
REMARK  status: ('A' for Active; 'I' for Inactive)
REMARK    1  A    between atoms: C_3  and  C_25 
REMARK    2  A    between atoms: C_5  and  N_7 
REMARK    3  A    between atoms: C_9  and  C_19 
REMARK       I    between atoms: C_19  and  N_21 
REMARK    4  A    between atoms: N_21  and  C_22 
REMARK    5  A    between atoms: C_26  and  C_27 
REMARK    6  A    between atoms: N_31  and  O_33 
ROOT
HETATM    1  N   UNK N   1      28.144  16.796   5.890  0.00  0.00    -0.306 N 
HETATM    2  C   UNK N   1      29.024  16.423   4.920  0.00  0.00     0.120 A 
HETATM    3  C   UNK N   1      30.408  16.509   5.085  0.00  0.00     0.099 A 
HETATM    4  C   UNK N   1      30.915  16.995   6.305  0.00  0.00     0.203 A 
HETATM    5  O   UNK N   1      32.118  17.087   6.489  0.00  0.00    -0.286 OA
HETATM    6  C   UNK N   1      30.022  17.387   7.312  0.00  0.00     0.060 A 
HETATM    7  C   UNK N   1      28.626  17.286   7.095  0.00  0.00     0.126 A 
HETATM    8  N   UNK N   1      27.780  17.677   8.093  0.00  0.00    -0.351 N 
ATOM      9  HN  UNK N   1      26.774  17.601   7.939  1.00  0.00     0.166 HD
HETATM   10  C   UNK N   1      28.223  18.161   9.283  0.00  0.00     0.090 A 
HETATM   11  C   UNK N   1      29.589  18.274   9.525  0.00  0.00     0.018 A 
HETATM   12  C   UNK N   1      30.490  17.885   8.537  0.00  0.00     0.021 A 
ENDROOT
BRANCH   1  13
HETATM   13  C   UNK N   1      26.723  16.662   5.585  0.00  0.00     0.042 A 
HETATM   14  C   UNK N   1      25.928  15.746   6.266  0.00  0.00     0.050 A 
HETATM   15  C   UNK N   1      24.574  15.607   6.005  0.00  0.00     0.020 A 
HETATM   16  C   UNK N   1      23.958  16.409   5.044  0.00  0.00     0.021 A 
HETATM   17  C   UNK N   1      24.731  17.339   4.335  0.00  0.00     0.004 A 
HETATM   18  C   UNK N   1      26.103  17.469   4.606  0.00  0.00     0.030 A 
BRANCH  15  19
HETATM   19  C   UNK N   1      23.876  14.674   6.824  0.00  0.00    -0.061 C 
HETATM   20  C   UNK N   1      23.545  13.921   7.700  0.00  0.00    -0.060 C 
BRANCH  20  21
HETATM   21  C   UNK N   1      23.271  13.251   8.930  0.00  0.00     0.036 A 
HETATM   22  C   UNK N   1      21.985  12.853   9.290  0.00  0.00     0.023 A 
HETATM   23  C   UNK N   1      21.789  12.211  10.516  0.00  0.00     0.021 A 
HETATM   24  C   UNK N   1      22.887  11.977  11.353  0.00  0.00     0.122 A 
HETATM   25  N   UNK N   1      24.135  12.368  10.975  0.00  0.00    -0.246 N 
HETATM   26  C   UNK N   1      24.340  12.993   9.789  0.00  0.00     0.142 A 
BRANCH  25  27
HETATM   27  O   UNK N   1      25.169  12.140  11.778  0.00  0.00    -0.284 OA
ATOM     28  HO  UNK N   1      26.053  12.288  11.462  1.00  0.00     0.245 HD
ENDBRANCH  25  27
ENDBRANCH  20  21
ENDBRANCH  15  19
ENDBRANCH   1  13
BRANCH   3  29
HETATM   29  C   UNK N   1      31.270  16.091   3.948  0.00  0.00     0.257 C 
HETATM   30  O   UNK N   1      31.183  16.688   2.881  0.00  0.00    -0.267 OA
HETATM   31  N   UNK N   1      32.154  15.069   4.079  0.00  0.00    -0.352 N 
HETATM   32  H   UNK N   1      32.203  14.596   4.940  0.00  0.00     0.163 HD
BRANCH  31  33
HETATM   33  C   UNK N   1      33.025  14.644   3.003  0.00  0.00     0.084 A 
HETATM   34  C   UNK N   1      34.377  14.275   3.580  0.00  0.00     0.027 A 
HETATM   35  C   UNK N   1      33.417  13.183   3.170  0.00  0.00     0.027 A 
ENDBRANCH  31  33
ENDBRANCH   3  29
TORSDOF 6
ENDMDL
MODEL 4
REMARK VINA RESULT:      -8.2      8.992     13.709
REMARK  6 active torsions:
REMARK  status: ('A' for Active; 'I' for Inactive)
REMARK    1  A    between atoms: C_3  and  C_25 
REMARK    2  A    between atoms: C_5  and  N_7 
REMARK    3  A    between atoms: C_9  and  C_19 
REMARK       I    between atoms: C_19  and  N_21 
REMARK    4  A    between atoms: N_21  and  C_22 
REMARK    5  A    between atoms: C_26  and  C_27 
REMARK    6  A    between atoms: N_31  and  O_33 
ROOT
HETATM    1  N   UNK N   1      34.313  14.568  10.028  0.00  0.00    -0.306 N 
HETATM    2  C   UNK N   1      34.805  14.702  11.292  0.00  0.00     0.120 A 
HETATM    3  C   UNK N   1      35.176  13.608  12.076  0.00  0.00     0.099 A 
HETATM    4  C   UNK N   1      35.044  12.315  11.538  0.00  0.00     0.203 A 
HETATM    5  O   UNK N   1      35.357  11.332  12.191  0.00  0.00    -0.286 OA
HETATM    6  C   UNK N   1      34.536  12.159  10.241  0.00  0.00     0.060 A 
HETATM    7  C   UNK N   1      34.168  13.300   9.487  0.00  0.00     0.126 A 
HETATM    8  N   UNK N   1      33.674  13.118   8.226  0.00  0.00    -0.351 N 
ATOM      9  HN  UNK N   1      33.412  13.939   7.680  1.00  0.00     0.166 HD
HETATM   10  C   UNK N   1      33.520  11.888   7.669  0.00  0.00     0.090 A 
HETATM   11  C   UNK N   1      33.872  10.748   8.386  0.00  0.00     0.018 A 
HETATM   12  C   UNK N   1      34.382  10.885   9.675  0.00  0.00     0.021 A 
ENDROOT
BRANCH   1  13
HETATM   13  C   UNK N   1      33.956  15.794   9.321  0.00  0.00     0.042 A 
HETATM   14  C   UNK N   1      32.677  15.974   8.805  0.00  0.00     0.050 A 
HETATM   15  C   UNK N   1      32.307  17.132   8.140  0.00  0.00     0.020 A 
HETATM   16  C   UNK N   1      33.221  18.173   7.981  0.00  0.00     0.021 A 
HETATM   17  C   UNK N   1      34.521  18.023   8.484  0.00  0.00     0.004 A 
HETATM   18  C   UNK N   1      34.886  16.843   9.154  0.00  0.00     0.030 A 
BRANCH  15  19
HETATM   19  C   UNK N   1      30.946  17.201   7.722  0.00  0.00    -0.061 C 
HETATM   20  C   UNK N   1      29.889  17.551   7.272  0.00  0.00    -0.060 C 
BRANCH  20  21
HETATM   21  C   UNK N   1      28.811  18.086   6.506  0.00  0.00     0.036 A 
HETATM   22  C   UNK N   1      28.517  17.639   5.220  0.00  0.00     0.023 A 
HETATM   23  C   UNK N   1      27.452  18.218   4.524  0.00  0.00     0.021 A 
HETATM   24  C   UNK N   1      26.701  19.230   5.133  0.00  0.00     0.122 A 
HETATM   25  N   UNK N   1      27.001  19.643   6.395  0.00  0.00    -0.246 N 
HETATM   26  C   UNK N   1      28.033  19.092   7.082  0.00  0.00     0.142 A 
BRANCH  25  27
HETATM   27  O   UNK N   1      26.280  20.604   6.964  0.00  0.00    -0.284 OA
ATOM     28  HO  UNK N   1      25.548  20.985   6.494  1.00  0.00     0.245 HD
ENDBRANCH  25  27
ENDBRANCH  20  21
ENDBRANCH  15  19
ENDBRANCH   1  13
BRANCH   3  29
HETATM   29  C   UNK N   1      35.681  13.878  13.449  0.00  0.00     0.257 C 
HETATM   30  O   UNK N   1      36.365  14.874  13.649  0.00  0.00    -0.267 OA
HETATM   31  N   UNK N   1      35.385  13.044  14.479  0.00  0.00    -0.352 N 
HETATM   32  H   UNK N   1      34.842  12.244  14.297  0.00  0.00     0.163 HD
BRANCH  31  33
HETATM   33  C   UNK N   1      35.839  13.281  15.833  0.00  0.00     0.084 A 
HETATM   34  C   UNK N   1      34.647  13.240  16.768  0.00  0.00     0.027 A 
HETATM   35  C   UNK N   1      35.589  12.062  16.708  0.00  0.00     0.027 A 
ENDBRANCH  31  33
ENDBRANCH   3  29
TORSDOF 6
ENDMDL
MODEL 5
REMARK VINA RESULT:      -8.2      4.841      8.079
REMARK  6 active torsions:
REMARK  status: ('A' for Active; 'I' for Inactive)
REMARK    1  A    between atoms: C_3  and  C_25 
REMARK    2  A    between atoms: C_5  and  N_7 
REMARK    3  A    between atoms: C_9  and  C_19 
REMARK       I    between atoms: C_19  and  N_21 
REMARK    4  A    between atoms: N_21  and  C_22 
REMARK    5  A    between atoms: C_26  and  C_27 
REMARK    6  A    between atoms: N_31  and  O_33 
ROOT
HETATM    1  N   UNK N   1      25.985  17.145   4.401  0.00  0.00    -0.306 N 
HETATM    2  C   UNK N   1      25.261  16.215   5.085  0.00  0.00     0.120 A 
HETATM    3  C   UNK N   1      23.896  16.360   5.337  0.00  0.00     0.099 A 
HETATM    4  C   UNK N   1      23.238  17.509   4.860  0.00  0.00     0.203 A 
HETATM    5  O   UNK N   1      22.045  17.673   5.060  0.00  0.00    -0.286 OA
HETATM    6  C   UNK N   1      23.969  18.477   4.157  0.00  0.00     0.060 A 
HETATM    7  C   UNK N   1      25.354  18.287   3.932  0.00  0.00     0.126 A 
HETATM    8  N   UNK N   1      26.041  19.248   3.245  0.00  0.00    -0.351 N 
ATOM      9  HN  UNK N   1      27.038  19.110   3.079  1.00  0.00     0.166 HD
HETATM   10  C   UNK N   1      25.450  20.377   2.774  0.00  0.00     0.090 A 
HETATM   11  C   UNK N   1      24.091  20.592   2.982  0.00  0.00     0.018 A 
HETATM   12  C   UNK N   1      23.349  19.639   3.675  0.00  0.00     0.021 A 
ENDROOT
BRANCH   1  13
HETATM   13  C   UNK N   1      27.407  16.874   4.214  0.00  0.00     0.042 A 
HETATM   14  C   UNK N   1      28.331  17.184   5.206  0.00  0.00     0.050 A 
HETATM   15  C   UNK N   1      29.684  16.926   5.060  0.00  0.00     0.020 A 
HETATM   16  C   UNK N   1      30.163  16.324   3.897  0.00  0.00     0.021 A 
HETATM   17  C   UNK N   1      29.260  16.004   2.873  0.00  0.00     0.004 A 
HETATM   18  C   UNK N   1      27.890  16.272   3.031  0.00  0.00     0.030 A 
BRANCH  15  19
HETATM   19  C   UNK N   1      30.501  17.238   6.185  0.00  0.00    -0.061 C 
HETATM   20  C   UNK N   1      31.336  17.230   7.048  0.00  0.00    -0.060 C 
BRANCH  20  21
HETATM   21  C   UNK N   1      32.519  17.125   7.840  0.00  0.00     0.036 A 
HETATM   22  C   UNK N   1      32.809  15.993   8.599  0.00  0.00     0.023 A 
HETATM   23  C   UNK N   1      33.982  15.966   9.359  0.00  0.00     0.021 A 
HETATM   24  C   UNK N   1      34.841  17.072   9.339  0.00  0.00     0.122 A 
HETATM   25  N   UNK N   1      34.540  18.162   8.582  0.00  0.00    -0.246 N 
HETATM   26  C   UNK N   1      33.405  18.203   7.840  0.00  0.00     0.142 A 
BRANCH  25  27
HETATM   27  O   UNK N   1      35.364  19.205   8.571  0.00  0.00    -0.284 OA
ATOM     28  HO  UNK N   1      35.975  19.315   7.852  1.00  0.00     0.245 HD
ENDBRANCH  25  27
ENDBRANCH  20  21
ENDBRANCH  15  19
ENDBRANCH   1  13
BRANCH   3  29
HETATM   29  C   UNK N   1      23.216  15.288   6.113  0.00  0.00     0.257 C 
HETATM   30  O   UNK N   1      23.499  14.118   5.890  0.00  0.00    -0.267 OA
HETATM   31  N   UNK N   1      22.299  15.591   7.068  0.00  0.00    -0.352 N 
HETATM   32  H   UNK N   1      22.078  16.536   7.227  0.00  0.00     0.163 HD
BRANCH  31  33
HETATM   33  C   UNK N   1      21.630  14.580   7.859  0.00  0.00     0.084 A 
HETATM   34  C   UNK N   1      21.028  15.232   9.088  0.00  0.00     0.027 A 
HETATM   35  C   UNK N   1      20.135  14.851   7.932  0.00  0.00     0.027 A 
ENDBRANCH  31  33
ENDBRANCH   3  29
TORSDOF 6
ENDMDL
MODEL 6
REMARK VINA RESULT:      -8.2      4.572      8.344
REMARK  6 active torsions:
REMARK  status: ('A' for Active; 'I' for Inactive)
REMARK    1  A    between atoms: C_3  and  C_25 
REMARK    2  A    between atoms: C_5  and  N_7 
REMARK    3  A    between atoms: C_9  and  C_19 
REMARK       I    between atoms: C_19  and  N_21 
REMARK    4  A    between atoms: N_21  and  C_22 
REMARK    5  A    between atoms: C_26  and  C_27 
REMARK    6  A    between atoms: N_31  and  O_33 
ROOT
HETATM    1  N   UNK N   1      25.248  16.168   5.763  0.00  0.00    -0.306 N 
HETATM    2  C   UNK N   1      25.179  15.011   6.478  0.00  0.00     0.120 A 
HETATM    3  C   UNK N   1      23.975  14.495   6.961  0.00  0.00     0.099 A 
HETATM    4  C   UNK N   1      22.783  15.195   6.694  0.00  0.00     0.203 A 
HETATM    5  O   UNK N   1      21.710  14.778   7.099  0.00  0.00    -0.286 OA
HETATM    6  C   UNK N   1      22.839  16.390   5.963  0.00  0.00     0.060 A 
HETATM    7  C   UNK N   1      24.085  16.875   5.498  0.00  0.00     0.126 A 
HETATM    8  N   UNK N   1      24.108  18.043   4.790  0.00  0.00    -0.351 N 
ATOM      9  HN  UNK N   1      25.005  18.391   4.451  1.00  0.00     0.166 HD
HETATM   10  C   UNK N   1      22.985  18.757   4.515  0.00  0.00     0.090 A 
HETATM   11  C   UNK N   1      21.745  18.306   4.960  0.00  0.00     0.018 A 
HETATM   12  C   UNK N   1      21.673  17.119   5.685  0.00  0.00     0.021 A 
ENDROOT
BRANCH   1  13
HETATM   13  C   UNK N   1      26.572  16.599   5.324  0.00  0.00     0.042 A 
HETATM   14  C   UNK N   1      27.593  16.820   6.242  0.00  0.00     0.050 A 
HETATM   15  C   UNK N   1      28.862  17.217   5.852  0.00  0.00     0.020 A 
HETATM   16  C   UNK N   1      29.157  17.396   4.500  0.00  0.00     0.021 A 
HETATM   17  C   UNK N   1      28.150  17.188   3.548  0.00  0.00     0.004 A 
HETATM   18  C   UNK N   1      26.866  16.787   3.955  0.00  0.00     0.030 A 
BRANCH  15  19
HETATM   19  C   UNK N   1      29.823  17.343   6.896  0.00  0.00    -0.061 C 
HETATM   20  C   UNK N   1      30.789  17.233   7.600  0.00  0.00    -0.060 C 
BRANCH  20  21
HETATM   21  C   UNK N   1      32.094  17.100   8.162  0.00  0.00     0.036 A 
HETATM   22  C   UNK N   1      32.490  15.964   8.866  0.00  0.00     0.023 A 
HETATM   23  C   UNK N   1      33.782  15.909   9.398  0.00  0.00     0.021 A 
HETATM   24  C   UNK N   1      34.650  16.991   9.210  0.00  0.00     0.122 A 
HETATM   25  N   UNK N   1      34.244  18.085   8.511  0.00  0.00    -0.246 N 
HETATM   26  C   UNK N   1      32.993  18.154   7.989  0.00  0.00     0.142 A 
BRANCH  25  27
HETATM   27  O   UNK N   1      35.077  19.106   8.338  0.00  0.00    -0.284 OA
ATOM     28  HO  UNK N   1      34.967  19.897   8.852  1.00  0.00     0.245 HD
ENDBRANCH  25  27
ENDBRANCH  20  21
ENDBRANCH  15  19
ENDBRANCH   1  13
BRANCH   3  29
HETATM   29  C   UNK N   1      24.026  13.234   7.748  0.00  0.00     0.257 C 
HETATM   30  O   UNK N   1      24.586  12.255   7.270  0.00  0.00    -0.267 OA
HETATM   31  N   UNK N   1      23.472  13.158   8.985  0.00  0.00    -0.352 N 
HETATM   32  H   UNK N   1      23.019  13.953   9.348  0.00  0.00     0.163 HD
BRANCH  31  33
HETATM   33  C   UNK N   1      23.518  11.957   9.792  0.00  0.00     0.084 A 
HETATM   34  C   UNK N   1      24.540  12.142  10.895  0.00  0.00     0.027 A 
HETATM   35  C   UNK N   1      23.068  12.244  11.217  0.00  0.00     0.027 A 
ENDBRANCH  31  33
ENDBRANCH   3  29
TORSDOF 6
ENDMDL
MODEL 7
REMARK VINA RESULT:      -8.1      2.353      3.420
REMARK  6 active torsions:
REMARK  status: ('A' for Active; 'I' for Inactive)
REMARK    1  A    between atoms: C_3  and  C_25 
REMARK    2  A    between atoms: C_5  and  N_7 
REMARK    3  A    between atoms: C_9  and  C_19 
REMARK       I    between atoms: C_19  and  N_21 
REMARK    4  A    between atoms: N_21  and  C_22 
REMARK    5  A    between atoms: C_26  and  C_27 
REMARK    6  A    between atoms: N_31  and  O_33 
ROOT
HETATM    1  N   UNK N   1      24.747  17.085   4.899  0.00  0.00    -0.306 N 
HETATM    2  C   UNK N   1      25.911  16.715   5.501  0.00  0.00     0.120 A 
HETATM    3  C   UNK N   1      27.035  17.542   5.541  0.00  0.00     0.099 A 
HETATM    4  C   UNK N   1      26.961  18.813   4.940  0.00  0.00     0.203 A 
HETATM    5  O   UNK N   1      27.922  19.566   4.953  0.00  0.00    -0.286 OA
HETATM    6  C   UNK N   1      25.771  19.207   4.313  0.00  0.00     0.060 A 
HETATM    7  C   UNK N   1      24.660  18.330   4.295  0.00  0.00     0.126 A 
HETATM    8  N   UNK N   1      23.514  18.741   3.675  0.00  0.00    -0.351 N 
ATOM      9  HN  UNK N   1      22.711  18.112   3.664  1.00  0.00     0.166 HD
HETATM   10  C   UNK N   1      23.399  19.955   3.074  0.00  0.00     0.090 A 
HETATM   11  C   UNK N   1      24.475  20.838   3.075  0.00  0.00     0.018 A 
HETATM   12  C   UNK N   1      25.664  20.463   3.697  0.00  0.00     0.021 A 
ENDROOT
BRANCH   1  13
HETATM   13  C   UNK N   1      23.651  16.122   4.923  0.00  0.00     0.042 A 
HETATM   14  C   UNK N   1      23.252  15.520   6.112  0.00  0.00     0.050 A 
HETATM   15  C   UNK N   1      22.207  14.612   6.165  0.00  0.00     0.020 A 
HETATM   16  C   UNK N   1      21.504  14.282   5.006  0.00  0.00     0.021 A 
HETATM   17  C   UNK N   1      21.883  14.865   3.789  0.00  0.00     0.004 A 
HETATM   18  C   UNK N   1      22.946  15.783   3.747  0.00  0.00     0.030 A 
BRANCH  15  19
HETATM   19  C   UNK N   1      21.871  14.126   7.461  0.00  0.00    -0.061 C 
HETATM   20  C   UNK N   1      21.868  13.566   8.524  0.00  0.00    -0.060 C 
BRANCH  20  21
HETATM   21  C   UNK N   1      22.170  12.983   9.790  0.00  0.00     0.036 A 
HETATM   22  C   UNK N   1      21.177  12.553  10.668  0.00  0.00     0.023 A 
HETATM   23  C   UNK N   1      21.547  12.002  11.898  0.00  0.00     0.021 A 
HETATM   24  C   UNK N   1      22.906  11.887  12.220  0.00  0.00     0.122 A 
HETATM   25  N   UNK N   1      23.857  12.305  11.342  0.00  0.00    -0.246 N 
HETATM   26  C   UNK N   1      23.513  12.844  10.145  0.00  0.00     0.142 A 
BRANCH  25  27
HETATM   27  O   UNK N   1      25.143  12.191  11.658  0.00  0.00    -0.284 OA
ATOM     28  HO  UNK N   1      25.724  12.935  11.547  1.00  0.00     0.245 HD
ENDBRANCH  25  27
ENDBRANCH  20  21
ENDBRANCH  15  19
ENDBRANCH   1  13
BRANCH   3  29
HETATM   29  C   UNK N   1      28.257  17.020   6.209  0.00  0.00     0.257 C 
HETATM   30  O   UNK N   1      28.785  16.002   5.779  0.00  0.00    -0.267 OA
HETATM   31  N   UNK N   1      28.798  17.661   7.277  0.00  0.00    -0.352 N 
HETATM   32  H   UNK N   1      28.355  18.473   7.613  0.00  0.00     0.163 HD
BRANCH  31  33
HETATM   33  C   UNK N   1      29.997  17.199   7.943  0.00  0.00     0.084 A 
HETATM   34  C   UNK N   1      30.575  18.334   8.765  0.00  0.00     0.027 A 
HETATM   35  C   UNK N   1      29.820  17.223   9.454  0.00  0.00     0.027 A 
ENDBRANCH  31  33
ENDBRANCH   3  29
TORSDOF 6
ENDMDL
MODEL 8
REMARK VINA RESULT:      -8.1     12.585     16.127
REMARK  6 active torsions:
REMARK  status: ('A' for Active; 'I' for Inactive)
REMARK    1  A    between atoms: C_3  and  C_25 
REMARK    2  A    between atoms: C_5  and  N_7 
REMARK    3  A    between atoms: C_9  and  C_19 
REMARK       I    between atoms: C_19  and  N_21 
REMARK    4  A    between atoms: N_21  and  C_22 
REMARK    5  A    between atoms: C_26  and  C_27 
REMARK    6  A    between atoms: N_31  and  O_33 
ROOT
HETATM    1  N   UNK N   1      36.374  14.344  13.090  0.00  0.00    -0.306 N 
HETATM    2  C   UNK N   1      35.858  15.365  12.349  0.00  0.00     0.120 A 
HETATM    3  C   UNK N   1      35.704  15.286  10.963  0.00  0.00     0.099 A 
HETATM    4  C   UNK N   1      36.091  14.104  10.306  0.00  0.00     0.203 A 
HETATM    5  O   UNK N   1      35.973  13.995   9.096  0.00  0.00    -0.286 OA
HETATM    6  C   UNK N   1      36.628  13.046  11.053  0.00  0.00     0.060 A 
HETATM    7  C   UNK N   1      36.769  13.176  12.456  0.00  0.00     0.126 A 
HETATM    8  N   UNK N   1      37.297  12.130  13.159  0.00  0.00    -0.351 N 
ATOM      9  HN  UNK N   1      37.396  12.221  14.170  1.00  0.00     0.166 HD
HETATM   10  C   UNK N   1      37.693  10.973  12.566  0.00  0.00     0.090 A 
HETATM   11  C   UNK N   1      37.568  10.817  11.188  0.00  0.00     0.018 A 
HETATM   12  C   UNK N   1      37.033  11.857  10.431  0.00  0.00     0.021 A 
ENDROOT
BRANCH   1  13
HETATM   13  C   UNK N   1      36.488  14.560  14.529  0.00  0.00     0.042 A 
HETATM   14  C   UNK N   1      35.930  13.663  15.433  0.00  0.00     0.050 A 
HETATM   15  C   UNK N   1      36.035  13.836  16.804  0.00  0.00     0.020 A 
HETATM   16  C   UNK N   1      36.728  14.930  17.322  0.00  0.00     0.021 A 
HETATM   17  C   UNK N   1      37.298  15.858  16.439  0.00  0.00     0.004 A 
HETATM   18  C   UNK N   1      37.184  15.673  15.051  0.00  0.00     0.030 A 
BRANCH  15  19
HETATM   19  C   UNK N   1      35.469  12.804  17.607  0.00  0.00    -0.061 C 
HETATM   20  C   UNK N   1      35.097  11.749  18.044  0.00  0.00    -0.060 C 
BRANCH  20  21
HETATM   21  C   UNK N   1      34.934  10.394  18.458  0.00  0.00     0.036 A 
HETATM   22  C   UNK N   1      35.128   9.321  17.590  0.00  0.00     0.023 A 
HETATM   23  C   UNK N   1      34.940   8.019  18.064  0.00  0.00     0.021 A 
HETATM   24  C   UNK N   1      34.567   7.820  19.399  0.00  0.00     0.122 A 
HETATM   25  N   UNK N   1      34.394   8.883  20.230  0.00  0.00    -0.246 N 
HETATM   26  C   UNK N   1      34.571  10.152  19.784  0.00  0.00     0.142 A 
BRANCH  25  27
HETATM   27  O   UNK N   1      34.040   8.681  21.495  0.00  0.00    -0.284 OA
ATOM     28  HO  UNK N   1      34.697   8.724  22.180  1.00  0.00     0.245 HD
ENDBRANCH  25  27
ENDBRANCH  20  21
ENDBRANCH  15  19
ENDBRANCH   1  13
BRANCH   3  29
HETATM   29  C   UNK N   1      35.148  16.472  10.259  0.00  0.00     0.257 C 
HETATM   30  O   UNK N   1      35.688  17.561  10.405  0.00  0.00    -0.267 OA
HETATM   31  N   UNK N   1      34.061  16.360   9.453  0.00  0.00    -0.352 N 
HETATM   32  H   UNK N   1      33.635  15.478   9.354  0.00  0.00     0.163 HD
BRANCH  31  33
HETATM   33  C   UNK N   1      33.500  17.484   8.733  0.00  0.00     0.084 A 
HETATM   34  C   UNK N   1      33.961  17.427   7.291  0.00  0.00     0.027 A 
HETATM   35  C   UNK N   1      32.553  17.010   7.641  0.00  0.00     0.027 A 
ENDBRANCH  31  33
ENDBRANCH   3  29
TORSDOF 6
ENDMDL
MODEL 9
REMARK VINA RESULT:      -8.1      4.777      8.561
REMARK  6 active torsions:
REMARK  status: ('A' for Active; 'I' for Inactive)
REMARK    1  A    between atoms: C_3  and  C_25 
REMARK    2  A    between atoms: C_5  and  N_7 
REMARK    3  A    between atoms: C_9  and  C_19 
REMARK       I    between atoms: C_19  and  N_21 
REMARK    4  A    between atoms: N_21  and  C_22 
REMARK    5  A    between atoms: C_26  and  C_27 
REMARK    6  A    between atoms: N_31  and  O_33 
ROOT
HETATM    1  N   UNK N   1      28.941  18.024   5.513  0.00  0.00    -0.306 N 
HETATM    2  C   UNK N   1      29.975  17.605   4.730  0.00  0.00     0.120 A 
HETATM    3  C   UNK N   1      31.155  17.079   5.259  0.00  0.00     0.099 A 
HETATM    4  C   UNK N   1      31.281  16.970   6.657  0.00  0.00     0.203 A 
HETATM    5  O   UNK N   1      32.296  16.516   7.158  0.00  0.00    -0.286 OA
HETATM    6  C   UNK N   1      30.228  17.401   7.476  0.00  0.00     0.060 A 
HETATM    7  C   UNK N   1      29.053  17.933   6.892  0.00  0.00     0.126 A 
HETATM    8  N   UNK N   1      28.044  18.346   7.715  0.00  0.00    -0.351 N 
ATOM      9  HN  UNK N   1      27.195  18.726   7.296  1.00  0.00     0.166 HD
HETATM   10  C   UNK N   1      28.125  18.269   9.070  0.00  0.00     0.090 A 
HETATM   11  C   UNK N   1      29.268  17.753   9.673  0.00  0.00     0.018 A 
HETATM   12  C   UNK N   1      30.321  17.317   8.873  0.00  0.00     0.021 A 
ENDROOT
BRANCH   1  13
HETATM   13  C   UNK N   1      27.768  18.561   4.832  0.00  0.00     0.042 A 
HETATM   14  C   UNK N   1      26.616  17.796   4.679  0.00  0.00     0.050 A 
HETATM   15  C   UNK N   1      25.484  18.286   4.049  0.00  0.00     0.020 A 
HETATM   16  C   UNK N   1      25.464  19.590   3.553  0.00  0.00     0.021 A 
HETATM   17  C   UNK N   1      26.610  20.387   3.685  0.00  0.00     0.004 A 
HETATM   18  C   UNK N   1      27.753  19.879   4.324  0.00  0.00     0.030 A 
BRANCH  15  19
HETATM   19  C   UNK N   1      24.359  17.411   4.022  0.00  0.00    -0.061 C 
HETATM   20  C   UNK N   1      23.279  16.908   4.173  0.00  0.00    -0.060 C 
BRANCH  20  21
HETATM   21  C   UNK N   1      21.891  16.604   4.298  0.00  0.00     0.036 A 
HETATM   22  C   UNK N   1      21.426  15.557   5.091  0.00  0.00     0.023 A 
HETATM   23  C   UNK N   1      20.052  15.310   5.157  0.00  0.00     0.021 A 
HETATM   24  C   UNK N   1      19.172  16.121   4.430  0.00  0.00     0.122 A 
HETATM   25  N   UNK N   1      19.649  17.144   3.670  0.00  0.00    -0.246 N 
HETATM   26  C   UNK N   1      20.980  17.394   3.595  0.00  0.00     0.142 A 
BRANCH  25  27
HETATM   27  O   UNK N   1      18.804  17.908   2.985  0.00  0.00    -0.284 OA
ATOM     28  HO  UNK N   1      18.910  18.851   2.991  1.00  0.00     0.245 HD
ENDBRANCH  25  27
ENDBRANCH  20  21
ENDBRANCH  15  19
ENDBRANCH   1  13
BRANCH   3  29
HETATM   29  C   UNK N   1      32.222  16.673   4.306  0.00  0.00     0.257 C 
HETATM   30  O   UNK N   1      32.662  17.499   3.515  0.00  0.00    -0.267 OA
HETATM   31  N   UNK N   1      32.718  15.409   4.307  0.00  0.00    -0.352 N 
HETATM   32  H   UNK N   1      32.345  14.757   4.944  0.00  0.00     0.163 HD
BRANCH  31  33
HETATM   33  C   UNK N   1      33.770  14.979   3.411  0.00  0.00     0.084 A 
HETATM   34  C   UNK N   1      34.277  13.623   3.858  0.00  0.00     0.027 A 
HETATM   35  C   UNK N   1      33.361  13.720   2.661  0.00  0.00     0.027 A 
ENDBRANCH  31  33
ENDBRANCH   3  29
TORSDOF 6
ENDMDL
