REMARK  14 active torsions:
REMARK  status: ('A' for Active; 'I' for Inactive)
REMARK    1  A    between atoms: C_2  and  C_26 
REMARK    2  A    between atoms: C_5  and  C_8 
REMARK    3  A    between atoms: C_12  and  O_15 
REMARK    4  A    between atoms: C_13  and  O_14 
REMARK    5  A    between atoms: O_15  and  C_16 
REMARK    6  A    between atoms: C_16  and  C_17 
REMARK    7  A    between atoms: C_17  and  O_18 
REMARK    8  A    between atoms: O_18  and  C_19 
REMARK    9  A    between atoms: C_19  and  C_20 
REMARK   10  A    between atoms: C_20  and  O_21 
REMARK   11  A    between atoms: O_21  and  C_22 
REMARK   12  A    between atoms: C_22  and  C_23 
REMARK   13  A    between atoms: C_23  and  O_24 
REMARK   14  A    between atoms: C_26  and  O_28 
ROOT
HETATM    1  C   UNK N   1      -1.209   2.565   0.081  0.00  0.00     0.033 A 
HETATM    2  C   UNK N   1      -1.350   3.948   0.277  0.00  0.00     0.017 A 
HETATM    3  C   UNK N   1      -0.230   4.766   0.415  0.00  0.00     0.004 A 
HETATM    4  C   UNK N   1       1.049   4.220   0.324  0.00  0.00     0.040 A 
HETATM    5  C   UNK N   1       1.225   2.850   0.098  0.00  0.00     0.102 A 
HETATM    6  C   UNK N   1       0.088   2.013   0.001  0.00  0.00     0.112 A 
ENDROOT
BRANCH   1   7
HETATM    7  C   UNK N   1      -2.430   1.736  -0.107  0.00  0.00     0.080 C 
HETATM    8  S   UNK N   1      -4.052   2.458  -0.298  0.00  0.00    -0.109 SA
HETATM    9  C   UNK N   1      -4.521   0.894  -1.113  0.00  0.00     0.122 C 
HETATM   10  C   UNK N   1      -3.598  -0.198  -0.575  0.00  0.00     0.121 C 
HETATM   11  C   UNK N   1      -3.324  -1.197  -1.684  0.00  0.00     0.051 C 
HETATM   12  N   UNK N   1      -2.372   0.462  -0.220  0.00  0.00    -0.365 N 
ATOM     13  HN  UNK N   1      -1.506  -0.055  -0.068  1.00  0.00     0.161 HD
BRANCH  10  14
HETATM   14  C   UNK N   1      -4.196  -0.905   0.618  0.00  0.00     0.169 C 
HETATM   15  O   UNK N   1      -3.572  -1.788   1.184  0.00  0.00    -0.648 OA
BRANCH  14  16
HETATM   16  O   UNK N   1      -5.429  -0.579   1.057  0.00  0.00    -0.775 OA
HETATM   17  H   UNK N   1      -5.662   0.276   1.362  0.00  0.00     0.167 HD
ENDBRANCH  14  16
ENDBRANCH  10  14
ENDBRANCH   1   7
BRANCH   6  18
HETATM   18  O   UNK N   1       0.244   0.687  -0.185  0.00  0.00    -0.357 OA
HETATM   19  H   UNK N   1      -0.500   0.132  -0.314  0.00  0.00     0.217 HD
ENDBRANCH   6  18
BRANCH   5  20
HETATM   20  O   UNK N   1       2.488   2.384  -0.042  0.00  0.00    -0.346 OA
BRANCH  20  21
HETATM   21  C   UNK N   1       2.809   1.261  -0.779  0.00  0.00     0.201 C 
BRANCH  21  22
HETATM   22  C   UNK N   1       3.310   0.130   0.113  0.00  0.00     0.194 C 
BRANCH  22  23
HETATM   23  O   UNK N   1       4.207   0.599   1.082  0.00  0.00    -0.387 OA
BRANCH  23  24
HETATM   24  C   UNK N   1       5.444   0.695   0.441  0.00  0.00     0.193 C 
BRANCH  24  25
HETATM   25  C   UNK N   1       5.750   2.159   0.172  0.00  0.00     0.193 C 
BRANCH  25  26
HETATM   26  O   UNK N   1       6.750   2.255  -0.796  0.00  0.00    -0.387 OA
BRANCH  26  27
HETATM   27  C   UNK N   1       7.856   2.803  -0.141  0.00  0.00     0.193 C 
BRANCH  27  28
HETATM   28  C   UNK N   1       8.746   1.689   0.380  0.00  0.00     0.193 C 
BRANCH  28  29
HETATM   29  O   UNK N   1      10.074   2.108   0.389  0.00  0.00    -0.394 OA
HETATM   30  C   UNK N   1      10.752   1.109  -0.308  0.00  0.00     0.201 C 
ENDBRANCH  28  29
ENDBRANCH  27  28
ENDBRANCH  26  27
ENDBRANCH  25  26
ENDBRANCH  24  25
ENDBRANCH  23  24
ENDBRANCH  22  23
ENDBRANCH  21  22
ENDBRANCH  20  21
ENDBRANCH   5  20
TORSDOF 14
