MODEL 1
REMARK VINA RESULT:      -1.3      0.000      0.000
REMARK  1 active torsions:
REMARK  status: ('A' for Active; 'I' for Inactive)
REMARK    1  A    between atoms: F_1  and  F_1 
ROOT
HETATM    1  F   UNK N   1      38.904  20.787  20.697  0.00  0.00     0.000 F 
ENDROOT
TORSDOF 1
ENDMDL
MODEL 2
REMARK VINA RESULT:      -1.0     21.887     21.887
REMARK  1 active torsions:
REMARK  status: ('A' for Active; 'I' for Inactive)
REMARK    1  A    between atoms: F_1  and  F_1 
ROOT
HETATM    1  F   UNK N   1      17.105  19.393  19.312  0.00  0.00     0.000 F 
ENDROOT
TORSDOF 1
ENDMDL
MODEL 3
REMARK VINA RESULT:      -1.0     20.289     20.289
REMARK  1 active torsions:
REMARK  status: ('A' for Active; 'I' for Inactive)
REMARK    1  A    between atoms: F_1  and  F_1 
ROOT
HETATM    1  F   UNK N   1      18.728  18.710  21.231  0.00  0.00     0.000 F 
ENDROOT
TORSDOF 1
ENDMDL
MODEL 4
REMARK VINA RESULT:      -0.9     18.652     18.652
REMARK  1 active torsions:
REMARK  status: ('A' for Active; 'I' for Inactive)
REMARK    1  A    between atoms: F_1  and  F_1 
ROOT
HETATM    1  F   UNK N   1      23.537  12.323  14.365  0.00  0.00     0.000 F 
ENDROOT
TORSDOF 1
ENDMDL
MODEL 5
REMARK VINA RESULT:      -0.9      8.929      8.929
REMARK  1 active torsions:
REMARK  status: ('A' for Active; 'I' for Inactive)
REMARK    1  A    between atoms: F_1  and  F_1 
ROOT
HETATM    1  F   UNK N   1      35.720  22.515  12.535  0.00  0.00     0.000 F 
ENDROOT
TORSDOF 1
ENDMDL
MODEL 6
REMARK VINA RESULT:      -0.8     17.695     17.695
REMARK  1 active torsions:
REMARK  status: ('A' for Active; 'I' for Inactive)
REMARK    1  A    between atoms: F_1  and  F_1 
ROOT
HETATM    1  F   UNK N   1      25.503  22.690   9.299  0.00  0.00     0.000 F 
ENDROOT
TORSDOF 1
ENDMDL
MODEL 7
REMARK VINA RESULT:      -0.8     23.414     23.414
REMARK  1 active torsions:
REMARK  status: ('A' for Active; 'I' for Inactive)
REMARK    1  A    between atoms: F_1  and  F_1 
ROOT
HETATM    1  F   UNK N   1      33.435  21.023  -2.068  0.00  0.00     0.000 F 
ENDROOT
TORSDOF 1
ENDMDL
MODEL 8
REMARK VINA RESULT:      -0.8     31.033     31.033
REMARK  1 active torsions:
REMARK  status: ('A' for Active; 'I' for Inactive)
REMARK    1  A    between atoms: F_1  and  F_1 
ROOT
HETATM    1  F   UNK N   1      24.058  27.346  -5.753  0.00  0.00     0.000 F 
ENDROOT
TORSDOF 1
ENDMDL
MODEL 9
REMARK VINA RESULT:      -0.8     22.795     22.795
REMARK  1 active torsions:
REMARK  status: ('A' for Active; 'I' for Inactive)
REMARK    1  A    between atoms: F_1  and  F_1 
ROOT
HETATM    1  F   UNK N   1      17.446  18.872  13.247  0.00  0.00     0.000 F 
ENDROOT
TORSDOF 1
ENDMDL
