MODEL 1
REMARK VINA RESULT:      -8.3      0.000      0.000
REMARK  6 active torsions:
REMARK  status: ('A' for Active; 'I' for Inactive)
REMARK       I    between atoms: C_2  and  N_4 
REMARK    1  A    between atoms: N_4  and  C_5 
REMARK    2  A    between atoms: C_5  and  C_6 
REMARK       I    between atoms: C_6  and  N_8 
REMARK    3  A    between atoms: C_17  and  N_19 
REMARK       I    between atoms: N_19  and  C_20 
REMARK    4  A    between atoms: C_24  and  C_33 
REMARK    5  A    between atoms: C_25  and  N_28 
REMARK    6  A    between atoms: N_28  and  C_29 
ROOT
HETATM    1  N   UNK N   1      33.566  16.333   8.021  0.00  0.00    -0.192 N 
HETATM    2  C   UNK N   1      32.269  16.905   7.935  0.00  0.00     0.684 A 
HETATM    3  N   UNK N   1      31.611  17.310   9.050  0.00  0.00    -0.201 N 
ATOM      4  HN  UNK N   1      32.096  17.301   9.947  1.00  0.00     0.183 HD
HETATM    5  C   UNK N   1      30.327  17.728   8.994  0.00  0.00     0.126 A 
HETATM    6  C   UNK N   1      29.653  17.749   7.777  0.00  0.00     0.107 A 
HETATM    7  C   UNK N   1      30.377  17.391   6.612  0.00  0.00     0.133 A 
HETATM    8  N   UNK N   1      31.668  16.985   6.737  0.00  0.00    -0.176 N 
ATOM      9  HN  UNK N   1      32.193  16.734   5.899  1.00  0.00     0.186 HD
HETATM   10  H   UNK N   1      34.094  16.211   7.199  0.00  0.00     0.184 HD
ENDROOT
BRANCH   1  11
HETATM   11  C   UNK N   1      34.112  15.936   9.261  0.00  0.00     0.049 A 
HETATM   12  C   UNK N   1      34.956  16.817   9.986  0.00  0.00     0.030 A 
HETATM   13  C   UNK N   1      35.723  16.363  11.053  0.00  0.00     0.012 A 
HETATM   14  C   UNK N   1      35.601  15.031  11.387  0.00  0.00    -0.027 A 
HETATM   15  C   UNK N   1      34.699  14.192  10.770  0.00  0.00    -0.025 A 
HETATM   16  C   UNK N   1      36.430  14.217  12.304  0.00  0.00     0.121 C 
HETATM   17  C   UNK N   1      34.878  12.831  11.345  0.00  0.00     0.122 C 
HETATM   18  C   UNK N   1      33.949  14.611   9.681  0.00  0.00     0.039 A 
HETATM   19  C   UNK N   1      36.208  12.371  10.711  0.00  0.00     0.033 C 
HETATM   20  N   UNK N   1      35.431  13.256  12.594  0.00  0.00    -0.333 N 
HETATM   21  C   UNK N   1      37.272  13.335  11.357  0.00  0.00     0.033 C 
HETATM   22  C   UNK N   1      35.081  12.847  13.839  0.00  0.00     0.238 C 
HETATM   23  O   UNK N   1      34.160  12.062  13.995  0.00  0.00    -0.272 OA
BRANCH  22  24
HETATM   24  C   UNK N   1      35.864  13.324  15.026  0.00  0.00     0.225 C 
BRANCH  24  25
HETATM   25  N   UNK N   1      35.771  12.321  16.063  0.00  0.00    -0.353 N 
HETATM   26  C   UNK N   1      35.323  12.581  17.315  0.00  0.00     0.213 C 
HETATM   27  C   UNK N   1      35.306  11.489  18.328  0.00  0.00     0.117 C 
HETATM   28  O   UNK N   1      34.956  13.702  17.633  0.00  0.00    -0.274 OA
HETATM   29  H   UNK N   1      36.048  11.401  15.848  0.00  0.00     0.162 HD
ENDBRANCH  24  25
ENDBRANCH  22  24
ENDBRANCH   1  11
BRANCH   7  30
HETATM   30  N   UNK N   1      29.787  17.395   5.320  0.00  0.00    -0.370 N 
HETATM   31  H   UNK N   1      29.483  18.254   4.946  0.00  0.00     0.161 HD
BRANCH  30  32
HETATM   32  C   UNK N   1      29.610  16.190   4.521  0.00  0.00     0.083 A 
HETATM   33  C   UNK N   1      28.285  16.259   3.788  0.00  0.00     0.025 A 
HETATM   34  C   UNK N   1      27.760  15.079   4.580  0.00  0.00     0.004 A 
HETATM   35  C   UNK N   1      29.072  15.000   5.316  0.00  0.00     0.025 A 
ENDBRANCH  30  32
ENDBRANCH   7  30
BRANCH   6  36
HETATM   36  C   UNK N   1      28.195  18.128   7.815  0.00  0.00     0.422 C 
HETATM   37  F   UNK N   1      27.451  17.042   7.383  0.00  0.00    -0.166 F 
HETATM   38  F   UNK N   1      27.903  19.207   7.007  0.00  0.00    -0.166 F 
HETATM   39  F   UNK N   1      27.827  18.425   9.115  0.00  0.00    -0.166 F 
ENDBRANCH   6  36
TORSDOF 6
ENDMDL
MODEL 2
REMARK VINA RESULT:      -7.9      6.864     12.865
REMARK  6 active torsions:
REMARK  status: ('A' for Active; 'I' for Inactive)
REMARK       I    between atoms: C_2  and  N_4 
REMARK    1  A    between atoms: N_4  and  C_5 
REMARK    2  A    between atoms: C_5  and  C_6 
REMARK       I    between atoms: C_6  and  N_8 
REMARK    3  A    between atoms: C_17  and  N_19 
REMARK       I    between atoms: N_19  and  C_20 
REMARK    4  A    between atoms: C_24  and  C_33 
REMARK    5  A    between atoms: C_25  and  N_28 
REMARK    6  A    between atoms: N_28  and  C_29 
ROOT
HETATM    1  N   UNK N   1      27.545  17.204   3.964  0.00  0.00    -0.192 N 
HETATM    2  C   UNK N   1      28.208  17.159   5.219  0.00  0.00     0.684 A 
HETATM    3  N   UNK N   1      27.509  17.238   6.379  0.00  0.00    -0.201 N 
ATOM      4  HN  UNK N   1      26.490  17.223   6.350  1.00  0.00     0.183 HD
HETATM    5  C   UNK N   1      28.138  17.334   7.571  0.00  0.00     0.126 A 
HETATM    6  C   UNK N   1      29.528  17.354   7.627  0.00  0.00     0.107 A 
HETATM    7  C   UNK N   1      30.243  17.198   6.413  0.00  0.00     0.133 A 
HETATM    8  N   UNK N   1      29.549  17.101   5.248  0.00  0.00    -0.176 N 
ATOM      9  HN  UNK N   1      30.061  16.981   4.373  1.00  0.00     0.186 HD
HETATM   10  H   UNK N   1      28.042  16.970   3.148  0.00  0.00     0.184 HD
ENDROOT
BRANCH   1  11
HETATM   11  C   UNK N   1      26.187  17.579   3.865  0.00  0.00     0.049 A 
HETATM   12  C   UNK N   1      25.818  18.949   3.902  0.00  0.00     0.030 A 
HETATM   13  C   UNK N   1      24.495  19.333   4.087  0.00  0.00     0.012 A 
HETATM   14  C   UNK N   1      23.562  18.324   4.202  0.00  0.00    -0.027 A 
HETATM   15  C   UNK N   1      23.888  16.994   4.049  0.00  0.00    -0.025 A 
HETATM   16  C   UNK N   1      22.145  18.404   4.619  0.00  0.00     0.121 C 
HETATM   17  C   UNK N   1      22.654  16.194   4.286  0.00  0.00     0.122 C 
HETATM   18  C   UNK N   1      25.204  16.583   3.900  0.00  0.00     0.039 A 
HETATM   19  C   UNK N   1      22.479  16.293   5.816  0.00  0.00     0.033 C 
HETATM   20  N   UNK N   1      21.726  17.228   3.948  0.00  0.00    -0.333 N 
HETATM   21  C   UNK N   1      22.146  17.815   6.047  0.00  0.00     0.033 C 
HETATM   22  C   UNK N   1      20.645  17.140   3.133  0.00  0.00     0.238 C 
HETATM   23  O   UNK N   1      20.400  16.101   2.543  0.00  0.00    -0.272 OA
BRANCH  22  24
HETATM   24  C   UNK N   1      19.719  18.312   2.996  0.00  0.00     0.225 C 
BRANCH  24  25
HETATM   25  N   UNK N   1      20.100  19.055   1.816  0.00  0.00    -0.353 N 
HETATM   26  C   UNK N   1      20.613  20.309   1.856  0.00  0.00     0.213 C 
HETATM   27  C   UNK N   1      20.934  21.009   0.582  0.00  0.00     0.117 C 
HETATM   28  O   UNK N   1      20.793  20.881   2.921  0.00  0.00    -0.274 OA
HETATM   29  H   UNK N   1      19.981  18.628   0.937  0.00  0.00     0.162 HD
ENDBRANCH  24  25
ENDBRANCH  22  24
ENDBRANCH   1  11
BRANCH   7  30
HETATM   30  N   UNK N   1      31.662  17.188   6.362  0.00  0.00    -0.370 N 
HETATM   31  H   UNK N   1      32.147  18.000   6.638  0.00  0.00     0.161 HD
BRANCH  30  32
HETATM   32  C   UNK N   1      32.435  16.034   5.920  0.00  0.00     0.083 A 
HETATM   33  C   UNK N   1      31.998  14.806   6.693  0.00  0.00     0.025 A 
HETATM   34  C   UNK N   1      33.361  14.705   7.347  0.00  0.00     0.004 A 
HETATM   35  C   UNK N   1      33.808  15.925   6.584  0.00  0.00     0.025 A 
ENDBRANCH  30  32
ENDBRANCH   7  30
BRANCH   6  36
HETATM   36  C   UNK N   1      30.151  17.567   8.983  0.00  0.00     0.422 C 
HETATM   37  F   UNK N   1      29.133  17.718   9.910  0.00  0.00    -0.166 F 
HETATM   38  F   UNK N   1      30.956  18.686   9.031  0.00  0.00    -0.166 F 
HETATM   39  F   UNK N   1      30.900  16.457   9.328  0.00  0.00    -0.166 F 
ENDBRANCH   6  36
TORSDOF 6
ENDMDL
MODEL 3
REMARK VINA RESULT:      -7.7      3.592      5.995
REMARK  6 active torsions:
REMARK  status: ('A' for Active; 'I' for Inactive)
REMARK       I    between atoms: C_2  and  N_4 
REMARK    1  A    between atoms: N_4  and  C_5 
REMARK    2  A    between atoms: C_5  and  C_6 
REMARK       I    between atoms: C_6  and  N_8 
REMARK    3  A    between atoms: C_17  and  N_19 
REMARK       I    between atoms: N_19  and  C_20 
REMARK    4  A    between atoms: C_24  and  C_33 
REMARK    5  A    between atoms: C_25  and  N_28 
REMARK    6  A    between atoms: N_28  and  C_29 
ROOT
HETATM    1  N   UNK N   1      28.038  18.038   6.357  0.00  0.00    -0.192 N 
HETATM    2  C   UNK N   1      26.903  17.186   6.322  0.00  0.00     0.684 A 
HETATM    3  N   UNK N   1      26.760  16.180   7.221  0.00  0.00    -0.201 N 
ATOM      4  HN  UNK N   1      27.422  16.101   7.993  1.00  0.00     0.183 HD
HETATM    5  C   UNK N   1      25.757  15.281   7.113  0.00  0.00     0.126 A 
HETATM    6  C   UNK N   1      24.845  15.375   6.067  0.00  0.00     0.107 A 
HETATM    7  C   UNK N   1      24.966  16.473   5.179  0.00  0.00     0.133 A 
HETATM    8  N   UNK N   1      25.995  17.345   5.346  0.00  0.00    -0.176 N 
ATOM      9  HN  UNK N   1      26.080  18.141   4.713  1.00  0.00     0.186 HD
HETATM   10  H   UNK N   1      28.039  18.862   5.818  0.00  0.00     0.184 HD
ENDROOT
BRANCH   1  11
HETATM   11  C   UNK N   1      29.166  17.727   7.148  0.00  0.00     0.049 A 
HETATM   12  C   UNK N   1      29.413  18.437   8.352  0.00  0.00     0.030 A 
HETATM   13  C   UNK N   1      30.641  18.352   8.998  0.00  0.00     0.012 A 
HETATM   14  C   UNK N   1      31.589  17.526   8.432  0.00  0.00    -0.027 A 
HETATM   15  C   UNK N   1      31.323  16.740   7.331  0.00  0.00    -0.025 A 
HETATM   16  C   UNK N   1      33.029  17.400   8.748  0.00  0.00     0.121 C 
HETATM   17  C   UNK N   1      32.579  16.027   6.970  0.00  0.00     0.122 C 
HETATM   18  C   UNK N   1      30.120  16.834   6.648  0.00  0.00     0.039 A 
HETATM   19  C   UNK N   1      33.436  17.149   6.346  0.00  0.00     0.033 C 
HETATM   20  N   UNK N   1      33.170  16.073   8.272  0.00  0.00    -0.333 N 
HETATM   21  C   UNK N   1      33.730  18.102   7.564  0.00  0.00     0.033 C 
HETATM   22  C   UNK N   1      33.754  15.058   8.956  0.00  0.00     0.238 C 
HETATM   23  O   UNK N   1      33.770  13.930   8.492  0.00  0.00    -0.272 OA
BRANCH  22  24
HETATM   24  C   UNK N   1      34.427  15.335  10.267  0.00  0.00     0.225 C 
BRANCH  24  25
HETATM   25  N   UNK N   1      34.337  14.145  11.083  0.00  0.00    -0.353 N 
HETATM   26  C   UNK N   1      35.126  13.918  12.161  0.00  0.00     0.213 C 
HETATM   27  C   UNK N   1      34.988  12.639  12.913  0.00  0.00     0.117 C 
HETATM   28  O   UNK N   1      35.965  14.735  12.511  0.00  0.00    -0.274 OA
HETATM   29  H   UNK N   1      33.668  13.464  10.843  0.00  0.00     0.162 HD
ENDBRANCH  24  25
ENDBRANCH  22  24
ENDBRANCH   1  11
BRANCH   7  30
HETATM   30  N   UNK N   1      24.078  16.671   4.089  0.00  0.00    -0.370 N 
HETATM   31  H   UNK N   1      24.107  16.034   3.338  0.00  0.00     0.161 HD
BRANCH  30  32
HETATM   32  C   UNK N   1      23.126  17.773   4.027  0.00  0.00     0.083 A 
HETATM   33  C   UNK N   1      22.551  18.024   5.406  0.00  0.00     0.025 A 
HETATM   34  C   UNK N   1      21.174  17.607   4.933  0.00  0.00     0.004 A 
HETATM   35  C   UNK N   1      21.733  17.354   3.557  0.00  0.00     0.025 A 
ENDBRANCH  30  32
ENDBRANCH   7  30
BRANCH   6  36
HETATM   36  C   UNK N   1      23.820  14.276   5.958  0.00  0.00     0.422 C 
HETATM   37  F   UNK N   1      24.087  13.333   6.936  0.00  0.00    -0.166 F 
HETATM   38  F   UNK N   1      23.837  13.649   4.730  0.00  0.00    -0.166 F 
HETATM   39  F   UNK N   1      22.557  14.797   6.180  0.00  0.00    -0.166 F 
ENDBRANCH   6  36
TORSDOF 6
ENDMDL
MODEL 4
REMARK VINA RESULT:      -7.6      3.387      5.103
REMARK  6 active torsions:
REMARK  status: ('A' for Active; 'I' for Inactive)
REMARK       I    between atoms: C_2  and  N_4 
REMARK    1  A    between atoms: N_4  and  C_5 
REMARK    2  A    between atoms: C_5  and  C_6 
REMARK       I    between atoms: C_6  and  N_8 
REMARK    3  A    between atoms: C_17  and  N_19 
REMARK       I    between atoms: N_19  and  C_20 
REMARK    4  A    between atoms: C_24  and  C_33 
REMARK    5  A    between atoms: C_25  and  N_28 
REMARK    6  A    between atoms: N_28  and  C_29 
ROOT
HETATM    1  N   UNK N   1      29.147  18.007   8.274  0.00  0.00    -0.192 N 
HETATM    2  C   UNK N   1      28.487  17.462   7.141  0.00  0.00     0.684 A 
HETATM    3  N   UNK N   1      29.032  16.434   6.445  0.00  0.00    -0.201 N 
ATOM      4  HN  UNK N   1      29.872  15.980   6.800  1.00  0.00     0.183 HD
HETATM    5  C   UNK N   1      28.482  16.000   5.289  0.00  0.00     0.126 A 
HETATM    6  C   UNK N   1      27.334  16.609   4.790  0.00  0.00     0.107 A 
HETATM    7  C   UNK N   1      26.737  17.633   5.567  0.00  0.00     0.133 A 
HETATM    8  N   UNK N   1      27.338  18.019   6.723  0.00  0.00    -0.176 N 
ATOM      9  HN  UNK N   1      26.906  18.751   7.288  1.00  0.00     0.186 HD
HETATM   10  H   UNK N   1      28.660  18.625   8.865  0.00  0.00     0.184 HD
ENDROOT
BRANCH   1  11
HETATM   11  C   UNK N   1      30.489  17.680   8.568  0.00  0.00     0.049 A 
HETATM   12  C   UNK N   1      31.545  18.510   8.111  0.00  0.00     0.030 A 
HETATM   13  C   UNK N   1      32.865  18.077   8.140  0.00  0.00     0.012 A 
HETATM   14  C   UNK N   1      33.099  16.822   8.660  0.00  0.00    -0.027 A 
HETATM   15  C   UNK N   1      32.100  16.053   9.216  0.00  0.00    -0.025 A 
HETATM   16  C   UNK N   1      34.335  16.009   8.622  0.00  0.00     0.121 C 
HETATM   17  C   UNK N   1      32.701  14.753   9.624  0.00  0.00     0.122 C 
HETATM   18  C   UNK N   1      30.771  16.446   9.167  0.00  0.00     0.039 A 
HETATM   19  C   UNK N   1      32.917  14.043   8.271  0.00  0.00     0.033 C 
HETATM   20  N   UNK N   1      34.040  15.235   9.772  0.00  0.00    -0.333 N 
HETATM   21  C   UNK N   1      34.027  14.916   7.575  0.00  0.00     0.033 C 
HETATM   22  C   UNK N   1      34.890  15.022  10.807  0.00  0.00     0.238 C 
HETATM   23  O   UNK N   1      34.523  14.397  11.788  0.00  0.00    -0.272 OA
BRANCH  22  24
HETATM   24  C   UNK N   1      36.303  15.516  10.722  0.00  0.00     0.225 C 
BRANCH  24  25
HETATM   25  N   UNK N   1      37.189  14.386  10.890  0.00  0.00    -0.353 N 
HETATM   26  C   UNK N   1      37.697  13.674   9.854  0.00  0.00     0.213 C 
HETATM   27  C   UNK N   1      38.566  12.497  10.131  0.00  0.00     0.117 C 
HETATM   28  O   UNK N   1      37.431  13.969   8.698  0.00  0.00    -0.274 OA
HETATM   29  H   UNK N   1      37.437  14.119  11.805  0.00  0.00     0.162 HD
ENDBRANCH  24  25
ENDBRANCH  22  24
ENDBRANCH   1  11
BRANCH   7  30
HETATM   30  N   UNK N   1      25.556  18.306   5.157  0.00  0.00    -0.370 N 
HETATM   31  H   UNK N   1      24.724  17.785   5.076  0.00  0.00     0.161 HD
BRANCH  30  32
HETATM   32  C   UNK N   1      25.515  19.731   4.851  0.00  0.00     0.083 A 
HETATM   33  C   UNK N   1      24.606  19.967   3.662  0.00  0.00     0.025 A 
HETATM   34  C   UNK N   1      25.780  20.441   2.830  0.00  0.00     0.004 A 
HETATM   35  C   UNK N   1      26.694  20.210   4.005  0.00  0.00     0.025 A 
ENDBRANCH  30  32
ENDBRANCH   7  30
BRANCH   6  36
HETATM   36  C   UNK N   1      26.843  16.136   3.447  0.00  0.00     0.422 C 
HETATM   37  F   UNK N   1      27.924  15.635   2.740  0.00  0.00    -0.166 F 
HETATM   38  F   UNK N   1      26.264  17.144   2.704  0.00  0.00    -0.166 F 
HETATM   39  F   UNK N   1      25.922  15.119   3.622  0.00  0.00    -0.166 F 
ENDBRANCH   6  36
TORSDOF 6
ENDMDL
MODEL 5
REMARK VINA RESULT:      -7.5      1.780      2.076
REMARK  6 active torsions:
REMARK  status: ('A' for Active; 'I' for Inactive)
REMARK       I    between atoms: C_2  and  N_4 
REMARK    1  A    between atoms: N_4  and  C_5 
REMARK    2  A    between atoms: C_5  and  C_6 
REMARK       I    between atoms: C_6  and  N_8 
REMARK    3  A    between atoms: C_17  and  N_19 
REMARK       I    between atoms: N_19  and  C_20 
REMARK    4  A    between atoms: C_24  and  C_33 
REMARK    5  A    between atoms: C_25  and  N_28 
REMARK    6  A    between atoms: N_28  and  C_29 
ROOT
HETATM    1  N   UNK N   1      34.868  16.047   8.807  0.00  0.00    -0.192 N 
HETATM    2  C   UNK N   1      33.621  16.492   8.293  0.00  0.00     0.684 A 
HETATM    3  N   UNK N   1      32.514  16.515   9.075  0.00  0.00    -0.201 N 
ATOM      4  HN  UNK N   1      32.600  16.311  10.070  1.00  0.00     0.183 HD
HETATM    5  C   UNK N   1      31.298  16.805   8.561  0.00  0.00     0.126 A 
HETATM    6  C   UNK N   1      31.163  17.088   7.205  0.00  0.00     0.107 A 
HETATM    7  C   UNK N   1      32.341  17.130   6.417  0.00  0.00     0.133 A 
HETATM    8  N   UNK N   1      33.534  16.833   6.997  0.00  0.00    -0.176 N 
ATOM      9  HN  UNK N   1      34.383  16.870   6.433  1.00  0.00     0.186 HD
HETATM   10  H   UNK N   1      35.688  16.203   8.285  0.00  0.00     0.184 HD
ENDROOT
BRANCH   1  11
HETATM   11  C   UNK N   1      34.954  15.385  10.051  0.00  0.00     0.049 A 
HETATM   12  C   UNK N   1      35.476  16.059  11.186  0.00  0.00     0.030 A 
HETATM   13  C   UNK N   1      35.830  15.364  12.337  0.00  0.00     0.012 A 
HETATM   14  C   UNK N   1      35.624  14.001  12.331  0.00  0.00    -0.027 A 
HETATM   15  C   UNK N   1      35.009  13.350  11.283  0.00  0.00    -0.025 A 
HETATM   16  C   UNK N   1      36.095  12.979  13.292  0.00  0.00     0.121 C 
HETATM   17  C   UNK N   1      35.002  11.894  11.596  0.00  0.00     0.122 C 
HETATM   18  C   UNK N   1      34.680  14.014  10.111  0.00  0.00     0.039 A 
HETATM   19  C   UNK N   1      36.477  11.496  11.381  0.00  0.00     0.033 C 
HETATM   20  N   UNK N   1      35.075  12.035  13.017  0.00  0.00    -0.333 N 
HETATM   21  C   UNK N   1      37.231  12.256  12.536  0.00  0.00     0.033 C 
HETATM   22  C   UNK N   1      34.321  11.409  13.954  0.00  0.00     0.238 C 
HETATM   23  O   UNK N   1      33.417  10.660  13.620  0.00  0.00    -0.272 OA
BRANCH  22  24
HETATM   24  C   UNK N   1      34.631  11.601  15.409  0.00  0.00     0.225 C 
BRANCH  24  25
HETATM   25  N   UNK N   1      34.532  10.317  16.066  0.00  0.00    -0.353 N 
HETATM   26  C   UNK N   1      35.458   9.852  16.940  0.00  0.00     0.213 C 
HETATM   27  C   UNK N   1      35.290   8.496  17.533  0.00  0.00     0.117 C 
HETATM   28  O   UNK N   1      36.441  10.519  17.230  0.00  0.00    -0.274 OA
HETATM   29  H   UNK N   1      33.751   9.750  15.869  0.00  0.00     0.162 HD
ENDBRANCH  24  25
ENDBRANCH  22  24
ENDBRANCH   1  11
BRANCH   7  30
HETATM   30  N   UNK N   1      32.315  17.425   5.028  0.00  0.00    -0.370 N 
HETATM   31  H   UNK N   1      32.219  18.366   4.750  0.00  0.00     0.161 HD
BRANCH  30  32
HETATM   32  C   UNK N   1      32.424  16.404   3.994  0.00  0.00     0.083 A 
HETATM   33  C   UNK N   1      31.196  16.449   3.108  0.00  0.00     0.025 A 
HETATM   34  C   UNK N   1      30.782  15.068   3.574  0.00  0.00     0.004 A 
HETATM   35  C   UNK N   1      32.000  15.012   4.459  0.00  0.00     0.025 A 
ENDBRANCH  30  32
ENDBRANCH   7  30
BRANCH   6  36
HETATM   36  C   UNK N   1      29.763  17.299   6.691  0.00  0.00     0.422 C 
HETATM   37  F   UNK N   1      29.246  16.069   6.320  0.00  0.00    -0.166 F 
HETATM   38  F   UNK N   1      29.716  18.141   5.599  0.00  0.00    -0.166 F 
HETATM   39  F   UNK N   1      28.973  17.823   7.699  0.00  0.00    -0.166 F 
ENDBRANCH   6  36
TORSDOF 6
ENDMDL
MODEL 6
REMARK VINA RESULT:      -7.5      5.118     10.620
REMARK  6 active torsions:
REMARK  status: ('A' for Active; 'I' for Inactive)
REMARK       I    between atoms: C_2  and  N_4 
REMARK    1  A    between atoms: N_4  and  C_5 
REMARK    2  A    between atoms: C_5  and  C_6 
REMARK       I    between atoms: C_6  and  N_8 
REMARK    3  A    between atoms: C_17  and  N_19 
REMARK       I    between atoms: N_19  and  C_20 
REMARK    4  A    between atoms: C_24  and  C_33 
REMARK    5  A    between atoms: C_25  and  N_28 
REMARK    6  A    between atoms: N_28  and  C_29 
ROOT
HETATM    1  N   UNK N   1      35.186  15.434  12.300  0.00  0.00    -0.192 N 
HETATM    2  C   UNK N   1      35.942  14.293  12.678  0.00  0.00     0.684 A 
HETATM    3  N   UNK N   1      36.525  13.503  11.742  0.00  0.00    -0.201 N 
ATOM      4  HN  UNK N   1      36.508  13.791  10.764  1.00  0.00     0.183 HD
HETATM    5  C   UNK N   1      37.129  12.343  12.082  0.00  0.00     0.126 A 
HETATM    6  C   UNK N   1      37.162  11.937  13.413  0.00  0.00     0.107 A 
HETATM    7  C   UNK N   1      36.612  12.809  14.385  0.00  0.00     0.133 A 
HETATM    8  N   UNK N   1      36.024  13.964  13.978  0.00  0.00    -0.176 N 
ATOM      9  HN  UNK N   1      35.634  14.597  14.676  1.00  0.00     0.186 HD
HETATM   10  H   UNK N   1      34.924  16.088  12.988  0.00  0.00     0.184 HD
ENDROOT
BRANCH   1  11
HETATM   11  C   UNK N   1      34.804  15.650  10.958  0.00  0.00     0.049 A 
HETATM   12  C   UNK N   1      35.474  16.621  10.169  0.00  0.00     0.030 A 
HETATM   13  C   UNK N   1      34.949  17.049   8.956  0.00  0.00     0.012 A 
HETATM   14  C   UNK N   1      33.769  16.466   8.545  0.00  0.00    -0.027 A 
HETATM   15  C   UNK N   1      33.170  15.438   9.241  0.00  0.00    -0.025 A 
HETATM   16  C   UNK N   1      32.867  16.858   7.439  0.00  0.00     0.121 C 
HETATM   17  C   UNK N   1      31.902  15.095   8.540  0.00  0.00     0.122 C 
HETATM   18  C   UNK N   1      33.653  15.018  10.471  0.00  0.00     0.039 A 
HETATM   19  C   UNK N   1      30.987  16.284   8.900  0.00  0.00     0.033 C 
HETATM   20  N   UNK N   1      32.296  15.575   7.251  0.00  0.00    -0.333 N 
HETATM   21  C   UNK N   1      31.659  17.499   8.158  0.00  0.00     0.033 C 
HETATM   22  C   UNK N   1      32.173  14.945   6.057  0.00  0.00     0.238 C 
HETATM   23  O   UNK N   1      31.728  13.811   6.000  0.00  0.00    -0.272 OA
BRANCH  22  24
HETATM   24  C   UNK N   1      32.538  15.667   4.794  0.00  0.00     0.225 C 
BRANCH  24  25
HETATM   25  N   UNK N   1      31.398  15.634   3.906  0.00  0.00    -0.353 N 
HETATM   26  C   UNK N   1      30.466  16.617   3.851  0.00  0.00     0.213 C 
HETATM   27  C   UNK N   1      29.301  16.470   2.934  0.00  0.00     0.117 C 
HETATM   28  O   UNK N   1      30.554  17.609   4.559  0.00  0.00    -0.274 OA
HETATM   29  H   UNK N   1      31.292  14.857   3.310  0.00  0.00     0.162 HD
ENDBRANCH  24  25
ENDBRANCH  22  24
ENDBRANCH   1  11
BRANCH   7  30
HETATM   30  N   UNK N   1      36.610  12.498  15.771  0.00  0.00    -0.370 N 
HETATM   31  H   UNK N   1      37.451  12.596  16.275  0.00  0.00     0.161 HD
BRANCH  30  32
HETATM   32  C   UNK N   1      35.424  12.039  16.484  0.00  0.00     0.083 A 
HETATM   33  C   UNK N   1      35.027  13.070  17.521  0.00  0.00     0.025 A 
HETATM   34  C   UNK N   1      35.333  12.095  18.639  0.00  0.00     0.004 A 
HETATM   35  C   UNK N   1      35.731  11.061  17.618  0.00  0.00     0.025 A 
ENDBRANCH  30  32
ENDBRANCH   7  30
BRANCH   6  36
HETATM   36  C   UNK N   1      37.762  10.584  13.696  0.00  0.00     0.422 C 
HETATM   37  F   UNK N   1      36.779   9.780  14.250  0.00  0.00    -0.166 F 
HETATM   38  F   UNK N   1      38.825  10.643  14.572  0.00  0.00    -0.166 F 
HETATM   39  F   UNK N   1      38.186  10.008  12.511  0.00  0.00    -0.166 F 
ENDBRANCH   6  36
TORSDOF 6
ENDMDL
MODEL 7
REMARK VINA RESULT:      -7.4      5.214     10.264
REMARK  6 active torsions:
REMARK  status: ('A' for Active; 'I' for Inactive)
REMARK       I    between atoms: C_2  and  N_4 
REMARK    1  A    between atoms: N_4  and  C_5 
REMARK    2  A    between atoms: C_5  and  C_6 
REMARK       I    between atoms: C_6  and  N_8 
REMARK    3  A    between atoms: C_17  and  N_19 
REMARK       I    between atoms: N_19  and  C_20 
REMARK    4  A    between atoms: C_24  and  C_33 
REMARK    5  A    between atoms: C_25  and  N_28 
REMARK    6  A    between atoms: N_28  and  C_29 
ROOT
HETATM    1  N   UNK N   1      34.612  15.686  11.206  0.00  0.00    -0.192 N 
HETATM    2  C   UNK N   1      35.436  14.611  11.634  0.00  0.00     0.684 A 
HETATM    3  N   UNK N   1      35.838  13.653  10.762  0.00  0.00    -0.201 N 
ATOM      4  HN  UNK N   1      35.635  13.763   9.769  1.00  0.00     0.183 HD
HETATM    5  C   UNK N   1      36.506  12.557  11.184  0.00  0.00     0.126 A 
HETATM    6  C   UNK N   1      36.793  12.392  12.536  0.00  0.00     0.107 A 
HETATM    7  C   UNK N   1      36.428  13.436  13.423  0.00  0.00     0.133 A 
HETATM    8  N   UNK N   1      35.764  14.515  12.933  0.00  0.00    -0.176 N 
ATOM      9  HN  UNK N   1      35.507  15.272  13.567  1.00  0.00     0.186 HD
HETATM   10  H   UNK N   1      34.478  16.457  11.803  0.00  0.00     0.184 HD
ENDROOT
BRANCH   1  11
HETATM   11  C   UNK N   1      33.981  15.669   9.943  0.00  0.00     0.049 A 
HETATM   12  C   UNK N   1      32.816  14.885   9.735  0.00  0.00     0.030 A 
HETATM   13  C   UNK N   1      32.341  14.629   8.454  0.00  0.00     0.012 A 
HETATM   14  C   UNK N   1      33.035  15.195   7.405  0.00  0.00    -0.027 A 
HETATM   15  C   UNK N   1      34.096  16.054   7.598  0.00  0.00    -0.025 A 
HETATM   16  C   UNK N   1      32.916  14.932   5.954  0.00  0.00     0.121 C 
HETATM   17  C   UNK N   1      34.627  16.426   6.257  0.00  0.00     0.122 C 
HETATM   18  C   UNK N   1      34.611  16.297   8.862  0.00  0.00     0.039 A 
HETATM   19  C   UNK N   1      35.353  15.137   5.815  0.00  0.00     0.033 C 
HETATM   20  N   UNK N   1      33.416  16.189   5.534  0.00  0.00    -0.333 N 
HETATM   21  C   UNK N   1      34.179  14.106   5.623  0.00  0.00     0.033 C 
HETATM   22  C   UNK N   1      32.824  16.997   4.619  0.00  0.00     0.238 C 
HETATM   23  O   UNK N   1      33.293  18.094   4.369  0.00  0.00    -0.272 OA
BRANCH  22  24
HETATM   24  C   UNK N   1      31.613  16.516   3.877  0.00  0.00     0.225 C 
BRANCH  24  25
HETATM   25  N   UNK N   1      30.592  17.536   3.967  0.00  0.00    -0.353 N 
HETATM   26  C   UNK N   1      29.644  17.559   4.936  0.00  0.00     0.213 C 
HETATM   27  C   UNK N   1      28.607  18.628   4.920  0.00  0.00     0.117 C 
HETATM   28  O   UNK N   1      29.613  16.703   5.808  0.00  0.00    -0.274 OA
HETATM   29  H   UNK N   1      30.584  18.251   3.291  0.00  0.00     0.162 HD
ENDBRANCH  24  25
ENDBRANCH  22  24
ENDBRANCH   1  11
BRANCH   7  30
HETATM   30  N   UNK N   1      36.691  13.375  14.817  0.00  0.00    -0.370 N 
HETATM   31  H   UNK N   1      37.607  13.558  15.130  0.00  0.00     0.161 HD
BRANCH  30  32
HETATM   32  C   UNK N   1      35.671  13.054  15.807  0.00  0.00     0.083 A 
HETATM   33  C   UNK N   1      36.052  11.778  16.530  0.00  0.00     0.025 A 
HETATM   34  C   UNK N   1      34.849  11.063  15.950  0.00  0.00     0.004 A 
HETATM   35  C   UNK N   1      34.459  12.325  15.225  0.00  0.00     0.025 A 
ENDBRANCH  30  32
ENDBRANCH   7  30
BRANCH   6  36
HETATM   36  C   UNK N   1      37.447  11.096  12.938  0.00  0.00     0.422 C 
HETATM   37  F   UNK N   1      36.457  10.216  13.343  0.00  0.00    -0.166 F 
HETATM   38  F   UNK N   1      38.346  11.250  13.974  0.00  0.00    -0.166 F 
HETATM   39  F   UNK N   1      38.104  10.550  11.850  0.00  0.00    -0.166 F 
ENDBRANCH   6  36
TORSDOF 6
ENDMDL
MODEL 8
REMARK VINA RESULT:      -7.4      4.851     10.349
REMARK  6 active torsions:
REMARK  status: ('A' for Active; 'I' for Inactive)
REMARK       I    between atoms: C_2  and  N_4 
REMARK    1  A    between atoms: N_4  and  C_5 
REMARK    2  A    between atoms: C_5  and  C_6 
REMARK       I    between atoms: C_6  and  N_8 
REMARK    3  A    between atoms: C_17  and  N_19 
REMARK       I    between atoms: N_19  and  C_20 
REMARK    4  A    between atoms: C_24  and  C_33 
REMARK    5  A    between atoms: C_25  and  N_28 
REMARK    6  A    between atoms: N_28  and  C_29 
ROOT
HETATM    1  N   UNK N   1      35.487  14.948  11.794  0.00  0.00    -0.192 N 
HETATM    2  C   UNK N   1      35.515  13.742  12.544  0.00  0.00     0.684 A 
HETATM    3  N   UNK N   1      35.191  12.557  11.970  0.00  0.00    -0.201 N 
ATOM      4  HN  UNK N   1      35.028  12.517  10.965  1.00  0.00     0.183 HD
HETATM    5  C   UNK N   1      35.081  11.429  12.706  0.00  0.00     0.126 A 
HETATM    6  C   UNK N   1      35.302  11.466  14.079  0.00  0.00     0.107 A 
HETATM    7  C   UNK N   1      35.710  12.698  14.651  0.00  0.00     0.133 A 
HETATM    8  N   UNK N   1      35.806  13.795  13.854  0.00  0.00    -0.176 N 
ATOM      9  HN  UNK N   1      36.107  14.680  14.262  1.00  0.00     0.186 HD
HETATM   10  H   UNK N   1      35.891  15.761  12.173  0.00  0.00     0.184 HD
ENDROOT
BRANCH   1  11
HETATM   11  C   UNK N   1      34.891  15.002  10.515  0.00  0.00     0.049 A 
HETATM   12  C   UNK N   1      35.503  14.351   9.412  0.00  0.00     0.030 A 
HETATM   13  C   UNK N   1      35.101  14.615   8.108  0.00  0.00     0.012 A 
HETATM   14  C   UNK N   1      34.066  15.511   7.942  0.00  0.00    -0.027 A 
HETATM   15  C   UNK N   1      33.385  16.060   9.007  0.00  0.00    -0.025 A 
HETATM   16  C   UNK N   1      33.574  16.153   6.703  0.00  0.00     0.121 C 
HETATM   17  C   UNK N   1      32.378  17.011   8.460  0.00  0.00     0.122 C 
HETATM   18  C   UNK N   1      33.789  15.841  10.316  0.00  0.00     0.039 A 
HETATM   19  C   UNK N   1      33.250  18.201   8.008  0.00  0.00     0.033 C 
HETATM   20  N   UNK N   1      32.260  16.396   7.174  0.00  0.00    -0.333 N 
HETATM   21  C   UNK N   1      34.084  17.607   6.812  0.00  0.00     0.033 C 
HETATM   22  C   UNK N   1      31.122  16.080   6.505  0.00  0.00     0.238 C 
HETATM   23  O   UNK N   1      30.032  16.266   7.020  0.00  0.00    -0.272 OA
BRANCH  22  24
HETATM   24  C   UNK N   1      31.206  15.545   5.107  0.00  0.00     0.225 C 
BRANCH  24  25
HETATM   25  N   UNK N   1      29.923  14.974   4.763  0.00  0.00    -0.353 N 
HETATM   26  C   UNK N   1      29.675  13.641   4.766  0.00  0.00     0.213 C 
HETATM   27  C   UNK N   1      28.332  13.146   4.354  0.00  0.00     0.117 C 
HETATM   28  O   UNK N   1      30.543  12.839   5.079  0.00  0.00    -0.274 OA
HETATM   29  H   UNK N   1      29.192  15.583   4.514  0.00  0.00     0.162 HD
ENDBRANCH  24  25
ENDBRANCH  22  24
ENDBRANCH   1  11
BRANCH   7  30
HETATM   30  N   UNK N   1      35.977  12.840  16.038  0.00  0.00    -0.370 N 
HETATM   31  H   UNK N   1      36.916  12.849  16.337  0.00  0.00     0.161 HD
BRANCH  30  32
HETATM   32  C   UNK N   1      34.929  12.972  17.042  0.00  0.00     0.083 A 
HETATM   33  C   UNK N   1      35.306  14.060  18.027  0.00  0.00     0.025 A 
HETATM   34  C   UNK N   1      35.408  13.043  19.146  0.00  0.00     0.004 A 
HETATM   35  C   UNK N   1      35.034  11.952  18.176  0.00  0.00     0.025 A 
ENDBRANCH  30  32
ENDBRANCH   7  30
BRANCH   6  36
HETATM   36  C   UNK N   1      35.060  10.190  14.841  0.00  0.00     0.422 C 
HETATM   37  F   UNK N   1      33.864  10.314  15.530  0.00  0.00    -0.166 F 
HETATM   38  F   UNK N   1      36.060   9.911  15.749  0.00  0.00    -0.166 F 
HETATM   39  F   UNK N   1      34.949   9.134  13.954  0.00  0.00    -0.166 F 
ENDBRANCH   6  36
TORSDOF 6
ENDMDL
MODEL 9
REMARK VINA RESULT:      -7.3      6.646     12.733
REMARK  6 active torsions:
REMARK  status: ('A' for Active; 'I' for Inactive)
REMARK       I    between atoms: C_2  and  N_4 
REMARK    1  A    between atoms: N_4  and  C_5 
REMARK    2  A    between atoms: C_5  and  C_6 
REMARK       I    between atoms: C_6  and  N_8 
REMARK    3  A    between atoms: C_17  and  N_19 
REMARK       I    between atoms: N_19  and  C_20 
REMARK    4  A    between atoms: C_24  and  C_33 
REMARK    5  A    between atoms: C_25  and  N_28 
REMARK    6  A    between atoms: N_28  and  C_29 
ROOT
HETATM    1  N   UNK N   1      27.790  16.732   6.809  0.00  0.00    -0.192 N 
HETATM    2  C   UNK N   1      29.089  16.926   6.268  0.00  0.00     0.684 A 
HETATM    3  N   UNK N   1      29.257  17.472   5.038  0.00  0.00    -0.201 N 
ATOM      4  HN  UNK N   1      28.447  17.844   4.542  1.00  0.00     0.183 HD
HETATM    5  C   UNK N   1      30.476  17.535   4.460  0.00  0.00     0.126 A 
HETATM    6  C   UNK N   1      31.591  17.034   5.125  0.00  0.00     0.107 A 
HETATM    7  C   UNK N   1      31.409  16.532   6.438  0.00  0.00     0.133 A 
HETATM    8  N   UNK N   1      30.156  16.502   6.964  0.00  0.00    -0.176 N 
ATOM      9  HN  UNK N   1      30.024  16.149   7.912  1.00  0.00     0.186 HD
HETATM   10  H   UNK N   1      27.694  16.502   7.761  0.00  0.00     0.184 HD
ENDROOT
BRANCH   1  11
HETATM   11  C   UNK N   1      26.635  16.861   6.007  0.00  0.00     0.049 A 
HETATM   12  C   UNK N   1      26.379  18.070   5.310  0.00  0.00     0.030 A 
HETATM   13  C   UNK N   1      25.133  18.328   4.749  0.00  0.00     0.012 A 
HETATM   14  C   UNK N   1      24.176  17.344   4.875  0.00  0.00    -0.027 A 
HETATM   15  C   UNK N   1      24.446  16.118   5.444  0.00  0.00    -0.025 A 
HETATM   16  C   UNK N   1      22.726  17.407   4.589  0.00  0.00     0.121 C 
HETATM   17  C   UNK N   1      23.179  15.335   5.457  0.00  0.00     0.122 C 
HETATM   18  C   UNK N   1      25.667  15.850   6.043  0.00  0.00     0.039 A 
HETATM   19  C   UNK N   1      22.371  16.023   6.578  0.00  0.00     0.033 C 
HETATM   20  N   UNK N   1      22.557  16.019   4.364  0.00  0.00    -0.333 N 
HETATM   21  C   UNK N   1      22.074  17.452   5.989  0.00  0.00     0.033 C 
HETATM   22  C   UNK N   1      21.927  15.474   3.294  0.00  0.00     0.238 C 
HETATM   23  O   UNK N   1      21.890  14.263   3.151  0.00  0.00    -0.272 OA
BRANCH  22  24
HETATM   24  C   UNK N   1      21.231  16.364   2.308  0.00  0.00     0.225 C 
BRANCH  24  25
HETATM   25  N   UNK N   1      20.184  15.599   1.668  0.00  0.00    -0.353 N 
HETATM   26  C   UNK N   1      19.657  15.920   0.461  0.00  0.00     0.213 C 
HETATM   27  C   UNK N   1      18.549  15.094  -0.096  0.00  0.00     0.117 C 
HETATM   28  O   UNK N   1      20.059  16.890  -0.164  0.00  0.00    -0.274 OA
HETATM   29  H   UNK N   1      19.836  14.804   2.133  0.00  0.00     0.162 HD
ENDBRANCH  24  25
ENDBRANCH  22  24
ENDBRANCH   1  11
BRANCH   7  30
HETATM   30  N   UNK N   1      32.483  16.014   7.209  0.00  0.00    -0.370 N 
HETATM   31  H   UNK N   1      32.891  15.161   6.931  0.00  0.00     0.161 HD
BRANCH  30  32
HETATM   32  C   UNK N   1      33.010  16.682   8.392  0.00  0.00     0.083 A 
HETATM   33  C   UNK N   1      32.988  18.182   8.178  0.00  0.00     0.025 A 
HETATM   34  C   UNK N   1      34.501  18.233   8.221  0.00  0.00     0.004 A 
HETATM   35  C   UNK N   1      34.537  16.742   8.434  0.00  0.00     0.025 A 
ENDBRANCH  30  32
ENDBRANCH   7  30
BRANCH   6  36
HETATM   36  C   UNK N   1      32.895  17.048   4.371  0.00  0.00     0.422 C 
HETATM   37  F   UNK N   1      32.649  17.497   3.084  0.00  0.00    -0.166 F 
HETATM   38  F   UNK N   1      33.482  15.802   4.295  0.00  0.00    -0.166 F 
HETATM   39  F   UNK N   1      33.775  17.923   4.982  0.00  0.00    -0.166 F 
ENDBRANCH   6  36
TORSDOF 6
ENDMDL
