REMARK  15 active torsions:
REMARK  status: ('A' for Active; 'I' for Inactive)
REMARK    1  A    between atoms: C_2  and  C_3 
REMARK    2  A    between atoms: C_2  and  N_51 
REMARK       I    between atoms: C_3  and  N_5 
REMARK    3  A    between atoms: N_5  and  C_6 
REMARK    4  A    between atoms: C_6  and  C_8 
REMARK    5  A    between atoms: C_8  and  O_10 
REMARK    6  A    between atoms: O_10  and  C_11 
REMARK    7  A    between atoms: C_11  and  C_12 
REMARK    8  A    between atoms: C_12  and  O_13 
REMARK    9  A    between atoms: O_13  and  C_14 
REMARK   10  A    between atoms: C_17  and  C_20 
REMARK   11  A    between atoms: C_22  and  N_44 
REMARK   12  A    between atoms: C_25  and  S_29 
REMARK   13  A    between atoms: S_29  and  C_30 
REMARK   14  A    between atoms: C_30  and  C_31 
REMARK   15  A    between atoms: C_34  and  C_37 
ROOT
HETATM    1  C   UNK N   1       6.847 -15.103  -0.259  0.00  0.00     0.022 C 
HETATM    2  C   UNK N   1       8.063 -14.408  -0.311  0.00  0.00     0.101 C 
HETATM    3  C   UNK N   1       9.235 -15.095  -0.477  0.00  0.00     0.126 C 
HETATM    4  N   UNK N   1       9.190 -16.424  -0.791  0.00  0.00    -0.335 N 
ATOM      5  HN  UNK N   1      10.062 -16.920  -0.973  1.00  0.00     0.168 HD
HETATM    6  C   UNK N   1       8.001 -17.111  -0.867  0.00  0.00     0.093 C 
HETATM    7  C   UNK N   1       6.804 -16.469  -0.546  0.00  0.00     0.090 C 
HETATM    8  C   UNK N   1       5.589 -17.251  -0.443  0.00  0.00     0.103 C 
HETATM    9  N   UNK N   1       4.642 -17.913  -0.369  0.00  0.00    -0.191 NA
HETATM   10  C   UNK N   1       8.116 -12.955  -0.310  0.00  0.00     0.104 C 
HETATM   11  N   UNK N   1       8.130 -11.799  -0.344  0.00  0.00    -0.191 NA
ENDROOT
BRANCH   6  12
HETATM   12  S   UNK N   1       8.009 -18.900  -1.152  0.00  0.00    -0.105 SA
BRANCH  12  13
HETATM   13  C   UNK N   1       8.083 -19.319   0.637  0.00  0.00     0.138 C 
BRANCH  13  14
HETATM   14  C   UNK N   1       9.220 -18.564   1.211  0.00  0.00     0.026 A 
HETATM   15  C   UNK N   1       9.050 -17.530   2.152  0.00  0.00     0.077 A 
HETATM   16  S   UNK N   1      10.532 -16.780   2.212  0.00  0.00    -0.081 SA
HETATM   17  C   UNK N   1      11.300 -17.713   1.091  0.00  0.00     0.084 A 
HETATM   18  N   UNK N   1      10.464 -18.667   0.648  0.00  0.00    -0.352 N 
ATOM     19  HN  UNK N   1      10.725 -19.384  -0.028  1.00  0.00     0.166 HD
BRANCH  17  20
HETATM   20  C   UNK N   1      12.686 -17.676   0.701  0.00  0.00    -0.002 A 
HETATM   21  C   UNK N   1      13.220 -16.623  -0.048  0.00  0.00     0.016 A 
HETATM   22  C   UNK N   1      14.557 -16.676  -0.456  0.00  0.00     0.024 A 
HETATM   23  C   UNK N   1      15.349 -17.772  -0.092  0.00  0.00     0.034 A 
HETATM   24  C   UNK N   1      14.803 -18.818   0.649  0.00  0.00     0.024 A 
HETATM   25 Cl   UNK N   1      17.032 -17.846  -0.541  0.00  0.00    -0.084 Cl
HETATM   26  C   UNK N   1      13.468 -18.779   1.022  0.00  0.00     0.016 A 
ENDBRANCH  17  20
ENDBRANCH  13  14
ENDBRANCH  12  13
ENDBRANCH   6  12
BRANCH   1  27
HETATM   27  C   UNK N   1       5.670 -14.348   0.058  0.00  0.00    -0.022 A 
HETATM   28  C   UNK N   1       5.762 -13.307   1.001  0.00  0.00     0.015 A 
HETATM   29  C   UNK N   1       4.904 -12.237   0.911  0.00  0.00     0.037 A 
HETATM   30  C   UNK N   1       3.990 -12.204  -0.147  0.00  0.00     0.068 A 
HETATM   31  C   UNK N   1       3.862 -13.281  -1.015  0.00  0.00     0.037 A 
HETATM   32  C   UNK N   1       4.694 -14.359  -0.907  0.00  0.00     0.015 A 
BRANCH  30  33
HETATM   33  O   UNK N   1       3.142 -11.186  -0.300  0.00  0.00    -0.349 OA
BRANCH  33  34
HETATM   34  C   UNK N   1       2.578 -10.563   0.780  0.00  0.00     0.202 C 
BRANCH  34  35
HETATM   35  C   UNK N   1       1.750 -11.545   1.638  0.00  0.00     0.205 C 
BRANCH  35  36
HETATM   36  O   UNK N   1       1.561 -12.815   1.102  0.00  0.00    -0.318 OA
BRANCH  36  37
HETATM   37  C   UNK N   1       1.031 -13.083  -0.128  0.00  0.00     0.281 C 
HETATM   38  O   UNK N   1       0.857 -12.193  -0.947  0.00  0.00    -0.263 OA
BRANCH  37  39
HETATM   39  C   UNK N   1       0.479 -14.435  -0.413  0.00  0.00     0.180 C 
HETATM   40  C   UNK N   1       1.466 -15.570  -0.222  0.00  0.00     0.043 C 
BRANCH  39  41
HETATM   41  N   UNK N   1      -0.624 -14.511   0.484  0.00  0.00    -0.346 N 
HETATM   42  C   UNK N   1      -1.878 -14.466   0.004  0.00  0.00     0.240 C 
HETATM   43  O   UNK N   1      -2.128 -14.868  -1.124  0.00  0.00    -0.271 OA
HETATM   44  H   UNK N   1      -0.468 -14.596   1.452  0.00  0.00     0.163 HD
BRANCH  42  45
HETATM   45  C   UNK N   1      -2.861 -13.635   0.760  0.00  0.00     0.163 C 
HETATM   46  C   UNK N   1      -4.249 -13.672   0.156  0.00  0.00     0.041 C 
BRANCH  45  47
HETATM   47  N   UNK N   1      -2.380 -12.257   0.718  0.00  0.00    -0.419 N 
HETATM   48  H   UNK N   1      -1.378 -12.067   0.689  0.00  0.00     0.150 HD
HETATM   49  H   UNK N   1      -3.046 -11.485   0.718  0.00  0.00     0.150 HD
ENDBRANCH  45  47
ENDBRANCH  42  45
ENDBRANCH  39  41
ENDBRANCH  37  39
ENDBRANCH  36  37
ENDBRANCH  35  36
ENDBRANCH  34  35
ENDBRANCH  33  34
ENDBRANCH  30  33
ENDBRANCH   1  27
BRANCH   3  50
HETATM   50  N   UNK N   1      10.455 -14.417  -0.181  0.00  0.00    -0.366 N 
HETATM   51  C   UNK N   1      10.549 -13.531   0.958  0.00  0.00     0.124 C 
HETATM   52  C   UNK N   1      11.733 -12.644   0.683  0.00  0.00     0.021 C 
HETATM   53  C   UNK N   1      12.507 -13.348  -0.424  0.00  0.00     0.021 C 
HETATM   54  C   UNK N   1      11.549 -14.338  -1.084  0.00  0.00     0.124 C 
ENDBRANCH   3  50
TORSDOF 15
