MODEL 1
REMARK VINA RESULT:      -7.7      0.000      0.000
REMARK  14 active torsions:
REMARK  status: ('A' for Active; 'I' for Inactive)
REMARK    1  A    between atoms: C_2  and  O_3 
REMARK    2  A    between atoms: O_3  and  C_4 
REMARK       I    between atoms: C_4  and  N_6 
REMARK       I    between atoms: N_9  and  C_12 
REMARK    3  A    between atoms: C_12  and  C_14 
REMARK    4  A    between atoms: C_14  and  C_15 
REMARK    5  A    between atoms: C_14  and  N_27 
REMARK    6  A    between atoms: C_15  and  C_16 
REMARK    7  A    between atoms: C_20  and  C_22 
REMARK    8  A    between atoms: C_22  and  N_26 
REMARK    9  A    between atoms: N_23  and  O_25 
REMARK   10  A    between atoms: N_27  and  S_28 
REMARK   11  A    between atoms: S_28  and  C_31 
REMARK   12  A    between atoms: C_32  and  C_43 
REMARK   13  A    between atoms: C_34  and  C_40 
REMARK   14  A    between atoms: C_36  and  C_37 
ROOT
HETATM    1  C   UNK N   1      21.112  15.305   2.960  0.00  0.00     0.189 C 
ENDROOT
BRANCH   1   2
HETATM    2  C   UNK N   1      21.251  16.840   3.100  0.00  0.00     0.243 C 
HETATM    3  N   UNK N   1      22.160  17.473   3.907  0.00  0.00    -0.347 N 
HETATM    4  C   UNK N   1      23.218  16.781   4.584  0.00  0.00     0.146 C 
HETATM    5  C   UNK N   1      22.151  18.921   4.033  0.00  0.00     0.146 C 
HETATM    6  C   UNK N   1      24.505  17.255   3.928  0.00  0.00     0.148 C 
HETATM    7  N   UNK N   1      24.604  18.691   4.047  0.00  0.00    -0.325 N 
HETATM    8  C   UNK N   1      25.707  19.281   4.607  0.00  0.00     0.362 C 
HETATM    9  C   UNK N   1      23.492  19.495   3.565  0.00  0.00     0.148 C 
HETATM   10  O   UNK N   1      25.704  20.489   4.809  0.00  0.00    -0.238 OA
HETATM   11  O   UNK N   1      20.505  17.529   2.420  0.00  0.00    -0.271 OA
BRANCH   8  12
HETATM   12  O   UNK N   1      26.830  18.576   4.937  0.00  0.00    -0.304 OA
BRANCH  12  13
HETATM   13  C   UNK N   1      27.977  19.138   5.459  0.00  0.00     0.176 C 
HETATM   14  C   UNK N   1      27.955  19.088   6.970  0.00  0.00     0.034 C 
ENDBRANCH  12  13
ENDBRANCH   8  12
ENDBRANCH   1   2
BRANCH   1  15
HETATM   15  C   UNK N   1      21.231  14.793   1.502  0.00  0.00     0.074 C 
BRANCH  15  16
HETATM   16  C   UNK N   1      22.454  13.994   1.204  0.00  0.00    -0.055 A 
HETATM   17  C   UNK N   1      22.447  13.012   0.211  0.00  0.00     0.007 A 
HETATM   18  C   UNK N   1      23.583  12.220   0.014  0.00  0.00     0.002 A 
HETATM   19  C   UNK N   1      24.710  12.391   0.830  0.00  0.00     0.015 A 
HETATM   20  C   UNK N   1      24.726  13.384   1.823  0.00  0.00     0.010 A 
HETATM   21  C   UNK N   1      23.599  14.192   1.976  0.00  0.00     0.022 A 
BRANCH  20  22
HETATM   22  C   UNK N   1      25.901  13.508   2.740  0.00  0.00     0.129 C 
HETATM   23  N   UNK N   1      26.781  14.453   2.643  0.00  0.00    -0.253 N 
ATOM     24  HN  UNK N   1      27.544  14.479   3.319  1.00  0.00     0.196 HD
BRANCH  23  25
HETATM   25  O   UNK N   1      26.738  15.384   1.711  0.00  0.00    -0.288 OA
HETATM   26  H   UNK N   1      26.030  15.691   1.179  0.00  0.00     0.244 HD
ENDBRANCH  23  25
BRANCH  22  27
HETATM   27  N   UNK N   1      26.038  12.575   3.791  0.00  0.00    -0.383 N 
HETATM   28  H   UNK N   1      26.838  12.158   4.186  0.00  0.00     0.157 HD
HETATM   29  H   UNK N   1      25.189  12.292   4.199  0.00  0.00     0.157 HD
ENDBRANCH  22  27
ENDBRANCH  20  22
ENDBRANCH  15  16
ENDBRANCH   1  15
BRANCH   1  30
HETATM   30  N   UNK N   1      19.875  14.743   3.485  0.00  0.00    -0.301 N 
HETATM   31  H   UNK N   1      19.242  14.141   2.957  0.00  0.00     0.173 HD
BRANCH  30  32
HETATM   32  S   UNK N   1      19.618  15.251   5.161  0.00  0.00     0.260 S 
HETATM   33  O   UNK N   1      18.689  14.030   5.239  0.00  0.00    -0.200 OA
HETATM   34  O   UNK N   1      18.366  16.133   5.243  0.00  0.00    -0.200 OA
BRANCH  32  35
HETATM   35  C   UNK N   1      20.274  14.582   6.711  0.00  0.00     0.092 A 
HETATM   36  C   UNK N   1      20.085  15.285   7.929  0.00  0.00    -0.030 A 
HETATM   37  C   UNK N   1      20.554  14.735   9.126  0.00  0.00     0.016 A 
HETATM   38  C   UNK N   1      21.211  13.500   9.143  0.00  0.00    -0.054 A 
HETATM   39  C   UNK N   1      21.418  12.822   7.939  0.00  0.00     0.016 A 
HETATM   40  C   UNK N   1      20.958  13.348   6.724  0.00  0.00    -0.030 A 
BRANCH  36  41
HETATM   41  C   UNK N   1      19.376  16.611   7.962  0.00  0.00     0.012 C 
HETATM   42  C   UNK N   1      20.356  17.770   7.981  0.00  0.00     0.015 C 
HETATM   43  C   UNK N   1      18.427  16.707   9.142  0.00  0.00     0.015 C 
ENDBRANCH  36  41
BRANCH  38  44
HETATM   44  C   UNK N   1      21.695  12.885  10.431  0.00  0.00     0.010 C 
HETATM   45  C   UNK N   1      20.581  12.282  11.275  0.00  0.00     0.015 C 
HETATM   46  C   UNK N   1      22.723  11.805  10.144  0.00  0.00     0.015 C 
ENDBRANCH  38  44
BRANCH  40  47
HETATM   47  C   UNK N   1      21.188  12.583   5.454  0.00  0.00     0.012 C 
HETATM   48  C   UNK N   1      20.699  11.152   5.576  0.00  0.00     0.015 C 
HETATM   49  C   UNK N   1      22.653  12.601   5.056  0.00  0.00     0.015 C 
ENDBRANCH  40  47
ENDBRANCH  32  35
ENDBRANCH  30  32
ENDBRANCH   1  30
TORSDOF 14
ENDMDL
MODEL 2
REMARK VINA RESULT:      -7.6      0.884      2.745
REMARK  14 active torsions:
REMARK  status: ('A' for Active; 'I' for Inactive)
REMARK    1  A    between atoms: C_2  and  O_3 
REMARK    2  A    between atoms: O_3  and  C_4 
REMARK       I    between atoms: C_4  and  N_6 
REMARK       I    between atoms: N_9  and  C_12 
REMARK    3  A    between atoms: C_12  and  C_14 
REMARK    4  A    between atoms: C_14  and  C_15 
REMARK    5  A    between atoms: C_14  and  N_27 
REMARK    6  A    between atoms: C_15  and  C_16 
REMARK    7  A    between atoms: C_20  and  C_22 
REMARK    8  A    between atoms: C_22  and  N_26 
REMARK    9  A    between atoms: N_23  and  O_25 
REMARK   10  A    between atoms: N_27  and  S_28 
REMARK   11  A    between atoms: S_28  and  C_31 
REMARK   12  A    between atoms: C_32  and  C_43 
REMARK   13  A    between atoms: C_34  and  C_40 
REMARK   14  A    between atoms: C_36  and  C_37 
ROOT
HETATM    1  C   UNK N   1      20.677  15.464   2.681  0.00  0.00     0.189 C 
ENDROOT
BRANCH   1   2
HETATM    2  C   UNK N   1      20.915  16.991   2.767  0.00  0.00     0.243 C 
HETATM    3  N   UNK N   1      21.770  17.601   3.648  0.00  0.00    -0.347 N 
HETATM    4  C   UNK N   1      22.688  16.874   4.476  0.00  0.00     0.146 C 
HETATM    5  C   UNK N   1      21.857  19.051   3.707  0.00  0.00     0.146 C 
HETATM    6  C   UNK N   1      24.073  17.221   3.956  0.00  0.00     0.148 C 
HETATM    7  N   UNK N   1      24.267  18.651   4.022  0.00  0.00    -0.325 N 
HETATM    8  C   UNK N   1      25.340  19.192   4.681  0.00  0.00     0.362 C 
HETATM    9  C   UNK N   1      23.282  19.504   3.375  0.00  0.00     0.148 C 
HETATM   10  O   UNK N   1      25.405  20.405   4.827  0.00  0.00    -0.238 OA
HETATM   11  O   UNK N   1      20.306  17.694   1.973  0.00  0.00    -0.271 OA
BRANCH   8  12
HETATM   12  O   UNK N   1      26.360  18.428   5.174  0.00  0.00    -0.304 OA
BRANCH  12  13
HETATM   13  C   UNK N   1      27.428  18.925   5.894  0.00  0.00     0.176 C 
HETATM   14  C   UNK N   1      28.682  18.935   5.050  0.00  0.00     0.034 C 
ENDBRANCH  12  13
ENDBRANCH   8  12
ENDBRANCH   1   2
BRANCH   1  15
HETATM   15  C   UNK N   1      20.812  14.887   1.249  0.00  0.00     0.074 C 
BRANCH  15  16
HETATM   16  C   UNK N   1      22.065  14.123   0.984  0.00  0.00    -0.055 A 
HETATM   17  C   UNK N   1      22.043  12.942   0.240  0.00  0.00     0.007 A 
HETATM   18  C   UNK N   1      23.220  12.203   0.082  0.00  0.00     0.002 A 
HETATM   19  C   UNK N   1      24.406  12.629   0.695  0.00  0.00     0.015 A 
HETATM   20  C   UNK N   1      24.436  13.822   1.436  0.00  0.00     0.010 A 
HETATM   21  C   UNK N   1      23.262  14.568   1.546  0.00  0.00     0.022 A 
BRANCH  20  22
HETATM   22  C   UNK N   1      25.685  14.230   2.150  0.00  0.00     0.129 C 
HETATM   23  N   UNK N   1      26.076  13.692   3.261  0.00  0.00    -0.253 N 
ATOM     24  HN  UNK N   1      26.951  14.014   3.676  1.00  0.00     0.196 HD
BRANCH  23  25
HETATM   25  O   UNK N   1      25.398  12.749   3.882  0.00  0.00    -0.288 OA
HETATM   26  H   UNK N   1      24.546  12.394   3.718  0.00  0.00     0.244 HD
ENDBRANCH  23  25
BRANCH  22  27
HETATM   27  N   UNK N   1      26.504  15.221   1.565  0.00  0.00    -0.383 N 
HETATM   28  H   UNK N   1      27.282  15.147   0.965  0.00  0.00     0.157 HD
HETATM   29  H   UNK N   1      26.256  16.145   1.797  0.00  0.00     0.157 HD
ENDBRANCH  22  27
ENDBRANCH  20  22
ENDBRANCH  15  16
ENDBRANCH   1  15
BRANCH   1  30
HETATM   30  N   UNK N   1      19.387  15.008   3.179  0.00  0.00    -0.301 N 
HETATM   31  H   UNK N   1      18.657  14.592   2.602  0.00  0.00     0.173 HD
BRANCH  30  32
HETATM   32  S   UNK N   1      19.258  15.278   4.924  0.00  0.00     0.260 S 
HETATM   33  O   UNK N   1      18.344  14.044   4.904  0.00  0.00    -0.200 OA
HETATM   34  O   UNK N   1      18.012  16.122   5.222  0.00  0.00    -0.200 OA
BRANCH  32  35
HETATM   35  C   UNK N   1      20.036  14.415   6.313  0.00  0.00     0.092 A 
HETATM   36  C   UNK N   1      20.588  13.120   6.130  0.00  0.00    -0.030 A 
HETATM   37  C   UNK N   1      21.230  12.484   7.197  0.00  0.00     0.016 A 
HETATM   38  C   UNK N   1      21.332  13.102   8.448  0.00  0.00    -0.054 A 
HETATM   39  C   UNK N   1      20.765  14.365   8.633  0.00  0.00     0.016 A 
HETATM   40  C   UNK N   1      20.118  15.028   7.581  0.00  0.00    -0.030 A 
BRANCH  36  41
HETATM   41  C   UNK N   1      20.511  12.420   4.801  0.00  0.00     0.012 C 
HETATM   42  C   UNK N   1      19.881  11.045   4.929  0.00  0.00     0.015 C 
HETATM   43  C   UNK N   1      21.875  12.313   4.146  0.00  0.00     0.015 C 
ENDBRANCH  36  41
BRANCH  38  44
HETATM   44  C   UNK N   1      22.046  12.437   9.597  0.00  0.00     0.010 C 
HETATM   45  C   UNK N   1      23.388  13.073   9.932  0.00  0.00     0.015 C 
HETATM   46  C   UNK N   1      21.176  12.459  10.841  0.00  0.00     0.015 C 
ENDBRANCH  38  44
BRANCH  40  47
HETATM   47  C   UNK N   1      19.534  16.390   7.814  0.00  0.00     0.012 C 
HETATM   48  C   UNK N   1      20.579  17.476   7.640  0.00  0.00     0.015 C 
HETATM   49  C   UNK N   1      18.902  16.491   9.192  0.00  0.00     0.015 C 
ENDBRANCH  40  47
ENDBRANCH  32  35
ENDBRANCH  30  32
ENDBRANCH   1  30
TORSDOF 14
ENDMDL
MODEL 3
REMARK VINA RESULT:      -7.4      3.910      8.237
REMARK  14 active torsions:
REMARK  status: ('A' for Active; 'I' for Inactive)
REMARK    1  A    between atoms: C_2  and  O_3 
REMARK    2  A    between atoms: O_3  and  C_4 
REMARK       I    between atoms: C_4  and  N_6 
REMARK       I    between atoms: N_9  and  C_12 
REMARK    3  A    between atoms: C_12  and  C_14 
REMARK    4  A    between atoms: C_14  and  C_15 
REMARK    5  A    between atoms: C_14  and  N_27 
REMARK    6  A    between atoms: C_15  and  C_16 
REMARK    7  A    between atoms: C_20  and  C_22 
REMARK    8  A    between atoms: C_22  and  N_26 
REMARK    9  A    between atoms: N_23  and  O_25 
REMARK   10  A    between atoms: N_27  and  S_28 
REMARK   11  A    between atoms: S_28  and  C_31 
REMARK   12  A    between atoms: C_32  and  C_43 
REMARK   13  A    between atoms: C_34  and  C_40 
REMARK   14  A    between atoms: C_36  and  C_37 
ROOT
HETATM    1  C   UNK N   1      24.666  15.359   6.228  0.00  0.00     0.189 C 
ENDROOT
BRANCH   1   2
HETATM    2  C   UNK N   1      23.196  15.773   6.478  0.00  0.00     0.243 C 
HETATM    3  N   UNK N   1      22.545  16.785   5.821  0.00  0.00    -0.347 N 
HETATM    4  C   UNK N   1      23.101  17.464   4.687  0.00  0.00     0.146 C 
HETATM    5  C   UNK N   1      21.189  17.152   6.191  0.00  0.00     0.146 C 
HETATM    6  C   UNK N   1      22.234  17.065   3.504  0.00  0.00     0.148 C 
HETATM    7  N   UNK N   1      20.863  17.437   3.766  0.00  0.00    -0.325 N 
HETATM    8  C   UNK N   1      20.162  18.224   2.889  0.00  0.00     0.362 C 
HETATM    9  C   UNK N   1      20.250  16.961   4.996  0.00  0.00     0.148 C 
HETATM   10  O   UNK N   1      19.049  18.625   3.203  0.00  0.00    -0.238 OA
HETATM   11  O   UNK N   1      22.572  15.131   7.310  0.00  0.00    -0.271 OA
BRANCH   8  12
HETATM   12  O   UNK N   1      20.650  18.570   1.661  0.00  0.00    -0.304 OA
BRANCH  12  13
HETATM   13  C   UNK N   1      20.901  19.867   1.260  0.00  0.00     0.176 C 
HETATM   14  C   UNK N   1      21.729  20.593   2.295  0.00  0.00     0.034 C 
ENDBRANCH  12  13
ENDBRANCH   8  12
ENDBRANCH   1   2
BRANCH   1  15
HETATM   15  C   UNK N   1      25.339  14.668   7.440  0.00  0.00     0.074 C 
BRANCH  15  16
HETATM   16  C   UNK N   1      24.730  13.369   7.853  0.00  0.00    -0.055 A 
HETATM   17  C   UNK N   1      24.545  12.337   6.932  0.00  0.00     0.007 A 
HETATM   18  C   UNK N   1      23.893  11.165   7.328  0.00  0.00     0.002 A 
HETATM   19  C   UNK N   1      23.400  11.042   8.635  0.00  0.00     0.015 A 
HETATM   20  C   UNK N   1      23.593  12.073   9.568  0.00  0.00     0.010 A 
HETATM   21  C   UNK N   1      24.283  13.217   9.166  0.00  0.00     0.022 A 
BRANCH  20  22
HETATM   22  C   UNK N   1      22.997  11.967  10.936  0.00  0.00     0.129 C 
HETATM   23  N   UNK N   1      23.695  12.052  12.024  0.00  0.00    -0.253 N 
ATOM     24  HN  UNK N   1      23.210  11.988  12.919  1.00  0.00     0.196 HD
BRANCH  23  25
HETATM   25  O   UNK N   1      25.002  12.218  12.029  0.00  0.00    -0.288 OA
HETATM   26  H   UNK N   1      25.580  12.537  12.694  0.00  0.00     0.244 HD
ENDBRANCH  23  25
BRANCH  22  27
HETATM   27  N   UNK N   1      21.598  11.808  11.052  0.00  0.00    -0.383 N 
HETATM   28  H   UNK N   1      20.857  12.415  10.823  0.00  0.00     0.157 HD
HETATM   29  H   UNK N   1      21.315  10.944  11.428  0.00  0.00     0.157 HD
ENDBRANCH  22  27
ENDBRANCH  20  22
ENDBRANCH  15  16
ENDBRANCH   1  15
BRANCH   1  30
HETATM   30  N   UNK N   1      25.557  16.443   5.837  0.00  0.00    -0.301 N 
HETATM   31  H   UNK N   1      25.320  17.434   5.884  0.00  0.00     0.173 HD
BRANCH  30  32
HETATM   32  S   UNK N   1      27.107  15.805   5.266  0.00  0.00     0.260 S 
HETATM   33  O   UNK N   1      27.223  17.144   4.523  0.00  0.00    -0.200 OA
HETATM   34  O   UNK N   1      26.913  15.132   3.902  0.00  0.00    -0.200 OA
BRANCH  32  35
HETATM   35  C   UNK N   1      28.801  16.187   5.778  0.00  0.00     0.092 A 
HETATM   36  C   UNK N   1      29.039  17.119   6.821  0.00  0.00    -0.030 A 
HETATM   37  C   UNK N   1      30.350  17.369   7.241  0.00  0.00     0.016 A 
HETATM   38  C   UNK N   1      31.434  16.717   6.645  0.00  0.00    -0.054 A 
HETATM   39  C   UNK N   1      31.199  15.819   5.601  0.00  0.00     0.016 A 
HETATM   40  C   UNK N   1      29.897  15.547   5.160  0.00  0.00    -0.030 A 
BRANCH  36  41
HETATM   41  C   UNK N   1      27.905  17.837   7.499  0.00  0.00     0.012 C 
HETATM   42  C   UNK N   1      27.924  19.324   7.196  0.00  0.00     0.015 C 
HETATM   43  C   UNK N   1      27.915  17.607   8.999  0.00  0.00     0.015 C 
ENDBRANCH  36  41
BRANCH  38  44
HETATM   44  C   UNK N   1      32.848  16.958   7.109  0.00  0.00     0.010 C 
HETATM   45  C   UNK N   1      33.789  17.398   5.997  0.00  0.00     0.015 C 
HETATM   46  C   UNK N   1      32.869  18.009   8.206  0.00  0.00     0.015 C 
ENDBRANCH  38  44
BRANCH  40  47
HETATM   47  C   UNK N   1      29.684  14.566   4.045  0.00  0.00     0.012 C 
HETATM   48  C   UNK N   1      29.763  13.136   4.546  0.00  0.00     0.015 C 
HETATM   49  C   UNK N   1      30.683  14.782   2.922  0.00  0.00     0.015 C 
ENDBRANCH  40  47
ENDBRANCH  32  35
ENDBRANCH  30  32
ENDBRANCH   1  30
TORSDOF 14
ENDMDL
MODEL 4
REMARK VINA RESULT:      -7.4      3.599      8.607
REMARK  14 active torsions:
REMARK  status: ('A' for Active; 'I' for Inactive)
REMARK    1  A    between atoms: C_2  and  O_3 
REMARK    2  A    between atoms: O_3  and  C_4 
REMARK       I    between atoms: C_4  and  N_6 
REMARK       I    between atoms: N_9  and  C_12 
REMARK    3  A    between atoms: C_12  and  C_14 
REMARK    4  A    between atoms: C_14  and  C_15 
REMARK    5  A    between atoms: C_14  and  N_27 
REMARK    6  A    between atoms: C_15  and  C_16 
REMARK    7  A    between atoms: C_20  and  C_22 
REMARK    8  A    between atoms: C_22  and  N_26 
REMARK    9  A    between atoms: N_23  and  O_25 
REMARK   10  A    between atoms: N_27  and  S_28 
REMARK   11  A    between atoms: S_28  and  C_31 
REMARK   12  A    between atoms: C_32  and  C_43 
REMARK   13  A    between atoms: C_34  and  C_40 
REMARK   14  A    between atoms: C_36  and  C_37 
ROOT
HETATM    1  C   UNK N   1      23.657  15.789   5.844  0.00  0.00     0.189 C 
ENDROOT
BRANCH   1   2
HETATM    2  C   UNK N   1      22.906  16.875   5.036  0.00  0.00     0.243 C 
HETATM    3  N   UNK N   1      22.516  16.748   3.728  0.00  0.00    -0.347 N 
HETATM    4  C   UNK N   1      22.599  15.511   3.006  0.00  0.00     0.146 C 
HETATM    5  C   UNK N   1      21.892  17.861   3.033  0.00  0.00     0.146 C 
HETATM    6  C   UNK N   1      21.162  15.084   2.758  0.00  0.00     0.148 C 
HETATM    7  N   UNK N   1      20.471  16.119   2.025  0.00  0.00    -0.325 N 
HETATM    8  C   UNK N   1      19.830  15.845   0.845  0.00  0.00     0.362 C 
HETATM    9  C   UNK N   1      20.486  17.468   2.570  0.00  0.00     0.148 C 
HETATM   10  O   UNK N   1      19.366  16.767   0.186  0.00  0.00    -0.238 OA
HETATM   11  O   UNK N   1      22.627  17.911   5.623  0.00  0.00    -0.271 OA
BRANCH   8  12
HETATM   12  O   UNK N   1      19.669  14.573   0.374  0.00  0.00    -0.304 OA
BRANCH  12  13
HETATM   13  C   UNK N   1      18.466  13.896   0.355  0.00  0.00     0.176 C 
HETATM   14  C   UNK N   1      18.496  12.728   1.314  0.00  0.00     0.034 C 
ENDBRANCH  12  13
ENDBRANCH   8  12
ENDBRANCH   1   2
BRANCH   1  15
HETATM   15  C   UNK N   1      22.865  15.254   7.064  0.00  0.00     0.074 C 
BRANCH  15  16
HETATM   16  C   UNK N   1      23.278  13.905   7.550  0.00  0.00    -0.055 A 
HETATM   17  C   UNK N   1      23.665  12.906   6.655  0.00  0.00     0.007 A 
HETATM   18  C   UNK N   1      23.963  11.626   7.135  0.00  0.00     0.002 A 
HETATM   19  C   UNK N   1      23.842  11.342   8.502  0.00  0.00     0.015 A 
HETATM   20  C   UNK N   1      23.463  12.346   9.407  0.00  0.00     0.010 A 
HETATM   21  C   UNK N   1      23.211  13.627   8.915  0.00  0.00     0.022 A 
BRANCH  20  22
HETATM   22  C   UNK N   1      23.261  12.016  10.852  0.00  0.00     0.129 C 
HETATM   23  N   UNK N   1      24.178  12.174  11.752  0.00  0.00    -0.253 N 
ATOM     24  HN  UNK N   1      23.955  11.943  12.720  1.00  0.00     0.196 HD
BRANCH  23  25
HETATM   25  O   UNK N   1      25.387  12.621  11.478  0.00  0.00    -0.288 OA
HETATM   26  H   UNK N   1      25.670  13.363  10.980  0.00  0.00     0.244 HD
ENDBRANCH  23  25
BRANCH  22  27
HETATM   27  N   UNK N   1      21.994  11.547  11.266  0.00  0.00    -0.383 N 
HETATM   28  H   UNK N   1      21.627  10.634  11.317  0.00  0.00     0.157 HD
HETATM   29  H   UNK N   1      21.371  12.252  11.553  0.00  0.00     0.157 HD
ENDBRANCH  22  27
ENDBRANCH  20  22
ENDBRANCH  15  16
ENDBRANCH   1  15
BRANCH   1  30
HETATM   30  N   UNK N   1      24.962  16.187   6.354  0.00  0.00    -0.301 N 
HETATM   31  H   UNK N   1      25.109  16.785   7.167  0.00  0.00     0.173 HD
BRANCH  30  32
HETATM   32  S   UNK N   1      26.258  15.492   5.369  0.00  0.00     0.260 S 
HETATM   33  O   UNK N   1      25.905  16.605   4.372  0.00  0.00    -0.200 OA
HETATM   34  O   UNK N   1      25.663  14.491   4.370  0.00  0.00    -0.200 OA
BRANCH  32  35
HETATM   35  C   UNK N   1      27.952  16.060   5.076  0.00  0.00     0.092 A 
HETATM   36  C   UNK N   1      28.746  15.451   4.069  0.00  0.00    -0.030 A 
HETATM   37  C   UNK N   1      30.035  15.931   3.819  0.00  0.00     0.016 A 
HETATM   38  C   UNK N   1      30.559  17.002   4.550  0.00  0.00    -0.054 A 
HETATM   39  C   UNK N   1      29.786  17.584   5.557  0.00  0.00     0.016 A 
HETATM   40  C   UNK N   1      28.489  17.126   5.829  0.00  0.00    -0.030 A 
BRANCH  36  41
HETATM   41  C   UNK N   1      28.222  14.302   3.252  0.00  0.00     0.012 C 
HETATM   42  C   UNK N   1      28.986  13.022   3.532  0.00  0.00     0.015 C 
HETATM   43  C   UNK N   1      28.249  14.616   1.768  0.00  0.00     0.015 C 
ENDBRANCH  36  41
BRANCH  38  44
HETATM   44  C   UNK N   1      31.937  17.546   4.268  0.00  0.00     0.010 C 
HETATM   45  C   UNK N   1      32.918  17.347   5.415  0.00  0.00     0.015 C 
HETATM   46  C   UNK N   1      32.513  16.898   3.021  0.00  0.00     0.015 C 
ENDBRANCH  38  44
BRANCH  40  47
HETATM   47  C   UNK N   1      27.684  17.785   6.910  0.00  0.00     0.012 C 
HETATM   48  C   UNK N   1      27.757  19.297   6.807  0.00  0.00     0.015 C 
HETATM   49  C   UNK N   1      28.135  17.332   8.287  0.00  0.00     0.015 C 
ENDBRANCH  40  47
ENDBRANCH  32  35
ENDBRANCH  30  32
ENDBRANCH   1  30
TORSDOF 14
ENDMDL
MODEL 5
REMARK VINA RESULT:      -7.3      3.711      8.251
REMARK  14 active torsions:
REMARK  status: ('A' for Active; 'I' for Inactive)
REMARK    1  A    between atoms: C_2  and  O_3 
REMARK    2  A    between atoms: O_3  and  C_4 
REMARK       I    between atoms: C_4  and  N_6 
REMARK       I    between atoms: N_9  and  C_12 
REMARK    3  A    between atoms: C_12  and  C_14 
REMARK    4  A    between atoms: C_14  and  C_15 
REMARK    5  A    between atoms: C_14  and  N_27 
REMARK    6  A    between atoms: C_15  and  C_16 
REMARK    7  A    between atoms: C_20  and  C_22 
REMARK    8  A    between atoms: C_22  and  N_26 
REMARK    9  A    between atoms: N_23  and  O_25 
REMARK   10  A    between atoms: N_27  and  S_28 
REMARK   11  A    between atoms: S_28  and  C_31 
REMARK   12  A    between atoms: C_32  and  C_43 
REMARK   13  A    between atoms: C_34  and  C_40 
REMARK   14  A    between atoms: C_36  and  C_37 
ROOT
HETATM    1  C   UNK N   1      23.705  15.726   5.959  0.00  0.00     0.189 C 
ENDROOT
BRANCH   1   2
HETATM    2  C   UNK N   1      23.005  16.820   5.117  0.00  0.00     0.243 C 
HETATM    3  N   UNK N   1      22.619  16.674   3.810  0.00  0.00    -0.347 N 
HETATM    4  C   UNK N   1      22.655  15.417   3.120  0.00  0.00     0.146 C 
HETATM    5  C   UNK N   1      22.046  17.793   3.081  0.00  0.00     0.146 C 
HETATM    6  C   UNK N   1      21.203  15.043   2.873  0.00  0.00     0.148 C 
HETATM    7  N   UNK N   1      20.561  16.086   2.108  0.00  0.00    -0.325 N 
HETATM    8  C   UNK N   1      19.917  15.808   0.930  0.00  0.00     0.362 C 
HETATM    9  C   UNK N   1      20.628  17.447   2.618  0.00  0.00     0.148 C 
HETATM   10  O   UNK N   1      19.496  16.730   0.245  0.00  0.00    -0.238 OA
HETATM   11  O   UNK N   1      22.765  17.881   5.674  0.00  0.00    -0.271 OA
BRANCH   8  12
HETATM   12  O   UNK N   1      19.706  14.531   0.492  0.00  0.00    -0.304 OA
BRANCH  12  13
HETATM   13  C   UNK N   1      18.612  13.761   0.833  0.00  0.00     0.176 C 
HETATM   14  C   UNK N   1      17.496  13.948  -0.169  0.00  0.00     0.034 C 
ENDBRANCH  12  13
ENDBRANCH   8  12
ENDBRANCH   1   2
BRANCH   1  15
HETATM   15  C   UNK N   1      22.846  15.191   7.133  0.00  0.00     0.074 C 
BRANCH  15  16
HETATM   16  C   UNK N   1      23.229  13.841   7.640  0.00  0.00    -0.055 A 
HETATM   17  C   UNK N   1      23.599  12.822   6.761  0.00  0.00     0.007 A 
HETATM   18  C   UNK N   1      23.869  11.543   7.260  0.00  0.00     0.002 A 
HETATM   19  C   UNK N   1      23.736  11.281   8.631  0.00  0.00     0.015 A 
HETATM   20  C   UNK N   1      23.374  12.306   9.520  0.00  0.00     0.010 A 
HETATM   21  C   UNK N   1      23.151  13.584   9.009  0.00  0.00     0.022 A 
BRANCH  20  22
HETATM   22  C   UNK N   1      23.159  12.000  10.968  0.00  0.00     0.129 C 
HETATM   23  N   UNK N   1      24.085  12.123  11.865  0.00  0.00    -0.253 N 
ATOM     24  HN  UNK N   1      23.853  11.912  12.836  1.00  0.00     0.196 HD
BRANCH  23  25
HETATM   25  O   UNK N   1      25.314  12.508  11.584  0.00  0.00    -0.288 OA
HETATM   26  H   UNK N   1      25.747  13.328  11.717  0.00  0.00     0.244 HD
ENDBRANCH  23  25
BRANCH  22  27
HETATM   27  N   UNK N   1      21.872  11.598  11.390  0.00  0.00    -0.383 N 
HETATM   28  H   UNK N   1      21.493  10.702  11.544  0.00  0.00     0.157 HD
HETATM   29  H   UNK N   1      21.247  12.339  11.557  0.00  0.00     0.157 HD
ENDBRANCH  22  27
ENDBRANCH  20  22
ENDBRANCH  15  16
ENDBRANCH   1  15
BRANCH   1  30
HETATM   30  N   UNK N   1      24.984  16.112   6.538  0.00  0.00    -0.301 N 
HETATM   31  H   UNK N   1      25.093  16.736   7.338  0.00  0.00     0.173 HD
BRANCH  30  32
HETATM   32  S   UNK N   1      26.323  15.353   5.664  0.00  0.00     0.260 S 
HETATM   33  O   UNK N   1      26.193  16.551   4.711  0.00  0.00    -0.200 OA
HETATM   34  O   UNK N   1      25.767  14.474   4.537  0.00  0.00    -0.200 OA
BRANCH  32  35
HETATM   35  C   UNK N   1      28.084  15.773   5.607  0.00  0.00     0.092 A 
HETATM   36  C   UNK N   1      28.602  16.794   6.445  0.00  0.00    -0.030 A 
HETATM   37  C   UNK N   1      29.972  17.075   6.427  0.00  0.00     0.016 A 
HETATM   38  C   UNK N   1      30.842  16.368   5.591  0.00  0.00    -0.054 A 
HETATM   39  C   UNK N   1      30.326  15.380   4.749  0.00  0.00     0.016 A 
HETATM   40  C   UNK N   1      28.958  15.075   4.746  0.00  0.00    -0.030 A 
BRANCH  36  41
HETATM   41  C   UNK N   1      27.707  17.575   7.367  0.00  0.00     0.012 C 
HETATM   42  C   UNK N   1      27.766  19.063   7.076  0.00  0.00     0.015 C 
HETATM   43  C   UNK N   1      28.040  17.312   8.824  0.00  0.00     0.015 C 
ENDBRANCH  36  41
BRANCH  38  44
HETATM   44  C   UNK N   1      32.324  16.643   5.586  0.00  0.00     0.010 C 
HETATM   45  C   UNK N   1      32.799  17.405   4.357  0.00  0.00     0.015 C 
HETATM   46  C   UNK N   1      32.717  17.430   6.824  0.00  0.00     0.015 C 
ENDBRANCH  38  44
BRANCH  40  47
HETATM   47  C   UNK N   1      28.443  13.999   3.837  0.00  0.00     0.012 C 
HETATM   48  C   UNK N   1      28.844  12.621   4.330  0.00  0.00     0.015 C 
HETATM   49  C   UNK N   1      28.924  14.204   2.411  0.00  0.00     0.015 C 
ENDBRANCH  40  47
ENDBRANCH  32  35
ENDBRANCH  30  32
ENDBRANCH   1  30
TORSDOF 14
ENDMDL
MODEL 6
REMARK VINA RESULT:      -7.3      1.803      2.304
REMARK  14 active torsions:
REMARK  status: ('A' for Active; 'I' for Inactive)
REMARK    1  A    between atoms: C_2  and  O_3 
REMARK    2  A    between atoms: O_3  and  C_4 
REMARK       I    between atoms: C_4  and  N_6 
REMARK       I    between atoms: N_9  and  C_12 
REMARK    3  A    between atoms: C_12  and  C_14 
REMARK    4  A    between atoms: C_14  and  C_15 
REMARK    5  A    between atoms: C_14  and  N_27 
REMARK    6  A    between atoms: C_15  and  C_16 
REMARK    7  A    between atoms: C_20  and  C_22 
REMARK    8  A    between atoms: C_22  and  N_26 
REMARK    9  A    between atoms: N_23  and  O_25 
REMARK   10  A    between atoms: N_27  and  S_28 
REMARK   11  A    between atoms: S_28  and  C_31 
REMARK   12  A    between atoms: C_32  and  C_43 
REMARK   13  A    between atoms: C_34  and  C_40 
REMARK   14  A    between atoms: C_36  and  C_37 
ROOT
HETATM    1  C   UNK N   1      20.650  15.305   2.849  0.00  0.00     0.189 C 
ENDROOT
BRANCH   1   2
HETATM    2  C   UNK N   1      20.919  16.820   3.013  0.00  0.00     0.243 C 
HETATM    3  N   UNK N   1      21.831  17.362   3.882  0.00  0.00    -0.347 N 
HETATM    4  C   UNK N   1      22.778  16.573   4.615  0.00  0.00     0.146 C 
HETATM    5  C   UNK N   1      21.947  18.804   4.023  0.00  0.00     0.146 C 
HETATM    6  C   UNK N   1      24.140  16.930   4.043  0.00  0.00     0.148 C 
HETATM    7  N   UNK N   1      24.363  18.350   4.184  0.00  0.00    -0.325 N 
HETATM    8  C   UNK N   1      25.479  18.833   4.816  0.00  0.00     0.362 C 
HETATM    9  C   UNK N   1      23.360  19.256   3.643  0.00  0.00     0.148 C 
HETATM   10  O   UNK N   1      25.573  20.035   5.030  0.00  0.00    -0.238 OA
HETATM   11  O   UNK N   1      20.283  17.578   2.297  0.00  0.00    -0.271 OA
BRANCH   8  12
HETATM   12  O   UNK N   1      26.509  18.026   5.207  0.00  0.00    -0.304 OA
BRANCH  12  13
HETATM   13  C   UNK N   1      27.589  18.449   5.956  0.00  0.00     0.176 C 
HETATM   14  C   UNK N   1      27.933  17.430   7.017  0.00  0.00     0.034 C 
ENDBRANCH  12  13
ENDBRANCH   8  12
ENDBRANCH   1   2
BRANCH   1  15
HETATM   15  C   UNK N   1      20.645  14.824   1.376  0.00  0.00     0.074 C 
BRANCH  15  16
HETATM   16  C   UNK N   1      21.651  13.773   1.044  0.00  0.00    -0.055 A 
HETATM   17  C   UNK N   1      22.935  14.117   0.616  0.00  0.00     0.007 A 
HETATM   18  C   UNK N   1      23.827  13.111   0.230  0.00  0.00     0.002 A 
HETATM   19  C   UNK N   1      23.422  11.769   0.243  0.00  0.00     0.015 A 
HETATM   20  C   UNK N   1      22.136  11.418   0.683  0.00  0.00     0.010 A 
HETATM   21  C   UNK N   1      21.275  12.431   1.104  0.00  0.00     0.022 A 
BRANCH  20  22
HETATM   22  C   UNK N   1      21.686   9.993   0.620  0.00  0.00     0.129 C 
HETATM   23  N   UNK N   1      21.646   9.214   1.654  0.00  0.00    -0.253 N 
ATOM     24  HN  UNK N   1      21.308   8.259   1.531  1.00  0.00     0.196 HD
BRANCH  23  25
HETATM   25  O   UNK N   1      22.019   9.597   2.858  0.00  0.00    -0.288 OA
HETATM   26  H   UNK N   1      22.462   9.133   3.541  0.00  0.00     0.244 HD
ENDBRANCH  23  25
BRANCH  22  27
HETATM   27  N   UNK N   1      21.242   9.479  -0.619  0.00  0.00    -0.383 N 
HETATM   28  H   UNK N   1      20.376   9.095  -0.887  0.00  0.00     0.157 HD
HETATM   29  H   UNK N   1      21.914   9.508  -1.337  0.00  0.00     0.157 HD
ENDBRANCH  22  27
ENDBRANCH  20  22
ENDBRANCH  15  16
ENDBRANCH   1  15
BRANCH   1  30
HETATM   30  N   UNK N   1      19.403  14.830   3.432  0.00  0.00    -0.301 N 
HETATM   31  H   UNK N   1      18.693  14.296   2.928  0.00  0.00     0.173 HD
BRANCH  30  32
HETATM   32  S   UNK N   1      19.285  15.305   5.133  0.00  0.00     0.260 S 
HETATM   33  O   UNK N   1      18.412  14.049   5.277  0.00  0.00    -0.200 OA
HETATM   34  O   UNK N   1      18.015  16.139   5.345  0.00  0.00    -0.200 OA
BRANCH  32  35
HETATM   35  C   UNK N   1      20.107  14.642   6.604  0.00  0.00     0.092 A 
HETATM   36  C   UNK N   1      20.057  15.353   7.831  0.00  0.00    -0.030 A 
HETATM   37  C   UNK N   1      20.653  14.807   8.972  0.00  0.00     0.016 A 
HETATM   38  C   UNK N   1      21.305  13.571   8.923  0.00  0.00    -0.054 A 
HETATM   39  C   UNK N   1      21.375  12.885   7.708  0.00  0.00     0.016 A 
HETATM   40  C   UNK N   1      20.785  13.406   6.548  0.00  0.00    -0.030 A 
BRANCH  36  41
HETATM   41  C   UNK N   1      19.359  16.682   7.935  0.00  0.00     0.012 C 
HETATM   42  C   UNK N   1      20.348  17.833   7.943  0.00  0.00     0.015 C 
HETATM   43  C   UNK N   1      18.466  16.749   9.160  0.00  0.00     0.015 C 
ENDBRANCH  36  41
BRANCH  38  44
HETATM   44  C   UNK N   1      21.926  12.960  10.154  0.00  0.00     0.010 C 
HETATM   45  C   UNK N   1      20.914  12.336  11.103  0.00  0.00     0.015 C 
HETATM   46  C   UNK N   1      22.939  11.899   9.760  0.00  0.00     0.015 C 
ENDBRANCH  38  44
BRANCH  40  47
HETATM   47  C   UNK N   1      20.869  12.634   5.265  0.00  0.00     0.012 C 
HETATM   48  C   UNK N   1      20.410  11.200   5.453  0.00  0.00     0.015 C 
HETATM   49  C   UNK N   1      22.277  12.661   4.697  0.00  0.00     0.015 C 
ENDBRANCH  40  47
ENDBRANCH  32  35
ENDBRANCH  30  32
ENDBRANCH   1  30
TORSDOF 14
ENDMDL
MODEL 7
REMARK VINA RESULT:      -7.3      7.509     11.753
REMARK  14 active torsions:
REMARK  status: ('A' for Active; 'I' for Inactive)
REMARK    1  A    between atoms: C_2  and  O_3 
REMARK    2  A    between atoms: O_3  and  C_4 
REMARK       I    between atoms: C_4  and  N_6 
REMARK       I    between atoms: N_9  and  C_12 
REMARK    3  A    between atoms: C_12  and  C_14 
REMARK    4  A    between atoms: C_14  and  C_15 
REMARK    5  A    between atoms: C_14  and  N_27 
REMARK    6  A    between atoms: C_15  and  C_16 
REMARK    7  A    between atoms: C_20  and  C_22 
REMARK    8  A    between atoms: C_22  and  N_26 
REMARK    9  A    between atoms: N_23  and  O_25 
REMARK   10  A    between atoms: N_27  and  S_28 
REMARK   11  A    between atoms: S_28  and  C_31 
REMARK   12  A    between atoms: C_32  and  C_43 
REMARK   13  A    between atoms: C_34  and  C_40 
REMARK   14  A    between atoms: C_36  and  C_37 
ROOT
HETATM    1  C   UNK N   1      33.559  14.513   7.306  0.00  0.00     0.189 C 
ENDROOT
BRANCH   1   2
HETATM    2  C   UNK N   1      34.779  15.011   8.119  0.00  0.00     0.243 C 
HETATM    3  N   UNK N   1      34.807  15.148   9.483  0.00  0.00    -0.347 N 
HETATM    4  C   UNK N   1      33.760  14.668  10.338  0.00  0.00     0.146 C 
HETATM    5  C   UNK N   1      35.974  15.707  10.143  0.00  0.00     0.146 C 
HETATM    6  C   UNK N   1      34.370  13.521  11.128  0.00  0.00     0.148 C 
HETATM    7  N   UNK N   1      35.520  14.000  11.860  0.00  0.00    -0.325 N 
HETATM    8  C   UNK N   1      35.619  13.827  13.216  0.00  0.00     0.362 C 
HETATM    9  C   UNK N   1      36.567  14.683  11.116  0.00  0.00     0.148 C 
HETATM   10  O   UNK N   1      36.542  14.356  13.822  0.00  0.00    -0.238 OA
HETATM   11  O   UNK N   1      35.792  15.281   7.491  0.00  0.00    -0.271 OA
BRANCH   8  12
HETATM   12  O   UNK N   1      34.734  13.068  13.927  0.00  0.00    -0.304 OA
BRANCH  12  13
HETATM   13  C   UNK N   1      35.011  11.812  14.428  0.00  0.00     0.176 C 
HETATM   14  C   UNK N   1      33.779  10.939  14.390  0.00  0.00     0.034 C 
ENDBRANCH  12  13
ENDBRANCH   8  12
ENDBRANCH   1   2
BRANCH   1  15
HETATM   15  C   UNK N   1      33.873  13.318   6.372  0.00  0.00     0.074 C 
BRANCH  15  16
HETATM   16  C   UNK N   1      33.009  13.211   5.160  0.00  0.00    -0.055 A 
HETATM   17  C   UNK N   1      33.494  13.564   3.899  0.00  0.00     0.007 A 
HETATM   18  C   UNK N   1      32.634  13.536   2.796  0.00  0.00     0.002 A 
HETATM   19  C   UNK N   1      31.287  13.187   2.962  0.00  0.00     0.015 A 
HETATM   20  C   UNK N   1      30.798  12.822   4.227  0.00  0.00     0.010 A 
HETATM   21  C   UNK N   1      31.680  12.815   5.307  0.00  0.00     0.022 A 
BRANCH  20  22
HETATM   22  C   UNK N   1      29.343  12.526   4.410  0.00  0.00     0.129 C 
HETATM   23  N   UNK N   1      28.900  11.401   4.873  0.00  0.00    -0.253 N 
ATOM     24  HN  UNK N   1      27.892  11.285   4.986  1.00  0.00     0.196 HD
BRANCH  23  25
HETATM   25  O   UNK N   1      29.688  10.399   5.206  0.00  0.00    -0.288 OA
HETATM   26  H   UNK N   1      29.914   9.615   4.746  0.00  0.00     0.244 HD
ENDBRANCH  23  25
BRANCH  22  27
HETATM   27  N   UNK N   1      28.405  13.537   4.104  0.00  0.00    -0.383 N 
HETATM   28  H   UNK N   1      27.430  13.496   3.969  0.00  0.00     0.157 HD
HETATM   29  H   UNK N   1      28.791  14.437   4.008  0.00  0.00     0.157 HD
ENDBRANCH  22  27
ENDBRANCH  20  22
ENDBRANCH  15  16
ENDBRANCH   1  15
BRANCH   1  30
HETATM   30  N   UNK N   1      32.917  15.519   6.472  0.00  0.00    -0.301 N 
HETATM   31  H   UNK N   1      33.283  15.853   5.580  0.00  0.00     0.173 HD
BRANCH  30  32
HETATM   32  S   UNK N   1      31.414  16.086   7.217  0.00  0.00     0.260 S 
HETATM   33  O   UNK N   1      32.200  17.379   7.482  0.00  0.00    -0.200 OA
HETATM   34  O   UNK N   1      31.460  15.821   8.727  0.00  0.00    -0.200 OA
BRANCH  32  35
HETATM   35  C   UNK N   1      30.152  17.230   6.605  0.00  0.00     0.092 A 
HETATM   36  C   UNK N   1      30.022  17.472   5.213  0.00  0.00    -0.030 A 
HETATM   37  C   UNK N   1      29.011  18.320   4.749  0.00  0.00     0.016 A 
HETATM   38  C   UNK N   1      28.126  18.940   5.638  0.00  0.00    -0.054 A 
HETATM   39  C   UNK N   1      28.272  18.720   7.009  0.00  0.00     0.016 A 
HETATM   40  C   UNK N   1      29.274  17.874   7.504  0.00  0.00    -0.030 A 
BRANCH  36  41
HETATM   41  C   UNK N   1      30.944  16.822   4.219  0.00  0.00     0.012 C 
HETATM   42  C   UNK N   1      32.156  17.688   3.930  0.00  0.00     0.015 C 
HETATM   43  C   UNK N   1      30.222  16.481   2.928  0.00  0.00     0.015 C 
ENDBRANCH  36  41
BRANCH  38  44
HETATM   44  C   UNK N   1      27.016  19.833   5.146  0.00  0.00     0.010 C 
HETATM   45  C   UNK N   1      27.013  21.213   5.787  0.00  0.00     0.015 C 
HETATM   46  C   UNK N   1      27.104  20.000   3.639  0.00  0.00     0.015 C 
ENDBRANCH  38  44
BRANCH  40  47
HETATM   47  C   UNK N   1      29.391  17.652   8.983  0.00  0.00     0.012 C 
HETATM   48  C   UNK N   1      28.074  17.189   9.576  0.00  0.00     0.015 C 
HETATM   49  C   UNK N   1      29.871  18.906   9.693  0.00  0.00     0.015 C 
ENDBRANCH  40  47
ENDBRANCH  32  35
ENDBRANCH  30  32
ENDBRANCH   1  30
TORSDOF 14
ENDMDL
MODEL 8
REMARK VINA RESULT:      -7.3      4.262      8.795
REMARK  14 active torsions:
REMARK  status: ('A' for Active; 'I' for Inactive)
REMARK    1  A    between atoms: C_2  and  O_3 
REMARK    2  A    between atoms: O_3  and  C_4 
REMARK       I    between atoms: C_4  and  N_6 
REMARK       I    between atoms: N_9  and  C_12 
REMARK    3  A    between atoms: C_12  and  C_14 
REMARK    4  A    between atoms: C_14  and  C_15 
REMARK    5  A    between atoms: C_14  and  N_27 
REMARK    6  A    between atoms: C_15  and  C_16 
REMARK    7  A    between atoms: C_20  and  C_22 
REMARK    8  A    between atoms: C_22  and  N_26 
REMARK    9  A    between atoms: N_23  and  O_25 
REMARK   10  A    between atoms: N_27  and  S_28 
REMARK   11  A    between atoms: S_28  and  C_31 
REMARK   12  A    between atoms: C_32  and  C_43 
REMARK   13  A    between atoms: C_34  and  C_40 
REMARK   14  A    between atoms: C_36  and  C_37 
ROOT
HETATM    1  C   UNK N   1      25.539  15.399   5.774  0.00  0.00     0.189 C 
ENDROOT
BRANCH   1   2
HETATM    2  C   UNK N   1      24.089  15.737   5.355  0.00  0.00     0.243 C 
HETATM    3  N   UNK N   1      23.605  15.655   4.074  0.00  0.00    -0.347 N 
HETATM    4  C   UNK N   1      24.346  15.066   2.996  0.00  0.00     0.146 C 
HETATM    5  C   UNK N   1      22.249  16.078   3.770  0.00  0.00     0.146 C 
HETATM    6  C   UNK N   1      23.596  13.796   2.628  0.00  0.00     0.148 C 
HETATM    7  N   UNK N   1      22.238  14.129   2.263  0.00  0.00    -0.325 N 
HETATM    8  C   UNK N   1      21.713  13.740   1.058  0.00  0.00     0.362 C 
HETATM    9  C   UNK N   1      21.446  14.900   3.208  0.00  0.00     0.148 C 
HETATM   10  O   UNK N   1      20.607  14.147   0.727  0.00  0.00    -0.238 OA
HETATM   11  O   UNK N   1      23.320  16.082   6.240  0.00  0.00    -0.271 OA
BRANCH   8  12
HETATM   12  O   UNK N   1      22.369  12.896   0.208  0.00  0.00    -0.304 OA
BRANCH  12  13
HETATM   13  C   UNK N   1      22.338  11.519   0.299  0.00  0.00     0.176 C 
HETATM   14  C   UNK N   1      23.724  10.942   0.123  0.00  0.00     0.034 C 
ENDBRANCH  12  13
ENDBRANCH   8  12
ENDBRANCH   1   2
BRANCH   1  15
HETATM   15  C   UNK N   1      25.681  14.969   7.256  0.00  0.00     0.074 C 
BRANCH  15  16
HETATM   16  C   UNK N   1      25.087  13.643   7.595  0.00  0.00    -0.055 A 
HETATM   17  C   UNK N   1      24.902  12.667   6.614  0.00  0.00     0.007 A 
HETATM   18  C   UNK N   1      24.263  11.467   6.945  0.00  0.00     0.002 A 
HETATM   19  C   UNK N   1      23.784  11.261   8.246  0.00  0.00     0.015 A 
HETATM   20  C   UNK N   1      23.976  12.236   9.239  0.00  0.00     0.010 A 
HETATM   21  C   UNK N   1      24.653  13.408   8.899  0.00  0.00     0.022 A 
BRANCH  20  22
HETATM   22  C   UNK N   1      23.394  12.042  10.603  0.00  0.00     0.129 C 
HETATM   23  N   UNK N   1      24.071  12.207  11.694  0.00  0.00    -0.253 N 
ATOM     24  HN  UNK N   1      23.595  12.074  12.586  1.00  0.00     0.196 HD
BRANCH  23  25
HETATM   25  O   UNK N   1      25.346  12.541  11.707  0.00  0.00    -0.288 OA
HETATM   26  H   UNK N   1      25.787  13.271  12.095  0.00  0.00     0.244 HD
ENDBRANCH  23  25
BRANCH  22  27
HETATM   27  N   UNK N   1      22.027  11.703  10.711  0.00  0.00    -0.383 N 
HETATM   28  H   UNK N   1      21.214  12.226  10.523  0.00  0.00     0.157 HD
HETATM   29  H   UNK N   1      21.858  10.787  11.030  0.00  0.00     0.157 HD
ENDBRANCH  22  27
ENDBRANCH  20  22
ENDBRANCH  15  16
ENDBRANCH   1  15
BRANCH   1  30
HETATM   30  N   UNK N   1      26.508  16.467   5.571  0.00  0.00    -0.301 N 
HETATM   31  H   UNK N   1      26.272  17.456   5.486  0.00  0.00     0.173 HD
BRANCH  30  32
HETATM   32  S   UNK N   1      28.152  15.815   5.489  0.00  0.00     0.260 S 
HETATM   33  O   UNK N   1      28.460  17.076   4.667  0.00  0.00    -0.200 OA
HETATM   34  O   UNK N   1      28.319  15.006   4.196  0.00  0.00    -0.200 OA
BRANCH  32  35
HETATM   35  C   UNK N   1      29.656  16.289   6.380  0.00  0.00     0.092 A 
HETATM   36  C   UNK N   1      29.578  17.145   7.508  0.00  0.00    -0.030 A 
HETATM   37  C   UNK N   1      30.740  17.464   8.217  0.00  0.00     0.016 A 
HETATM   38  C   UNK N   1      31.983  16.955   7.829  0.00  0.00    -0.054 A 
HETATM   39  C   UNK N   1      32.062  16.132   6.703  0.00  0.00     0.016 A 
HETATM   40  C   UNK N   1      30.914  15.794   5.974  0.00  0.00    -0.030 A 
BRANCH  36  41
HETATM   41  C   UNK N   1      28.262  17.710   7.969  0.00  0.00     0.012 C 
HETATM   42  C   UNK N   1      28.111  19.169   7.578  0.00  0.00     0.015 C 
HETATM   43  C   UNK N   1      28.078  17.546   9.466  0.00  0.00     0.015 C 
ENDBRANCH  36  41
BRANCH  38  44
HETATM   44  C   UNK N   1      33.238  17.270   8.604  0.00  0.00     0.010 C 
HETATM   45  C   UNK N   1      34.147  16.067   8.807  0.00  0.00     0.015 C 
HETATM   46  C   UNK N   1      34.028  18.362   7.904  0.00  0.00     0.015 C 
ENDBRANCH  38  44
BRANCH  40  47
HETATM   47  C   UNK N   1      31.036  14.897   4.778  0.00  0.00     0.012 C 
HETATM   48  C   UNK N   1      31.471  13.499   5.179  0.00  0.00     0.015 C 
HETATM   49  C   UNK N   1      32.001  15.470   3.755  0.00  0.00     0.015 C 
ENDBRANCH  40  47
ENDBRANCH  32  35
ENDBRANCH  30  32
ENDBRANCH   1  30
TORSDOF 14
ENDMDL
MODEL 9
REMARK VINA RESULT:      -7.3      8.476     12.429
REMARK  14 active torsions:
REMARK  status: ('A' for Active; 'I' for Inactive)
REMARK    1  A    between atoms: C_2  and  O_3 
REMARK    2  A    between atoms: O_3  and  C_4 
REMARK       I    between atoms: C_4  and  N_6 
REMARK       I    between atoms: N_9  and  C_12 
REMARK    3  A    between atoms: C_12  and  C_14 
REMARK    4  A    between atoms: C_14  and  C_15 
REMARK    5  A    between atoms: C_14  and  N_27 
REMARK    6  A    between atoms: C_15  and  C_16 
REMARK    7  A    between atoms: C_20  and  C_22 
REMARK    8  A    between atoms: C_22  and  N_26 
REMARK    9  A    between atoms: N_23  and  O_25 
REMARK   10  A    between atoms: N_27  and  S_28 
REMARK   11  A    between atoms: S_28  and  C_31 
REMARK   12  A    between atoms: C_32  and  C_43 
REMARK   13  A    between atoms: C_34  and  C_40 
REMARK   14  A    between atoms: C_36  and  C_37 
ROOT
HETATM    1  C   UNK N   1      33.615  14.894   7.364  0.00  0.00     0.189 C 
ENDROOT
BRANCH   1   2
HETATM    2  C   UNK N   1      34.514  15.751   8.288  0.00  0.00     0.243 C 
HETATM    3  N   UNK N   1      34.527  15.675   9.657  0.00  0.00    -0.347 N 
HETATM    4  C   UNK N   1      33.834  14.655  10.389  0.00  0.00     0.146 C 
HETATM    5  C   UNK N   1      35.347  16.586  10.438  0.00  0.00     0.146 C 
HETATM    6  C   UNK N   1      34.916  13.792  11.017  0.00  0.00     0.148 C 
HETATM    7  N   UNK N   1      35.759  14.613  11.855  0.00  0.00    -0.325 N 
HETATM    8  C   UNK N   1      35.973  14.297  13.172  0.00  0.00     0.362 C 
HETATM    9  C   UNK N   1      36.366  15.795  11.264  0.00  0.00     0.148 C 
HETATM   10  O   UNK N   1      36.586  15.080  13.885  0.00  0.00    -0.238 OA
HETATM   11  O   UNK N   1      35.280  16.535   7.747  0.00  0.00    -0.271 OA
BRANCH   8  12
HETATM   12  O   UNK N   1      35.542  13.124  13.725  0.00  0.00    -0.304 OA
BRANCH  12  13
HETATM   13  C   UNK N   1      36.369  12.197  14.327  0.00  0.00     0.176 C 
HETATM   14  C   UNK N   1      37.384  11.668  13.341  0.00  0.00     0.034 C 
ENDBRANCH  12  13
ENDBRANCH   8  12
ENDBRANCH   1   2
BRANCH   1  15
HETATM   15  C   UNK N   1      34.393  13.854   6.520  0.00  0.00     0.074 C 
BRANCH  15  16
HETATM   16  C   UNK N   1      34.672  12.557   7.203  0.00  0.00    -0.055 A 
HETATM   17  C   UNK N   1      35.886  11.894   7.017  0.00  0.00     0.007 A 
HETATM   18  C   UNK N   1      36.085  10.639   7.602  0.00  0.00     0.002 A 
HETATM   19  C   UNK N   1      35.058  10.038   8.342  0.00  0.00     0.015 A 
HETATM   20  C   UNK N   1      33.838  10.705   8.541  0.00  0.00     0.010 A 
HETATM   21  C   UNK N   1      33.675  11.975   7.985  0.00  0.00     0.022 A 
BRANCH  20  22
HETATM   22  C   UNK N   1      32.720  10.025   9.265  0.00  0.00     0.129 C 
HETATM   23  N   UNK N   1      32.599  10.037  10.555  0.00  0.00    -0.253 N 
ATOM     24  HN  UNK N   1      31.796   9.564  10.971  1.00  0.00     0.196 HD
BRANCH  23  25
HETATM   25  O   UNK N   1      33.461  10.631  11.354  0.00  0.00    -0.288 OA
HETATM   26  H   UNK N   1      34.389  10.744  11.284  0.00  0.00     0.244 HD
ENDBRANCH  23  25
BRANCH  22  27
HETATM   27  N   UNK N   1      31.723   9.372   8.507  0.00  0.00    -0.383 N 
HETATM   28  H   UNK N   1      31.792   8.709   7.782  0.00  0.00     0.157 HD
HETATM   29  H   UNK N   1      30.801   9.623   8.743  0.00  0.00     0.157 HD
ENDBRANCH  22  27
ENDBRANCH  20  22
ENDBRANCH  15  16
ENDBRANCH   1  15
BRANCH   1  30
HETATM   30  N   UNK N   1      32.797  15.647   6.424  0.00  0.00    -0.301 N 
HETATM   31  H   UNK N   1      33.062  15.853   5.460  0.00  0.00     0.173 HD
BRANCH  30  32
HETATM   32  S   UNK N   1      31.280  16.157   7.180  0.00  0.00     0.260 S 
HETATM   33  O   UNK N   1      32.016  17.482   7.432  0.00  0.00    -0.200 OA
HETATM   34  O   UNK N   1      31.349  15.901   8.691  0.00  0.00    -0.200 OA
BRANCH  32  35
HETATM   35  C   UNK N   1      29.968  17.248   6.575  0.00  0.00     0.092 A 
HETATM   36  C   UNK N   1      29.083  17.876   7.489  0.00  0.00    -0.030 A 
HETATM   37  C   UNK N   1      28.104  18.755   7.014  0.00  0.00     0.016 A 
HETATM   38  C   UNK N   1      27.980  19.023   5.647  0.00  0.00    -0.054 A 
HETATM   39  C   UNK N   1      28.836  18.384   4.746  0.00  0.00     0.016 A 
HETATM   40  C   UNK N   1      29.827  17.500   5.194  0.00  0.00    -0.030 A 
BRANCH  36  41
HETATM   41  C   UNK N   1      29.184  17.626   8.969  0.00  0.00     0.012 C 
HETATM   42  C   UNK N   1      27.855  17.183   9.554  0.00  0.00     0.015 C 
HETATM   43  C   UNK N   1      29.701  18.847   9.707  0.00  0.00     0.015 C 
ENDBRANCH  36  41
BRANCH  38  44
HETATM   44  C   UNK N   1      26.947  19.990   5.126  0.00  0.00     0.010 C 
HETATM   45  C   UNK N   1      27.020  21.366   5.773  0.00  0.00     0.015 C 
HETATM   46  C   UNK N   1      27.091  20.153   3.623  0.00  0.00     0.015 C 
ENDBRANCH  38  44
BRANCH  40  47
HETATM   47  C   UNK N   1      30.736  16.844   4.197  0.00  0.00     0.012 C 
HETATM   48  C   UNK N   1      31.896  17.749   3.828  0.00  0.00     0.015 C 
HETATM   49  C   UNK N   1      29.979  16.431   2.947  0.00  0.00     0.015 C 
ENDBRANCH  40  47
ENDBRANCH  32  35
ENDBRANCH  30  32
ENDBRANCH   1  30
TORSDOF 14
ENDMDL
