MODEL 1
REMARK VINA RESULT:      -7.3      0.000      0.000
REMARK  6 active torsions:
REMARK  status: ('A' for Active; 'I' for Inactive)
REMARK    1  A    between atoms: C_2  and  C_5 
REMARK    2  A    between atoms: C_7  and  C_12 
REMARK    3  A    between atoms: C_10  and  O_11 
REMARK    4  A    between atoms: C_12  and  C_15 
REMARK    5  A    between atoms: C_18  and  O_25 
REMARK    6  A    between atoms: C_19  and  C_21 
ROOT
HETATM    1  C   UNK N   1      32.531  16.354   5.636  0.00  0.00     0.007 C 
HETATM    2  C   UNK N   1      32.831  14.969   5.063  0.00  0.00     0.025 C 
HETATM    3  C   UNK N   1      32.962  17.346   4.555  0.00  0.00     0.025 C 
ENDROOT
BRANCH   1   4
HETATM    4  C   UNK N   1      31.037  16.429   5.927  0.00  0.00    -0.045 A 
HETATM    5  C   UNK N   1      30.523  17.203   6.980  0.00  0.00     0.019 A 
HETATM    6  C   UNK N   1      29.136  17.317   7.206  0.00  0.00    -0.017 A 
HETATM    7  C   UNK N   1      28.252  16.644   6.318  0.00  0.00     0.072 A 
HETATM    8  C   UNK N   1      28.767  15.864   5.281  0.00  0.00     0.037 A 
HETATM    9  C   UNK N   1      30.141  15.748   5.092  0.00  0.00     0.011 A 
BRANCH   6  10
HETATM   10  C   UNK N   1      28.679  18.156   8.403  0.00  0.00    -0.021 C 
HETATM   11  C   UNK N   1      27.894  19.363   7.918  0.00  0.00     0.019 C 
HETATM   12  C   UNK N   1      27.802  17.435   9.414  0.00  0.00     0.019 C 
HETATM   13  C   UNK N   1      29.902  18.651   9.155  0.00  0.00     0.019 C 
ENDBRANCH   6  10
BRANCH   7  14
HETATM   14  O   UNK N   1      26.917  16.722   6.451  0.00  0.00    -0.360 OA
HETATM   15  H   UNK N   1      26.377  17.451   6.686  0.00  0.00     0.217 HD
ENDBRANCH   7  14
ENDBRANCH   1   4
BRANCH   1  16
HETATM   16  C   UNK N   1      33.338  16.634   6.898  0.00  0.00    -0.045 A 
HETATM   17  C   UNK N   1      33.696  17.951   7.214  0.00  0.00     0.011 A 
HETATM   18  C   UNK N   1      34.483  18.224   8.331  0.00  0.00     0.037 A 
HETATM   19  C   UNK N   1      34.900  17.195   9.178  0.00  0.00     0.072 A 
HETATM   20  C   UNK N   1      34.515  15.852   8.910  0.00  0.00    -0.017 A 
HETATM   21  C   UNK N   1      33.751  15.599   7.752  0.00  0.00     0.019 A 
BRANCH  19  22
HETATM   22  O   UNK N   1      35.656  17.517  10.242  0.00  0.00    -0.360 OA
HETATM   23  H   UNK N   1      36.478  17.963  10.295  0.00  0.00     0.217 HD
ENDBRANCH  19  22
BRANCH  20  24
HETATM   24  C   UNK N   1      34.861  14.661   9.806  0.00  0.00    -0.021 C 
HETATM   25  C   UNK N   1      36.349  14.375   9.733  0.00  0.00     0.019 C 
HETATM   26  C   UNK N   1      34.112  13.435   9.310  0.00  0.00     0.019 C 
HETATM   27  C   UNK N   1      34.508  14.822  11.276  0.00  0.00     0.019 C 
ENDBRANCH  20  24
ENDBRANCH   1  16
TORSDOF 6
ENDMDL
MODEL 2
REMARK VINA RESULT:      -7.3      0.051      6.491
REMARK  6 active torsions:
REMARK  status: ('A' for Active; 'I' for Inactive)
REMARK    1  A    between atoms: C_2  and  C_5 
REMARK    2  A    between atoms: C_7  and  C_12 
REMARK    3  A    between atoms: C_10  and  O_11 
REMARK    4  A    between atoms: C_12  and  C_15 
REMARK    5  A    between atoms: C_18  and  O_25 
REMARK    6  A    between atoms: C_19  and  C_21 
ROOT
HETATM    1  C   UNK N   1      32.517  16.316   5.642  0.00  0.00     0.007 C 
HETATM    2  C   UNK N   1      32.964  17.308   4.569  0.00  0.00     0.025 C 
HETATM    3  C   UNK N   1      32.821  14.930   5.070  0.00  0.00     0.025 C 
ENDROOT
BRANCH   1   4
HETATM    4  C   UNK N   1      33.310  16.604   6.910  0.00  0.00    -0.045 A 
HETATM    5  C   UNK N   1      33.723  15.580   7.778  0.00  0.00     0.019 A 
HETATM    6  C   UNK N   1      34.508  15.847   8.918  0.00  0.00    -0.017 A 
HETATM    7  C   UNK N   1      34.904  17.191   9.163  0.00  0.00     0.072 A 
HETATM    8  C   UNK N   1      34.479  18.209   8.306  0.00  0.00     0.037 A 
HETATM    9  C   UNK N   1      33.684  17.923   7.200  0.00  0.00     0.011 A 
BRANCH   6  10
HETATM   10  C   UNK N   1      34.875  14.665   9.820  0.00  0.00    -0.021 C 
HETATM   11  C   UNK N   1      36.381  14.466   9.824  0.00  0.00     0.019 C 
HETATM   12  C   UNK N   1      34.442  14.786  11.272  0.00  0.00     0.019 C 
HETATM   13  C   UNK N   1      34.229  13.405   9.271  0.00  0.00     0.019 C 
ENDBRANCH   6  10
BRANCH   7  14
HETATM   14  O   UNK N   1      35.672  17.525  10.213  0.00  0.00    -0.360 OA
HETATM   15  H   UNK N   1      36.587  17.724  10.251  0.00  0.00     0.217 HD
ENDBRANCH   7  14
ENDBRANCH   1   4
BRANCH   1  16
HETATM   16  C   UNK N   1      31.020  16.409   5.913  0.00  0.00    -0.045 A 
HETATM   17  C   UNK N   1      30.123  15.703   5.100  0.00  0.00     0.011 A 
HETATM   18  C   UNK N   1      28.748  15.820   5.292  0.00  0.00     0.037 A 
HETATM   19  C   UNK N   1      28.237  16.614   6.321  0.00  0.00     0.072 A 
HETATM   20  C   UNK N   1      29.122  17.309   7.190  0.00  0.00    -0.017 A 
HETATM   21  C   UNK N   1      30.508  17.204   6.950  0.00  0.00     0.019 A 
BRANCH  19  22
HETATM   22  O   UNK N   1      26.902  16.688   6.461  0.00  0.00    -0.360 OA
HETATM   23  H   UNK N   1      26.342  17.427   6.594  0.00  0.00     0.217 HD
ENDBRANCH  19  22
BRANCH  20  24
HETATM   24  C   UNK N   1      28.671  18.151   8.386  0.00  0.00    -0.021 C 
HETATM   25  C   UNK N   1      27.874  19.349   7.902  0.00  0.00     0.019 C 
HETATM   26  C   UNK N   1      29.899  18.660   9.123  0.00  0.00     0.019 C 
HETATM   27  C   UNK N   1      27.815  17.429   9.413  0.00  0.00     0.019 C 
ENDBRANCH  20  24
ENDBRANCH   1  16
TORSDOF 6
ENDMDL
MODEL 3
REMARK VINA RESULT:      -7.2     13.137     15.644
REMARK  6 active torsions:
REMARK  status: ('A' for Active; 'I' for Inactive)
REMARK    1  A    between atoms: C_2  and  C_5 
REMARK    2  A    between atoms: C_7  and  C_12 
REMARK    3  A    between atoms: C_10  and  O_11 
REMARK    4  A    between atoms: C_12  and  C_15 
REMARK    5  A    between atoms: C_18  and  O_25 
REMARK    6  A    between atoms: C_19  and  C_21 
ROOT
HETATM    1  C   UNK N   1      29.517  20.650  -7.583  0.00  0.00     0.007 C 
HETATM    2  C   UNK N   1      29.346  19.154  -7.844  0.00  0.00     0.025 C 
HETATM    3  C   UNK N   1      30.504  21.140  -8.643  0.00  0.00     0.025 C 
ENDROOT
BRANCH   1   4
HETATM    4  C   UNK N   1      28.151  21.310  -7.717  0.00  0.00    -0.045 A 
HETATM    5  C   UNK N   1      27.983  22.701  -7.607  0.00  0.00     0.019 A 
HETATM    6  C   UNK N   1      26.726  23.312  -7.792  0.00  0.00    -0.017 A 
HETATM    7  C   UNK N   1      25.618  22.484  -8.124  0.00  0.00     0.072 A 
HETATM    8  C   UNK N   1      25.785  21.101  -8.218  0.00  0.00     0.037 A 
HETATM    9  C   UNK N   1      27.032  20.518  -8.007  0.00  0.00     0.011 A 
BRANCH   6  10
HETATM   10  C   UNK N   1      26.642  24.831  -7.615  0.00  0.00    -0.021 C 
HETATM   11  C   UNK N   1      28.031  25.401  -7.382  0.00  0.00     0.019 C 
HETATM   12  C   UNK N   1      26.040  25.596  -8.782  0.00  0.00     0.019 C 
HETATM   13  C   UNK N   1      25.788  25.140  -6.398  0.00  0.00     0.019 C 
ENDBRANCH   6  10
BRANCH   7  14
HETATM   14  O   UNK N   1      24.393  22.991  -8.340  0.00  0.00    -0.360 OA
HETATM   15  H   UNK N   1      23.575  22.554  -8.477  0.00  0.00     0.217 HD
ENDBRANCH   7  14
ENDBRANCH   1   4
BRANCH   1  16
HETATM   16  C   UNK N   1      30.111  20.922  -6.206  0.00  0.00    -0.045 A 
HETATM   17  C   UNK N   1      31.171  20.133  -5.740  0.00  0.00     0.011 A 
HETATM   18  C   UNK N   1      31.691  20.325  -4.462  0.00  0.00     0.037 A 
HETATM   19  C   UNK N   1      31.190  21.331  -3.633  0.00  0.00     0.072 A 
HETATM   20  C   UNK N   1      30.144  22.177  -4.092  0.00  0.00    -0.017 A 
HETATM   21  C   UNK N   1      29.610  21.936  -5.375  0.00  0.00     0.019 A 
BRANCH  19  22
HETATM   22  O   UNK N   1      31.731  21.472  -2.410  0.00  0.00    -0.360 OA
HETATM   23  H   UNK N   1      31.679  20.925  -1.652  0.00  0.00     0.217 HD
ENDBRANCH  19  22
BRANCH  20  24
HETATM   24  C   UNK N   1      29.568  23.348  -3.293  0.00  0.00    -0.021 C 
HETATM   25  C   UNK N   1      28.304  23.857  -3.961  0.00  0.00     0.019 C 
HETATM   26  C   UNK N   1      30.585  24.477  -3.269  0.00  0.00     0.019 C 
HETATM   27  C   UNK N   1      29.218  23.046  -1.845  0.00  0.00     0.019 C 
ENDBRANCH  20  24
ENDBRANCH   1  16
TORSDOF 6
ENDMDL
MODEL 4
REMARK VINA RESULT:      -7.2     13.209     16.598
REMARK  6 active torsions:
REMARK  status: ('A' for Active; 'I' for Inactive)
REMARK    1  A    between atoms: C_2  and  C_5 
REMARK    2  A    between atoms: C_7  and  C_12 
REMARK    3  A    between atoms: C_10  and  O_11 
REMARK    4  A    between atoms: C_12  and  C_15 
REMARK    5  A    between atoms: C_18  and  O_25 
REMARK    6  A    between atoms: C_19  and  C_21 
ROOT
HETATM    1  C   UNK N   1      29.459  20.628  -7.693  0.00  0.00     0.007 C 
HETATM    2  C   UNK N   1      30.435  21.146  -8.749  0.00  0.00     0.025 C 
HETATM    3  C   UNK N   1      29.304  19.134  -7.977  0.00  0.00     0.025 C 
ENDROOT
BRANCH   1   4
HETATM    4  C   UNK N   1      30.063  20.896  -6.321  0.00  0.00    -0.045 A 
HETATM    5  C   UNK N   1      29.599  21.933  -5.494  0.00  0.00     0.019 A 
HETATM    6  C   UNK N   1      30.121  22.138  -4.200  0.00  0.00    -0.017 A 
HETATM    7  C   UNK N   1      31.124  21.245  -3.730  0.00  0.00     0.072 A 
HETATM    8  C   UNK N   1      31.593  20.225  -4.560  0.00  0.00     0.037 A 
HETATM    9  C   UNK N   1      31.079  20.057  -5.843  0.00  0.00     0.011 A 
BRANCH   6  10
HETATM   10  C   UNK N   1      29.573  23.318  -3.392  0.00  0.00    -0.021 C 
HETATM   11  C   UNK N   1      28.359  23.903  -4.092  0.00  0.00     0.019 C 
HETATM   12  C   UNK N   1      29.151  22.999  -1.967  0.00  0.00     0.019 C 
HETATM   13  C   UNK N   1      30.641  24.394  -3.305  0.00  0.00     0.019 C 
ENDBRANCH   6  10
BRANCH   7  14
HETATM   14  O   UNK N   1      31.655  21.357  -2.501  0.00  0.00    -0.360 OA
HETATM   15  H   UNK N   1      32.079  20.714  -1.967  0.00  0.00     0.217 HD
ENDBRANCH   7  14
ENDBRANCH   1   4
BRANCH   1  16
HETATM   16  C   UNK N   1      28.090  21.288  -7.815  0.00  0.00    -0.045 A 
HETATM   17  C   UNK N   1      26.952  20.493  -8.011  0.00  0.00     0.011 A 
HETATM   18  C   UNK N   1      25.700  21.077  -8.183  0.00  0.00     0.037 A 
HETATM   19  C   UNK N   1      25.546  22.464  -8.128  0.00  0.00     0.072 A 
HETATM   20  C   UNK N   1      26.674  23.296  -7.887  0.00  0.00    -0.017 A 
HETATM   21  C   UNK N   1      27.937  22.682  -7.754  0.00  0.00     0.019 A 
BRANCH  19  22
HETATM   22  O   UNK N   1      24.314  22.973  -8.299  0.00  0.00    -0.360 OA
HETATM   23  H   UNK N   1      23.567  22.972  -7.732  0.00  0.00     0.217 HD
ENDBRANCH  19  22
BRANCH  20  24
HETATM   24  C   UNK N   1      26.607  24.818  -7.742  0.00  0.00    -0.021 C 
HETATM   25  C   UNK N   1      28.003  25.379  -7.538  0.00  0.00     0.019 C 
HETATM   26  C   UNK N   1      25.770  25.163  -6.521  0.00  0.00     0.019 C 
HETATM   27  C   UNK N   1      25.993  25.563  -8.916  0.00  0.00     0.019 C 
ENDBRANCH  20  24
ENDBRANCH   1  16
TORSDOF 6
ENDMDL
MODEL 5
REMARK VINA RESULT:      -7.1      1.638      3.154
REMARK  6 active torsions:
REMARK  status: ('A' for Active; 'I' for Inactive)
REMARK    1  A    between atoms: C_2  and  C_5 
REMARK    2  A    between atoms: C_7  and  C_12 
REMARK    3  A    between atoms: C_10  and  O_11 
REMARK    4  A    between atoms: C_12  and  C_15 
REMARK    5  A    between atoms: C_18  and  O_25 
REMARK    6  A    between atoms: C_19  and  C_21 
ROOT
HETATM    1  C   UNK N   1      32.751  17.265   7.444  0.00  0.00     0.007 C 
HETATM    2  C   UNK N   1      32.853  17.269   5.920  0.00  0.00     0.025 C 
HETATM    3  C   UNK N   1      33.704  18.362   7.921  0.00  0.00     0.025 C 
ENDROOT
BRANCH   1   4
HETATM    4  C   UNK N   1      31.303  17.555   7.820  0.00  0.00    -0.045 A 
HETATM    5  C   UNK N   1      30.229  17.140   7.016  0.00  0.00     0.019 A 
HETATM    6  C   UNK N   1      28.889  17.357   7.399  0.00  0.00    -0.017 A 
HETATM    7  C   UNK N   1      28.642  17.992   8.648  0.00  0.00     0.072 A 
HETATM    8  C   UNK N   1      29.712  18.418   9.438  0.00  0.00     0.037 A 
HETATM    9  C   UNK N   1      31.026  18.212   9.026  0.00  0.00     0.011 A 
BRANCH   6  10
HETATM   10  C   UNK N   1      27.791  16.898   6.435  0.00  0.00    -0.021 C 
HETATM   11  C   UNK N   1      28.403  16.092   5.302  0.00  0.00     0.019 C 
HETATM   12  C   UNK N   1      26.696  16.039   7.048  0.00  0.00     0.019 C 
HETATM   13  C   UNK N   1      27.113  18.120   5.842  0.00  0.00     0.019 C 
ENDBRANCH   6  10
BRANCH   7  14
HETATM   14  O   UNK N   1      27.395  18.214   9.096  0.00  0.00    -0.360 OA
HETATM   15  H   UNK N   1      26.569  18.057   8.682  0.00  0.00     0.217 HD
ENDBRANCH   7  14
ENDBRANCH   1   4
BRANCH   1  16
HETATM   16  C   UNK N   1      33.204  15.938   8.040  0.00  0.00    -0.045 A 
HETATM   17  C   UNK N   1      32.735  14.736   7.492  0.00  0.00     0.011 A 
HETATM   18  C   UNK N   1      33.090  13.513   8.058  0.00  0.00     0.037 A 
HETATM   19  C   UNK N   1      33.947  13.458   9.158  0.00  0.00     0.072 A 
HETATM   20  C   UNK N   1      34.474  14.658   9.710  0.00  0.00    -0.017 A 
HETATM   21  C   UNK N   1      34.069  15.884   9.144  0.00  0.00     0.019 A 
BRANCH  19  22
HETATM   22  O   UNK N   1      34.257  12.250   9.661  0.00  0.00    -0.360 OA
HETATM   23  H   UNK N   1      35.088  11.847   9.816  0.00  0.00     0.217 HD
ENDBRANCH  19  22
BRANCH  20  24
HETATM   24  C   UNK N   1      35.471  14.707  10.871  0.00  0.00    -0.021 C 
HETATM   25  C   UNK N   1      35.682  16.146  11.308  0.00  0.00     0.019 C 
HETATM   26  C   UNK N   1      36.804  14.148  10.403  0.00  0.00     0.019 C 
HETATM   27  C   UNK N   1      35.077  13.917  12.108  0.00  0.00     0.019 C 
ENDBRANCH  20  24
ENDBRANCH   1  16
TORSDOF 6
ENDMDL
MODEL 6
REMARK VINA RESULT:      -7.0      1.633      6.580
REMARK  6 active torsions:
REMARK  status: ('A' for Active; 'I' for Inactive)
REMARK    1  A    between atoms: C_2  and  C_5 
REMARK    2  A    between atoms: C_7  and  C_12 
REMARK    3  A    between atoms: C_10  and  O_11 
REMARK    4  A    between atoms: C_12  and  C_15 
REMARK    5  A    between atoms: C_18  and  O_25 
REMARK    6  A    between atoms: C_19  and  C_21 
ROOT
HETATM    1  C   UNK N   1      32.748  17.257   7.429  0.00  0.00     0.007 C 
HETATM    2  C   UNK N   1      33.690  18.360   7.907  0.00  0.00     0.025 C 
HETATM    3  C   UNK N   1      32.844  17.270   5.902  0.00  0.00     0.025 C 
ENDROOT
BRANCH   1   4
HETATM    4  C   UNK N   1      33.224  15.939   8.026  0.00  0.00    -0.045 A 
HETATM    5  C   UNK N   1      34.104  15.893   9.120  0.00  0.00     0.019 A 
HETATM    6  C   UNK N   1      34.493  14.671   9.707  0.00  0.00    -0.017 A 
HETATM    7  C   UNK N   1      33.949  13.468   9.179  0.00  0.00     0.072 A 
HETATM    8  C   UNK N   1      33.086  13.516   8.082  0.00  0.00     0.037 A 
HETATM    9  C   UNK N   1      32.735  14.733   7.504  0.00  0.00     0.011 A 
BRANCH   6  10
HETATM   10  C   UNK N   1      35.485  14.728  10.872  0.00  0.00    -0.021 C 
HETATM   11  C   UNK N   1      35.691  16.169  11.305  0.00  0.00     0.019 C 
HETATM   12  C   UNK N   1      35.086  13.946  12.113  0.00  0.00     0.019 C 
HETATM   13  C   UNK N   1      36.821  14.172  10.412  0.00  0.00     0.019 C 
ENDBRANCH   6  10
BRANCH   7  14
HETATM   14  O   UNK N   1      34.251  12.266   9.696  0.00  0.00    -0.360 OA
HETATM   15  H   UNK N   1      34.631  12.045  10.524  0.00  0.00     0.217 HD
ENDBRANCH   7  14
ENDBRANCH   1   4
BRANCH   1  16
HETATM   16  C   UNK N   1      31.302  17.533   7.824  0.00  0.00    -0.045 A 
HETATM   17  C   UNK N   1      31.029  18.220   9.015  0.00  0.00     0.011 A 
HETATM   18  C   UNK N   1      29.714  18.432   9.426  0.00  0.00     0.037 A 
HETATM   19  C   UNK N   1      28.643  17.997   8.642  0.00  0.00     0.072 A 
HETATM   20  C   UNK N   1      28.888  17.336   7.407  0.00  0.00    -0.017 A 
HETATM   21  C   UNK N   1      30.227  17.100   7.033  0.00  0.00     0.019 A 
BRANCH  19  22
HETATM   22  O   UNK N   1      27.397  18.231   9.087  0.00  0.00    -0.360 OA
HETATM   23  H   UNK N   1      26.597  18.370   8.620  0.00  0.00     0.217 HD
ENDBRANCH  19  22
BRANCH  20  24
HETATM   24  C   UNK N   1      27.791  16.879   6.443  0.00  0.00    -0.021 C 
HETATM   25  C   UNK N   1      28.403  16.081   5.306  0.00  0.00     0.019 C 
HETATM   26  C   UNK N   1      27.107  18.102   5.855  0.00  0.00     0.019 C 
HETATM   27  C   UNK N   1      26.696  16.019   7.054  0.00  0.00     0.019 C 
ENDBRANCH  20  24
ENDBRANCH   1  16
TORSDOF 6
ENDMDL
MODEL 7
REMARK VINA RESULT:      -6.8      9.896     14.168
REMARK  6 active torsions:
REMARK  status: ('A' for Active; 'I' for Inactive)
REMARK    1  A    between atoms: C_2  and  C_5 
REMARK    2  A    between atoms: C_7  and  C_12 
REMARK    3  A    between atoms: C_10  and  O_11 
REMARK    4  A    between atoms: C_12  and  C_15 
REMARK    5  A    between atoms: C_18  and  O_25 
REMARK    6  A    between atoms: C_19  and  C_21 
ROOT
HETATM    1  C   UNK N   1      35.976   9.808  19.518  0.00  0.00     0.007 C 
HETATM    2  C   UNK N   1      37.065  10.403  20.410  0.00  0.00     0.025 C 
HETATM    3  C   UNK N   1      36.575   8.526  18.940  0.00  0.00     0.025 C 
ENDROOT
BRANCH   1   4
HETATM    4  C   UNK N   1      34.754   9.535  20.385  0.00  0.00    -0.045 A 
HETATM    5  C   UNK N   1      33.833   8.521  20.074  0.00  0.00     0.019 A 
HETATM    6  C   UNK N   1      32.737   8.233  20.914  0.00  0.00    -0.017 A 
HETATM    7  C   UNK N   1      32.594   8.983  22.114  0.00  0.00     0.072 A 
HETATM    8  C   UNK N   1      33.502  10.000  22.413  0.00  0.00     0.037 A 
HETATM    9  C   UNK N   1      34.563  10.282  21.556  0.00  0.00     0.011 A 
BRANCH   6  10
HETATM   10  C   UNK N   1      31.771   7.132  20.467  0.00  0.00    -0.021 C 
HETATM   11  C   UNK N   1      32.381   6.344  19.321  0.00  0.00     0.019 C 
HETATM   12  C   UNK N   1      31.380   6.126  21.538  0.00  0.00     0.019 C 
HETATM   13  C   UNK N   1      30.485   7.773  19.975  0.00  0.00     0.019 C 
ENDBRANCH   6  10
BRANCH   7  14
HETATM   14  O   UNK N   1      31.591   8.754  22.978  0.00  0.00    -0.360 OA
HETATM   15  H   UNK N   1      30.892   8.131  22.938  0.00  0.00     0.217 HD
ENDBRANCH   7  14
ENDBRANCH   1   4
BRANCH   1  16
HETATM   16  C   UNK N   1      35.617  10.737  18.364  0.00  0.00    -0.045 A 
HETATM   17  C   UNK N   1      35.398  12.099  18.612  0.00  0.00     0.011 A 
HETATM   18  C   UNK N   1      35.011  12.954  17.583  0.00  0.00     0.037 A 
HETATM   19  C   UNK N   1      34.871  12.481  16.277  0.00  0.00     0.072 A 
HETATM   20  C   UNK N   1      35.129  11.113  15.984  0.00  0.00    -0.017 A 
HETATM   21  C   UNK N   1      35.481  10.260  17.051  0.00  0.00     0.019 A 
BRANCH  19  22
HETATM   22  O   UNK N   1      34.497  13.352  15.324  0.00  0.00    -0.360 OA
HETATM   23  H   UNK N   1      34.004  13.224  14.537  0.00  0.00     0.217 HD
ENDBRANCH  19  22
BRANCH  20  24
HETATM   24  C   UNK N   1      35.068  10.506  14.580  0.00  0.00    -0.021 C 
HETATM   25  C   UNK N   1      33.654  10.601  14.038  0.00  0.00     0.019 C 
HETATM   26  C   UNK N   1      35.453   9.038  14.660  0.00  0.00     0.019 C 
HETATM   27  C   UNK N   1      35.987  11.142  13.550  0.00  0.00     0.019 C 
ENDBRANCH  20  24
ENDBRANCH   1  16
TORSDOF 6
ENDMDL
MODEL 8
REMARK VINA RESULT:      -6.7     10.123     14.406
REMARK  6 active torsions:
REMARK  status: ('A' for Active; 'I' for Inactive)
REMARK    1  A    between atoms: C_2  and  C_5 
REMARK    2  A    between atoms: C_7  and  C_12 
REMARK    3  A    between atoms: C_10  and  O_11 
REMARK    4  A    between atoms: C_12  and  C_15 
REMARK    5  A    between atoms: C_18  and  O_25 
REMARK    6  A    between atoms: C_19  and  C_21 
ROOT
HETATM    1  C   UNK N   1      36.102   9.784  19.875  0.00  0.00     0.007 C 
HETATM    2  C   UNK N   1      36.759   8.548  19.262  0.00  0.00     0.025 C 
HETATM    3  C   UNK N   1      37.158  10.393  20.798  0.00  0.00     0.025 C 
ENDROOT
BRANCH   1   4
HETATM    4  C   UNK N   1      35.715  10.724  18.740  0.00  0.00    -0.045 A 
HETATM    5  C   UNK N   1      35.550  10.269  17.421  0.00  0.00     0.019 A 
HETATM    6  C   UNK N   1      35.132  11.132  16.387  0.00  0.00    -0.017 A 
HETATM    7  C   UNK N   1      34.853  12.488  16.714  0.00  0.00     0.072 A 
HETATM    8  C   UNK N   1      35.033  12.940  18.023  0.00  0.00     0.037 A 
HETATM    9  C   UNK N   1      35.469  12.074  19.022  0.00  0.00     0.011 A 
BRANCH   6  10
HETATM   10  C   UNK N   1      35.017  10.546  14.977  0.00  0.00    -0.021 C 
HETATM   11  C   UNK N   1      35.350   9.064  15.005  0.00  0.00     0.019 C 
HETATM   12  C   UNK N   1      33.653  10.681  14.319  0.00  0.00     0.019 C 
HETATM   13  C   UNK N   1      36.015  11.243  14.069  0.00  0.00     0.019 C 
ENDBRANCH   6  10
BRANCH   7  14
HETATM   14  O   UNK N   1      34.429  13.367  15.792  0.00  0.00    -0.360 OA
HETATM   15  H   UNK N   1      34.417  14.304  15.813  0.00  0.00     0.217 HD
ENDBRANCH   7  14
ENDBRANCH   1   4
BRANCH   1  16
HETATM   16  C   UNK N   1      34.880   9.422  20.711  0.00  0.00    -0.045 A 
HETATM   17  C   UNK N   1      34.679  10.044  21.950  0.00  0.00     0.011 A 
HETATM   18  C   UNK N   1      33.601   9.685  22.758  0.00  0.00     0.037 A 
HETATM   19  C   UNK N   1      32.679   8.727  22.332  0.00  0.00     0.072 A 
HETATM   20  C   UNK N   1      32.831   8.109  21.060  0.00  0.00    -0.017 A 
HETATM   21  C   UNK N   1      33.952   8.461  20.280  0.00  0.00     0.019 A 
BRANCH  19  22
HETATM   22  O   UNK N   1      31.658   8.422  23.151  0.00  0.00    -0.360 OA
HETATM   23  H   UNK N   1      31.550   8.561  24.071  0.00  0.00     0.217 HD
ENDBRANCH  19  22
BRANCH  20  24
HETATM   24  C   UNK N   1      31.845   7.097  20.470  0.00  0.00    -0.021 C 
HETATM   25  C   UNK N   1      32.477   6.395  19.282  0.00  0.00     0.019 C 
HETATM   26  C   UNK N   1      30.608   7.836  19.987  0.00  0.00     0.019 C 
HETATM   27  C   UNK N   1      31.364   6.017  21.425  0.00  0.00     0.019 C 
ENDBRANCH  20  24
ENDBRANCH   1  16
TORSDOF 6
ENDMDL
MODEL 9
REMARK VINA RESULT:      -6.7      6.369     10.462
REMARK  6 active torsions:
REMARK  status: ('A' for Active; 'I' for Inactive)
REMARK    1  A    between atoms: C_2  and  C_5 
REMARK    2  A    between atoms: C_7  and  C_12 
REMARK    3  A    between atoms: C_10  and  O_11 
REMARK    4  A    between atoms: C_12  and  C_15 
REMARK    5  A    between atoms: C_18  and  O_25 
REMARK    6  A    between atoms: C_19  and  C_21 
ROOT
HETATM    1  C   UNK N   1      34.990  11.265  14.952  0.00  0.00     0.007 C 
HETATM    2  C   UNK N   1      33.569  10.846  14.577  0.00  0.00     0.025 C 
HETATM    3  C   UNK N   1      35.850  10.015  14.757  0.00  0.00     0.025 C 
ENDROOT
BRANCH   1   4
HETATM    4  C   UNK N   1      35.406  12.401  14.027  0.00  0.00    -0.045 A 
HETATM    5  C   UNK N   1      35.032  12.433  12.673  0.00  0.00     0.019 A 
HETATM    6  C   UNK N   1      35.368  13.518  11.838  0.00  0.00    -0.017 A 
HETATM    7  C   UNK N   1      36.083  14.609  12.406  0.00  0.00     0.072 A 
HETATM    8  C   UNK N   1      36.467  14.567  13.748  0.00  0.00     0.037 A 
HETATM    9  C   UNK N   1      36.143  13.474  14.547  0.00  0.00     0.011 A 
BRANCH   6  10
HETATM   10  C   UNK N   1      34.944  13.440  10.368  0.00  0.00    -0.021 C 
HETATM   11  C   UNK N   1      33.880  14.486  10.082  0.00  0.00     0.019 C 
HETATM   12  C   UNK N   1      36.055  13.650   9.352  0.00  0.00     0.019 C 
HETATM   13  C   UNK N   1      34.352  12.068  10.098  0.00  0.00     0.019 C 
ENDBRANCH   6  10
BRANCH   7  14
HETATM   14  O   UNK N   1      36.420  15.690  11.683  0.00  0.00    -0.360 OA
HETATM   15  H   UNK N   1      35.878  16.297  11.219  0.00  0.00     0.217 HD
ENDBRANCH   7  14
ENDBRANCH   1   4
BRANCH   1  16
HETATM   16  C   UNK N   1      35.089  11.697  16.410  0.00  0.00    -0.045 A 
HETATM   17  C   UNK N   1      34.818  13.027  16.759  0.00  0.00     0.011 A 
HETATM   18  C   UNK N   1      34.959  13.458  18.076  0.00  0.00     0.037 A 
HETATM   19  C   UNK N   1      35.337  12.565  19.082  0.00  0.00     0.072 A 
HETATM   20  C   UNK N   1      35.576  11.199  18.768  0.00  0.00    -0.017 A 
HETATM   21  C   UNK N   1      35.464  10.797  17.420  0.00  0.00     0.019 A 
BRANCH  19  22
HETATM   22  O   UNK N   1      35.455  13.036  20.335  0.00  0.00    -0.360 OA
HETATM   23  H   UNK N   1      35.132  12.700  21.148  0.00  0.00     0.217 HD
ENDBRANCH  19  22
BRANCH  20  24
HETATM   24  C   UNK N   1      35.929  10.126  19.801  0.00  0.00    -0.021 C 
HETATM   25  C   UNK N   1      36.203   8.807  19.101  0.00  0.00     0.019 C 
HETATM   26  C   UNK N   1      34.749   9.935  20.738  0.00  0.00     0.019 C 
HETATM   27  C   UNK N   1      37.136  10.429  20.674  0.00  0.00     0.019 C 
ENDBRANCH  20  24
ENDBRANCH   1  16
TORSDOF 6
ENDMDL
