MODEL 1
REMARK VINA RESULT:     -10.0      0.000      0.000
REMARK  12 active torsions:
REMARK  status: ('A' for Active; 'I' for Inactive)
REMARK    1  A    between atoms: C_2  and  C_4 
REMARK    2  A    between atoms: C_4  and  C_5 
REMARK    3  A    between atoms: C_4  and  N_72 
REMARK       I    between atoms: C_5  and  N_7 
REMARK    4  A    between atoms: C_15  and  C_16 
REMARK    5  A    between atoms: C_20  and  C_26 
REMARK    6  A    between atoms: C_38  and  C_40 
REMARK    7  A    between atoms: C_50  and  C_47 
REMARK       I    between atoms: N_58  and  C_59 
REMARK    8  A    between atoms: C_59  and  C_61 
REMARK    9  A    between atoms: C_61  and  C_62 
REMARK   10  A    between atoms: C_61  and  N_65 
REMARK       I    between atoms: N_65  and  C_66 
REMARK   11  A    between atoms: C_66  and  O_68 
REMARK       I    between atoms: N_72  and  C_73 
REMARK   12  A    between atoms: C_73  and  O_75 
ROOT
HETATM    1  C   UNK N   1      30.992  17.065   6.307  0.00  0.00    -0.019 C 
HETATM    2  C   UNK N   1      31.017  16.534   7.592  0.00  0.00     0.020 C 
HETATM    3  C   UNK N   1      32.208  16.572   8.327  0.00  0.00    -0.057 C 
HETATM    4  C   UNK N   1      33.328  17.249   7.825  0.00  0.00     0.007 C 
HETATM    5  C   UNK N   1      33.327  17.732   6.519  0.00  0.00     0.008 C 
HETATM    6  C   UNK N   1      32.202  17.551   5.721  0.00  0.00    -0.047 C 
HETATM    7  C   UNK N   1      32.374  17.648   4.184  0.00  0.00     0.044 C 
HETATM    8  C   UNK N   1      32.210  16.263   3.411  0.00  0.00     0.043 C 
HETATM    9  C   UNK N   1      32.557  15.111   4.308  0.00  0.00    -0.057 C 
HETATM   10  C   UNK N   1      31.516  14.414   4.920  0.00  0.00     0.007 C 
HETATM   11  C   UNK N   1      31.643  13.976   6.234  0.00  0.00     0.008 C 
HETATM   12  C   UNK N   1      32.807  14.253   6.948  0.00  0.00    -0.051 C 
HETATM   13  C   UNK N   1      33.951  14.777   6.227  0.00  0.00    -0.040 C 
HETATM   14  C   UNK N   1      33.798  15.176   4.911  0.00  0.00     0.015 C 
HETATM   15  C   UNK N   1      32.710  14.085   8.473  0.00  0.00     0.043 C 
HETATM   16  C   UNK N   1      32.462  15.434   9.270  0.00  0.00     0.043 C 
ENDROOT
BRANCH   1  17
HETATM   17  C   UNK N   1      29.815  17.003   5.454  0.00  0.00    -0.023 A 
HETATM   18  C   UNK N   1      28.893  16.090   5.904  0.00  0.00     0.044 A 
HETATM   19  C   UNK N   1      27.633  16.200   5.497  0.00  0.00     0.061 A 
HETATM   20  N   UNK N   1      26.660  15.423   5.896  0.00  0.00    -0.342 N 
HETATM   21  C   UNK N   1      27.190  17.148   4.643  0.00  0.00     0.060 A 
HETATM   22  C   UNK N   1      25.595  15.901   5.256  0.00  0.00     0.105 A 
HETATM   23  H   UNK N   1      26.705  14.663   6.520  0.00  0.00     0.167 HD
HETATM   24  N   UNK N   1      25.866  16.980   4.462  0.00  0.00    -0.342 N 
ATOM     25  HN  UNK N   1      25.227  17.522   3.880  1.00  0.00     0.167 HD
HETATM   26  C   UNK N   1      28.085  18.059   4.060  0.00  0.00     0.033 A 
HETATM   27  C   UNK N   1      29.445  17.980   4.481  0.00  0.00     0.014 A 
BRANCH  22  28
HETATM   28  C   UNK N   1      24.371  15.125   5.338  0.00  0.00     0.156 C 
HETATM   29  C   UNK N   1      23.143  15.807   5.914  0.00  0.00     0.040 C 
HETATM   30  C   UNK N   1      22.172  15.649   4.775  0.00  0.00     0.011 C 
HETATM   31  C   UNK N   1      20.690  15.704   5.066  0.00  0.00     0.007 C 
HETATM   32  C   UNK N   1      22.544  14.367   4.055  0.00  0.00     0.092 C 
HETATM   33  C   UNK N   1      19.976  15.717   3.710  0.00  0.00     0.001 C 
HETATM   34  C   UNK N   1      20.439  14.567   2.792  0.00  0.00     0.002 C 
HETATM   35  C   UNK N   1      21.969  14.519   2.658  0.00  0.00     0.026 C 
HETATM   36  N   UNK N   1      23.975  14.395   4.156  0.00  0.00    -0.334 N 
HETATM   37  C   UNK N   1      24.822  13.667   3.337  0.00  0.00     0.244 C 
HETATM   38  O   UNK N   1      24.346  12.908   2.506  0.00  0.00    -0.271 OA
BRANCH  37  39
HETATM   39  C   UNK N   1      26.339  13.890   3.314  0.00  0.00     0.182 C 
BRANCH  39  40
HETATM   40  C   UNK N   1      26.724  14.499   1.939  0.00  0.00     0.009 C 
HETATM   41  C   UNK N   1      28.175  14.934   1.839  0.00  0.00     0.012 C 
HETATM   42  C   UNK N   1      25.837  15.656   1.504  0.00  0.00     0.012 C 
ENDBRANCH  39  40
BRANCH  39  43
HETATM   43  N   UNK N   1      27.093  12.665   3.520  0.00  0.00    -0.323 N 
HETATM   44  C   UNK N   1      27.181  12.067   4.745  0.00  0.00     0.360 C 
HETATM   45  O   UNK N   1      26.534  12.496   5.690  0.00  0.00    -0.239 OA
HETATM   46  H   UNK N   1      27.554  12.254   2.754  0.00  0.00     0.165 HD
BRANCH  44  47
HETATM   47  O   UNK N   1      28.006  11.011   4.942  0.00  0.00    -0.309 OA
HETATM   48  C   UNK N   1      29.327  11.025   4.568  0.00  0.00     0.215 C 
ENDBRANCH  44  47
ENDBRANCH  39  43
ENDBRANCH  37  39
ENDBRANCH  22  28
ENDBRANCH   1  17
BRANCH  13  49
HETATM   49  C   UNK N   1      35.298  14.889   6.795  0.00  0.00     0.066 C 
HETATM   50  C   UNK N   1      36.220  14.513   5.785  0.00  0.00    -0.011 C 
HETATM   51  C   UNK N   1      36.925  13.316   5.912  0.00  0.00     0.029 C 
HETATM   52  C   UNK N   1      36.720  12.613   7.086  0.00  0.00     0.060 A 
HETATM   53  C   UNK N   1      36.055  13.131   8.141  0.00  0.00     0.057 A 
HETATM   54  N   UNK N   1      37.098  11.381   7.363  0.00  0.00    -0.342 N 
HETATM   55  C   UNK N   1      35.395  14.314   8.063  0.00  0.00     0.018 C 
HETATM   56  N   UNK N   1      36.007  12.249   9.140  0.00  0.00    -0.343 N 
HETATM   57  C   UNK N   1      36.642  11.172   8.624  0.00  0.00     0.105 A 
HETATM   58  H   UNK N   1      35.607  12.354  10.032  0.00  0.00     0.167 HD
ATOM     59  HN  UNK N   1      37.614  10.734   6.767  1.00  0.00     0.167 HD
BRANCH  57  60
HETATM   60  C   UNK N   1      37.058   9.976   9.417  0.00  0.00     0.156 C 
HETATM   61  C   UNK N   1      36.093   8.814   9.176  0.00  0.00     0.040 C 
HETATM   62  C   UNK N   1      34.943   9.150  10.111  0.00  0.00     0.011 C 
HETATM   63  C   UNK N   1      33.997   7.985  10.406  0.00  0.00     0.007 C 
HETATM   64  C   UNK N   1      35.608   9.792  11.338  0.00  0.00     0.092 C 
HETATM   65  C   UNK N   1      34.642   6.977  11.344  0.00  0.00     0.001 C 
HETATM   66  C   UNK N   1      35.040   7.681  12.631  0.00  0.00     0.002 C 
HETATM   67  C   UNK N   1      36.104   8.719  12.319  0.00  0.00     0.026 C 
HETATM   68  N   UNK N   1      36.793  10.384  10.775  0.00  0.00    -0.334 N 
HETATM   69  C   UNK N   1      37.506  11.401  11.358  0.00  0.00     0.244 C 
HETATM   70  O   UNK N   1      38.584  11.740  10.885  0.00  0.00    -0.271 OA
BRANCH  69  71
HETATM   71  C   UNK N   1      36.906  12.268  12.430  0.00  0.00     0.182 C 
BRANCH  71  72
HETATM   72  C   UNK N   1      36.945  11.864  13.893  0.00  0.00     0.009 C 
HETATM   73  C   UNK N   1      36.872  13.069  14.811  0.00  0.00     0.012 C 
HETATM   74  C   UNK N   1      38.183  11.045  14.176  0.00  0.00     0.012 C 
ENDBRANCH  71  72
BRANCH  71  75
HETATM   75  N   UNK N   1      37.048  13.690  12.142  0.00  0.00    -0.323 N 
HETATM   76  C   UNK N   1      36.040  14.497  11.717  0.00  0.00     0.360 C 
HETATM   77  O   UNK N   1      34.927  14.038  11.501  0.00  0.00    -0.239 OA
HETATM   78  H   UNK N   1      37.937  14.095  12.263  0.00  0.00     0.165 HD
BRANCH  76  79
HETATM   79  O   UNK N   1      36.280  15.820  11.536  0.00  0.00    -0.309 OA
HETATM   80  C   UNK N   1      35.364  16.662  10.946  0.00  0.00     0.215 C 
ENDBRANCH  76  79
ENDBRANCH  71  75
ENDBRANCH  69  71
ENDBRANCH  57  60
ENDBRANCH  13  49
TORSDOF 12
ENDMDL
MODEL 2
REMARK VINA RESULT:      -9.7      5.950     14.540
REMARK  12 active torsions:
REMARK  status: ('A' for Active; 'I' for Inactive)
REMARK    1  A    between atoms: C_2  and  C_4 
REMARK    2  A    between atoms: C_4  and  C_5 
REMARK    3  A    between atoms: C_4  and  N_72 
REMARK       I    between atoms: C_5  and  N_7 
REMARK    4  A    between atoms: C_15  and  C_16 
REMARK    5  A    between atoms: C_20  and  C_26 
REMARK    6  A    between atoms: C_38  and  C_40 
REMARK    7  A    between atoms: C_50  and  C_47 
REMARK       I    between atoms: N_58  and  C_59 
REMARK    8  A    between atoms: C_59  and  C_61 
REMARK    9  A    between atoms: C_61  and  C_62 
REMARK   10  A    between atoms: C_61  and  N_65 
REMARK       I    between atoms: N_65  and  C_66 
REMARK   11  A    between atoms: C_66  and  O_68 
REMARK       I    between atoms: N_72  and  C_73 
REMARK   12  A    between atoms: C_73  and  O_75 
ROOT
HETATM    1  C   UNK N   1      36.454  10.414  15.665  0.00  0.00    -0.019 C 
HETATM    2  C   UNK N   1      36.416   9.185  15.014  0.00  0.00     0.020 C 
HETATM    3  C   UNK N   1      37.133   9.018  13.823  0.00  0.00    -0.057 C 
HETATM    4  C   UNK N   1      37.979  10.033  13.357  0.00  0.00     0.007 C 
HETATM    5  C   UNK N   1      37.978  11.283  13.971  0.00  0.00     0.008 C 
HETATM    6  C   UNK N   1      37.142  11.512  15.059  0.00  0.00    -0.047 C 
HETATM    7  C   UNK N   1      36.795  12.979  15.417  0.00  0.00     0.044 C 
HETATM    8  C   UNK N   1      35.280  13.389  15.134  0.00  0.00     0.043 C 
HETATM    9  C   UNK N   1      34.698  12.544  14.039  0.00  0.00    -0.057 C 
HETATM   10  C   UNK N   1      33.899  11.459  14.397  0.00  0.00     0.007 C 
HETATM   11  C   UNK N   1      33.990  10.260  13.696  0.00  0.00     0.008 C 
HETATM   12  C   UNK N   1      34.897  10.138  12.646  0.00  0.00    -0.051 C 
HETATM   13  C   UNK N   1      35.548  11.336  12.154  0.00  0.00    -0.040 C 
HETATM   14  C   UNK N   1      35.414  12.520  12.859  0.00  0.00     0.015 C 
HETATM   15  C   UNK N   1      35.206   8.701  12.196  0.00  0.00     0.043 C 
HETATM   16  C   UNK N   1      36.542   8.095  12.798  0.00  0.00     0.043 C 
ENDROOT
BRANCH   1  17
HETATM   17  C   UNK N   1      35.685  10.690  16.868  0.00  0.00    -0.023 A 
HETATM   18  C   UNK N   1      35.098   9.559  17.381  0.00  0.00     0.044 A 
HETATM   19  C   UNK N   1      34.720   9.557  18.655  0.00  0.00     0.061 A 
HETATM   20  N   UNK N   1      34.198   8.526  19.267  0.00  0.00    -0.342 N 
HETATM   21  C   UNK N   1      34.854  10.610  19.489  0.00  0.00     0.060 A 
HETATM   22  C   UNK N   1      33.995   8.966  20.506  0.00  0.00     0.105 A 
HETATM   23  H   UNK N   1      34.000   7.635  18.897  0.00  0.00     0.167 HD
HETATM   24  N   UNK N   1      34.389  10.261  20.703  0.00  0.00    -0.342 N 
ATOM     25  HN  UNK N   1      34.343  10.819  21.556  1.00  0.00     0.167 HD
HETATM   26  C   UNK N   1      35.353  11.836  19.019  0.00  0.00     0.033 A 
HETATM   27  C   UNK N   1      35.781  11.874  17.660  0.00  0.00     0.014 A 
BRANCH  22  28
HETATM   28  C   UNK N   1      33.238   8.107  21.398  0.00  0.00     0.156 C 
HETATM   29  C   UNK N   1      31.811   7.768  21.006  0.00  0.00     0.040 C 
HETATM   30  C   UNK N   1      31.875   6.265  20.977  0.00  0.00     0.011 C 
HETATM   31  C   UNK N   1      30.597   5.477  21.146  0.00  0.00     0.007 C 
HETATM   32  C   UNK N   1      32.917   5.850  21.998  0.00  0.00     0.092 C 
HETATM   33  C   UNK N   1      30.946   4.009  20.873  0.00  0.00     0.001 C 
HETATM   34  C   UNK N   1      32.150   3.527  21.709  0.00  0.00     0.002 C 
HETATM   35  C   UNK N   1      33.360   4.462  21.567  0.00  0.00     0.026 C 
HETATM   36  N   UNK N   1      33.886   6.898  21.851  0.00  0.00    -0.334 N 
HETATM   37  C   UNK N   1      35.203   6.795  22.266  0.00  0.00     0.244 C 
HETATM   38  O   UNK N   1      35.573   5.783  22.842  0.00  0.00    -0.271 OA
BRANCH  37  39
HETATM   39  C   UNK N   1      36.267   7.834  21.892  0.00  0.00     0.182 C 
BRANCH  39  40
HETATM   40  C   UNK N   1      37.305   7.156  20.957  0.00  0.00     0.009 C 
HETATM   41  C   UNK N   1      38.532   6.623  21.676  0.00  0.00     0.012 C 
HETATM   42  C   UNK N   1      37.760   8.031  19.799  0.00  0.00     0.012 C 
ENDBRANCH  39  40
BRANCH  39  43
HETATM   43  N   UNK N   1      36.956   8.380  23.050  0.00  0.00    -0.323 N 
HETATM   44  C   UNK N   1      37.369   9.681  23.097  0.00  0.00     0.360 C 
HETATM   45  O   UNK N   1      37.077  10.456  22.198  0.00  0.00    -0.239 OA
HETATM   46  H   UNK N   1      37.129   7.795  23.822  0.00  0.00     0.165 HD
BRANCH  44  47
HETATM   47  O   UNK N   1      38.135  10.127  24.122  0.00  0.00    -0.309 OA
HETATM   48  C   UNK N   1      39.215  10.954  23.932  0.00  0.00     0.215 C 
ENDBRANCH  44  47
ENDBRANCH  39  43
ENDBRANCH  37  39
ENDBRANCH  22  28
ENDBRANCH   1  17
BRANCH  13  49
HETATM   49  C   UNK N   1      36.333  11.394  10.917  0.00  0.00     0.066 C 
HETATM   50  C   UNK N   1      36.843  12.712  10.795  0.00  0.00    -0.011 C 
HETATM   51  C   UNK N   1      36.342  13.550   9.799  0.00  0.00     0.029 C 
HETATM   52  C   UNK N   1      35.421  12.984   8.935  0.00  0.00     0.060 A 
HETATM   53  C   UNK N   1      35.167  11.658   8.906  0.00  0.00     0.057 A 
HETATM   54  N   UNK N   1      34.659  13.600   8.054  0.00  0.00    -0.342 N 
HETATM   55  C   UNK N   1      35.674  10.809   9.835  0.00  0.00     0.018 C 
HETATM   56  N   UNK N   1      34.247  11.380   7.982  0.00  0.00    -0.343 N 
HETATM   57  C   UNK N   1      33.938  12.600   7.485  0.00  0.00     0.105 A 
HETATM   58  H   UNK N   1      33.880  10.505   7.724  0.00  0.00     0.167 HD
ATOM     59  HN  UNK N   1      34.621  14.598   7.846  1.00  0.00     0.167 HD
BRANCH  57  60
HETATM   60  C   UNK N   1      33.111  12.831   6.262  0.00  0.00     0.156 C 
HETATM   61  C   UNK N   1      33.892  12.440   5.008  0.00  0.00     0.040 C 
HETATM   62  C   UNK N   1      34.754  13.668   4.769  0.00  0.00     0.011 C 
HETATM   63  C   UNK N   1      35.359  13.763   3.367  0.00  0.00     0.007 C 
HETATM   64  C   UNK N   1      33.876  14.854   5.193  0.00  0.00     0.092 C 
HETATM   65  C   UNK N   1      34.305  14.137   2.337  0.00  0.00     0.001 C 
HETATM   66  C   UNK N   1      33.671  15.459   2.735  0.00  0.00     0.002 C 
HETATM   67  C   UNK N   1      32.938  15.281   4.054  0.00  0.00     0.026 C 
HETATM   68  N   UNK N   1      33.028  14.269   6.199  0.00  0.00    -0.334 N 
HETATM   69  C   UNK N   1      32.358  14.981   7.162  0.00  0.00     0.244 C 
HETATM   70  O   UNK N   1      31.541  14.418   7.880  0.00  0.00    -0.271 OA
BRANCH  69  71
HETATM   71  C   UNK N   1      32.753  16.388   7.516  0.00  0.00     0.182 C 
BRANCH  71  72
HETATM   72  C   UNK N   1      31.791  17.551   7.345  0.00  0.00     0.009 C 
HETATM   73  C   UNK N   1      31.082  17.890   8.642  0.00  0.00     0.012 C 
HETATM   74  C   UNK N   1      30.795  17.247   6.250  0.00  0.00     0.012 C 
ENDBRANCH  71  72
BRANCH  71  75
HETATM   75  N   UNK N   1      33.644  16.443   8.668  0.00  0.00    -0.323 N 
HETATM   76  C   UNK N   1      34.645  17.349   8.828  0.00  0.00     0.360 C 
HETATM   77  O   UNK N   1      34.887  18.168   7.953  0.00  0.00    -0.239 OA
HETATM   78  H   UNK N   1      33.513  15.777   9.381  0.00  0.00     0.165 HD
BRANCH  76  79
HETATM   79  O   UNK N   1      35.375  17.337   9.973  0.00  0.00    -0.309 OA
HETATM   80  C   UNK N   1      35.171  16.407  10.967  0.00  0.00     0.215 C 
ENDBRANCH  76  79
ENDBRANCH  71  75
ENDBRANCH  69  71
ENDBRANCH  57  60
ENDBRANCH  13  49
TORSDOF 12
ENDMDL
MODEL 3
REMARK VINA RESULT:      -9.6      6.248     14.785
REMARK  12 active torsions:
REMARK  status: ('A' for Active; 'I' for Inactive)
REMARK    1  A    between atoms: C_2  and  C_4 
REMARK    2  A    between atoms: C_4  and  C_5 
REMARK    3  A    between atoms: C_4  and  N_72 
REMARK       I    between atoms: C_5  and  N_7 
REMARK    4  A    between atoms: C_15  and  C_16 
REMARK    5  A    between atoms: C_20  and  C_26 
REMARK    6  A    between atoms: C_38  and  C_40 
REMARK    7  A    between atoms: C_50  and  C_47 
REMARK       I    between atoms: N_58  and  C_59 
REMARK    8  A    between atoms: C_59  and  C_61 
REMARK    9  A    between atoms: C_61  and  C_62 
REMARK   10  A    between atoms: C_61  and  N_65 
REMARK       I    between atoms: N_65  and  C_66 
REMARK   11  A    between atoms: C_66  and  O_68 
REMARK       I    between atoms: N_72  and  C_73 
REMARK   12  A    between atoms: C_73  and  O_75 
ROOT
HETATM    1  C   UNK N   1      36.340  10.397  15.837  0.00  0.00    -0.019 C 
HETATM    2  C   UNK N   1      36.270   9.207  15.120  0.00  0.00     0.020 C 
HETATM    3  C   UNK N   1      36.932   9.108  13.890  0.00  0.00    -0.057 C 
HETATM    4  C   UNK N   1      37.758  10.148  13.444  0.00  0.00     0.007 C 
HETATM    5  C   UNK N   1      37.787  11.362  14.127  0.00  0.00     0.008 C 
HETATM    6  C   UNK N   1      37.001  11.528  15.263  0.00  0.00    -0.047 C 
HETATM    7  C   UNK N   1      36.673  12.972  15.719  0.00  0.00     0.044 C 
HETATM    8  C   UNK N   1      35.148  13.397  15.528  0.00  0.00     0.043 C 
HETATM    9  C   UNK N   1      34.516  12.614  14.414  0.00  0.00    -0.057 C 
HETATM   10  C   UNK N   1      33.731  11.510  14.747  0.00  0.00     0.007 C 
HETATM   11  C   UNK N   1      33.789  10.353  13.976  0.00  0.00     0.008 C 
HETATM   12  C   UNK N   1      34.647  10.291  12.881  0.00  0.00    -0.051 C 
HETATM   13  C   UNK N   1      35.278  11.515  12.428  0.00  0.00    -0.040 C 
HETATM   14  C   UNK N   1      35.177  12.657  13.204  0.00  0.00     0.015 C 
HETATM   15  C   UNK N   1      34.933   8.881  12.337  0.00  0.00     0.043 C 
HETATM   16  C   UNK N   1      36.294   8.244  12.843  0.00  0.00     0.043 C 
ENDROOT
BRANCH   1  17
HETATM   17  C   UNK N   1      35.626  10.604  17.087  0.00  0.00    -0.023 A 
HETATM   18  C   UNK N   1      34.927   9.488  17.479  0.00  0.00     0.044 A 
HETATM   19  C   UNK N   1      34.573   9.371  18.753  0.00  0.00     0.061 A 
HETATM   20  N   UNK N   1      33.952   8.334  19.253  0.00  0.00    -0.342 N 
HETATM   21  C   UNK N   1      34.837  10.293  19.704  0.00  0.00     0.060 A 
HETATM   22  C   UNK N   1      33.819   8.638  20.542  0.00  0.00     0.105 A 
HETATM   23  H   UNK N   1      33.651   7.521  18.785  0.00  0.00     0.167 HD
HETATM   24  N   UNK N   1      34.356   9.849  20.881  0.00  0.00    -0.342 N 
ATOM     25  HN  UNK N   1      34.386  10.301  21.795  1.00  0.00     0.167 HD
HETATM   26  C   UNK N   1      35.459  11.507  19.369  0.00  0.00     0.033 A 
HETATM   27  C   UNK N   1      35.865  11.665  18.012  0.00  0.00     0.014 A 
BRANCH  22  28
HETATM   28  C   UNK N   1      32.988   7.762  21.347  0.00  0.00     0.156 C 
HETATM   29  C   UNK N   1      31.623   7.386  20.798  0.00  0.00     0.040 C 
HETATM   30  C   UNK N   1      31.728   5.885  20.784  0.00  0.00     0.011 C 
HETATM   31  C   UNK N   1      30.459   5.065  20.811  0.00  0.00     0.007 C 
HETATM   32  C   UNK N   1      32.658   5.499  21.919  0.00  0.00     0.092 C 
HETATM   33  C   UNK N   1      30.873   3.606  20.587  0.00  0.00     0.001 C 
HETATM   34  C   UNK N   1      31.987   3.157  21.556  0.00  0.00     0.002 C 
HETATM   35  C   UNK N   1      33.181   4.122  21.547  0.00  0.00     0.026 C 
HETATM   36  N   UNK N   1      33.611   6.571  21.877  0.00  0.00    -0.334 N 
HETATM   37  C   UNK N   1      34.875   6.503  22.438  0.00  0.00     0.244 C 
HETATM   38  O   UNK N   1      35.202   5.502  23.057  0.00  0.00    -0.271 OA
BRANCH  37  39
HETATM   39  C   UNK N   1      35.948   7.567  22.182  0.00  0.00     0.182 C 
BRANCH  39  40
HETATM   40  C   UNK N   1      37.058   6.939  21.296  0.00  0.00     0.009 C 
HETATM   41  C   UNK N   1      38.284   6.484  22.068  0.00  0.00     0.012 C 
HETATM   42  C   UNK N   1      37.508   7.827  20.145  0.00  0.00     0.012 C 
ENDBRANCH  39  40
BRANCH  39  43
HETATM   43  N   UNK N   1      36.546   8.073  23.405  0.00  0.00    -0.323 N 
HETATM   44  C   UNK N   1      36.013   9.131  24.087  0.00  0.00     0.360 C 
HETATM   45  O   UNK N   1      34.948   9.619  23.736  0.00  0.00    -0.239 OA
HETATM   46  H   UNK N   1      37.359   7.642  23.754  0.00  0.00     0.165 HD
BRANCH  44  47
HETATM   47  O   UNK N   1      36.667   9.676  25.140  0.00  0.00    -0.309 OA
HETATM   48  C   UNK N   1      36.154   9.666  26.414  0.00  0.00     0.215 C 
ENDBRANCH  44  47
ENDBRANCH  39  43
ENDBRANCH  37  39
ENDBRANCH  22  28
ENDBRANCH   1  17
BRANCH  13  49
HETATM   49  C   UNK N   1      36.006  11.643  11.162  0.00  0.00     0.066 C 
HETATM   50  C   UNK N   1      37.182  12.395  11.419  0.00  0.00    -0.011 C 
HETATM   51  C   UNK N   1      37.291  13.689  10.912  0.00  0.00     0.029 C 
HETATM   52  C   UNK N   1      36.249  14.118  10.109  0.00  0.00     0.060 A 
HETATM   53  C   UNK N   1      35.285  13.285   9.659  0.00  0.00     0.057 A 
HETATM   54  N   UNK N   1      36.013  15.341   9.680  0.00  0.00    -0.342 N 
HETATM   55  C   UNK N   1      35.177  12.006  10.100  0.00  0.00     0.018 C 
HETATM   56  N   UNK N   1      34.410  13.951   8.904  0.00  0.00    -0.343 N 
HETATM   57  C   UNK N   1      34.875  15.220   8.950  0.00  0.00     0.105 A 
HETATM   58  H   UNK N   1      33.621  13.605   8.430  0.00  0.00     0.167 HD
ATOM     59  HN  UNK N   1      36.560  16.184   9.855  1.00  0.00     0.167 HD
BRANCH  57  60
HETATM   60  C   UNK N   1      34.379  16.334   8.085  0.00  0.00     0.156 C 
HETATM   61  C   UNK N   1      33.217  17.060   8.764  0.00  0.00     0.040 C 
HETATM   62  C   UNK N   1      32.038  16.159   8.439  0.00  0.00     0.011 C 
HETATM   63  C   UNK N   1      30.666  16.805   8.630  0.00  0.00     0.007 C 
HETATM   64  C   UNK N   1      32.329  15.625   7.028  0.00  0.00     0.092 C 
HETATM   65  C   UNK N   1      30.373  17.812   7.528  0.00  0.00     0.001 C 
HETATM   66  C   UNK N   1      30.449  17.108   6.183  0.00  0.00     0.002 C 
HETATM   67  C   UNK N   1      31.871  16.625   5.956  0.00  0.00     0.026 C 
HETATM   68  N   UNK N   1      33.767  15.634   6.982  0.00  0.00    -0.334 N 
HETATM   69  C   UNK N   1      34.523  14.885   6.115  0.00  0.00     0.244 C 
HETATM   70  O   UNK N   1      35.732  15.070   6.043  0.00  0.00    -0.271 OA
BRANCH  69  71
HETATM   71  C   UNK N   1      33.951  13.689   5.406  0.00  0.00     0.182 C 
BRANCH  71  72
HETATM   72  C   UNK N   1      33.473  13.771   3.968  0.00  0.00     0.009 C 
HETATM   73  C   UNK N   1      33.822  15.104   3.334  0.00  0.00     0.012 C 
HETATM   74  C   UNK N   1      31.985  13.514   3.897  0.00  0.00     0.012 C 
ENDBRANCH  71  72
BRANCH  71  75
HETATM   75  N   UNK N   1      34.590  12.443   5.812  0.00  0.00    -0.323 N 
HETATM   76  C   UNK N   1      34.019  11.507   6.616  0.00  0.00     0.360 C 
HETATM   77  O   UNK N   1      32.910  11.696   7.097  0.00  0.00    -0.239 OA
HETATM   78  H   UNK N   1      35.500  12.267   5.480  0.00  0.00     0.165 HD
BRANCH  76  79
HETATM   79  O   UNK N   1      34.691  10.358   6.878  0.00  0.00    -0.309 OA
HETATM   80  C   UNK N   1      34.135   9.328   7.604  0.00  0.00     0.215 C 
ENDBRANCH  76  79
ENDBRANCH  71  75
ENDBRANCH  69  71
ENDBRANCH  57  60
ENDBRANCH  13  49
TORSDOF 12
ENDMDL
MODEL 4
REMARK VINA RESULT:      -9.5      1.636      3.319
REMARK  12 active torsions:
REMARK  status: ('A' for Active; 'I' for Inactive)
REMARK    1  A    between atoms: C_2  and  C_4 
REMARK    2  A    between atoms: C_4  and  C_5 
REMARK    3  A    between atoms: C_4  and  N_72 
REMARK       I    between atoms: C_5  and  N_7 
REMARK    4  A    between atoms: C_15  and  C_16 
REMARK    5  A    between atoms: C_20  and  C_26 
REMARK    6  A    between atoms: C_38  and  C_40 
REMARK    7  A    between atoms: C_50  and  C_47 
REMARK       I    between atoms: N_58  and  C_59 
REMARK    8  A    between atoms: C_59  and  C_61 
REMARK    9  A    between atoms: C_61  and  C_62 
REMARK   10  A    between atoms: C_61  and  N_65 
REMARK       I    between atoms: N_65  and  C_66 
REMARK   11  A    between atoms: C_66  and  O_68 
REMARK       I    between atoms: N_72  and  C_73 
REMARK   12  A    between atoms: C_73  and  O_75 
ROOT
HETATM    1  C   UNK N   1      30.936  16.795   5.841  0.00  0.00    -0.019 C 
HETATM    2  C   UNK N   1      30.848  16.233   7.110  0.00  0.00     0.020 C 
HETATM    3  C   UNK N   1      31.930  16.356   7.991  0.00  0.00    -0.057 C 
HETATM    4  C   UNK N   1      33.037  17.142   7.647  0.00  0.00     0.007 C 
HETATM    5  C   UNK N   1      33.156  17.659   6.359  0.00  0.00     0.008 C 
HETATM    6  C   UNK N   1      32.161  17.402   5.422  0.00  0.00    -0.047 C 
HETATM    7  C   UNK N   1      32.514  17.556   3.922  0.00  0.00     0.044 C 
HETATM    8  C   UNK N   1      32.575  16.184   3.111  0.00  0.00     0.043 C 
HETATM    9  C   UNK N   1      32.911  15.043   4.026  0.00  0.00    -0.057 C 
HETATM   10  C   UNK N   1      31.869  14.240   4.489  0.00  0.00     0.007 C 
HETATM   11  C   UNK N   1      31.870  13.779   5.802  0.00  0.00     0.008 C 
HETATM   12  C   UNK N   1      32.905  14.138   6.662  0.00  0.00    -0.051 C 
HETATM   13  C   UNK N   1      34.077  14.780   6.101  0.00  0.00    -0.040 C 
HETATM   14  C   UNK N   1      34.055  15.200   4.782  0.00  0.00     0.015 C 
HETATM   15  C   UNK N   1      32.633  13.919   8.160  0.00  0.00     0.043 C 
HETATM   16  C   UNK N   1      32.166  15.219   8.940  0.00  0.00     0.043 C 
ENDROOT
BRANCH   1  17
HETATM   17  C   UNK N   1      29.886  16.654   4.845  0.00  0.00    -0.023 A 
HETATM   18  C   UNK N   1      29.408  15.367   4.770  0.00  0.00     0.044 A 
HETATM   19  C   UNK N   1      28.212  15.160   4.232  0.00  0.00     0.061 A 
HETATM   20  N   UNK N   1      27.633  13.990   4.151  0.00  0.00    -0.342 N 
HETATM   21  C   UNK N   1      27.427  16.135   3.726  0.00  0.00     0.060 A 
HETATM   22  C   UNK N   1      26.468  14.256   3.567  0.00  0.00     0.105 A 
HETATM   23  H   UNK N   1      27.979  13.119   4.451  0.00  0.00     0.167 HD
HETATM   24  N   UNK N   1      26.283  15.581   3.281  0.00  0.00    -0.342 N 
ATOM     25  HN  UNK N   1      25.481  16.034   2.843  1.00  0.00     0.167 HD
HETATM   26  C   UNK N   1      27.881  17.463   3.673  0.00  0.00     0.033 A 
HETATM   27  C   UNK N   1      29.156  17.728   4.253  0.00  0.00     0.014 A 
BRANCH  22  28
HETATM   28  C   UNK N   1      25.659  13.123   3.157  0.00  0.00     0.156 C 
HETATM   29  C   UNK N   1      26.254  12.166   2.139  0.00  0.00     0.040 C 
HETATM   30  C   UNK N   1      26.183  10.868   2.897  0.00  0.00     0.011 C 
HETATM   31  C   UNK N   1      26.174   9.570   2.123  0.00  0.00     0.007 C 
HETATM   32  C   UNK N   1      24.985  10.965   3.823  0.00  0.00     0.092 C 
HETATM   33  C   UNK N   1      26.301   8.443   3.153  0.00  0.00     0.001 C 
HETATM   34  C   UNK N   1      25.256   8.560   4.283  0.00  0.00     0.002 C 
HETATM   35  C   UNK N   1      25.256   9.955   4.925  0.00  0.00     0.026 C 
HETATM   36  N   UNK N   1      25.037  12.347   4.204  0.00  0.00    -0.334 N 
HETATM   37  C   UNK N   1      24.411  12.862   5.327  0.00  0.00     0.244 C 
HETATM   38  O   UNK N   1      23.724  12.127   6.021  0.00  0.00    -0.271 OA
BRANCH  37  39
HETATM   39  C   UNK N   1      24.671  14.286   5.834  0.00  0.00     0.182 C 
BRANCH  39  40
HETATM   40  C   UNK N   1      25.638  14.205   7.046  0.00  0.00     0.009 C 
HETATM   41  C   UNK N   1      24.974  13.769   8.340  0.00  0.00     0.012 C 
HETATM   42  C   UNK N   1      26.416  15.486   7.304  0.00  0.00     0.012 C 
ENDBRANCH  39  40
BRANCH  39  43
HETATM   43  N   UNK N   1      23.455  14.972   6.240  0.00  0.00    -0.323 N 
HETATM   44  C   UNK N   1      23.189  16.256   5.860  0.00  0.00     0.360 C 
HETATM   45  O   UNK N   1      23.927  16.834   5.075  0.00  0.00    -0.239 OA
HETATM   46  H   UNK N   1      22.805  14.496   6.805  0.00  0.00     0.165 HD
BRANCH  44  47
HETATM   47  O   UNK N   1      22.125  16.923   6.369  0.00  0.00    -0.309 OA
HETATM   48  C   UNK N   1      20.838  16.456   6.256  0.00  0.00     0.215 C 
ENDBRANCH  44  47
ENDBRANCH  39  43
ENDBRANCH  37  39
ENDBRANCH  22  28
ENDBRANCH   1  17
BRANCH  13  49
HETATM   49  C   UNK N   1      35.327  14.994   6.837  0.00  0.00     0.066 C 
HETATM   50  C   UNK N   1      36.399  14.738   5.944  0.00  0.00    -0.011 C 
HETATM   51  C   UNK N   1      37.192  13.607   6.133  0.00  0.00     0.029 C 
HETATM   52  C   UNK N   1      36.911  12.848   7.255  0.00  0.00     0.060 A 
HETATM   53  C   UNK N   1      36.074  13.268   8.228  0.00  0.00     0.057 A 
HETATM   54  N   UNK N   1      37.365  11.647   7.550  0.00  0.00    -0.342 N 
HETATM   55  C   UNK N   1      35.320  14.388   8.094  0.00  0.00     0.018 C 
HETATM   56  N   UNK N   1      35.986  12.352   9.194  0.00  0.00    -0.343 N 
HETATM   57  C   UNK N   1      36.778  11.355   8.739  0.00  0.00     0.105 A 
HETATM   58  H   UNK N   1      35.470  12.390  10.031  0.00  0.00     0.167 HD
ATOM     59  HN  UNK N   1      38.010  11.070   7.010  1.00  0.00     0.167 HD
BRANCH  57  60
HETATM   60  C   UNK N   1      37.203  10.175   9.551  0.00  0.00     0.156 C 
HETATM   61  C   UNK N   1      36.291   8.980   9.274  0.00  0.00     0.040 C 
HETATM   62  C   UNK N   1      35.093   9.275  10.160  0.00  0.00     0.011 C 
HETATM   63  C   UNK N   1      34.178   8.078  10.419  0.00  0.00     0.007 C 
HETATM   64  C   UNK N   1      35.684   9.942  11.411  0.00  0.00     0.092 C 
HETATM   65  C   UNK N   1      34.819   7.094  11.386  0.00  0.00     0.001 C 
HETATM   66  C   UNK N   1      35.138   7.814  12.685  0.00  0.00     0.002 C 
HETATM   67  C   UNK N   1      36.177   8.889  12.415  0.00  0.00     0.026 C 
HETATM   68  N   UNK N   1      36.869  10.575  10.896  0.00  0.00    -0.334 N 
HETATM   69  C   UNK N   1      37.521  11.618  11.505  0.00  0.00     0.244 C 
HETATM   70  O   UNK N   1      38.605  11.994  11.076  0.00  0.00    -0.271 OA
BRANCH  69  71
HETATM   71  C   UNK N   1      36.847  12.464  12.549  0.00  0.00     0.182 C 
BRANCH  71  72
HETATM   72  C   UNK N   1      36.873  12.084  14.019  0.00  0.00     0.009 C 
HETATM   73  C   UNK N   1      36.869  13.307  14.916  0.00  0.00     0.012 C 
HETATM   74  C   UNK N   1      38.070  11.207  14.310  0.00  0.00     0.012 C 
ENDBRANCH  71  72
BRANCH  71  75
HETATM   75  N   UNK N   1      36.914  13.887  12.242  0.00  0.00    -0.323 N 
HETATM   76  C   UNK N   1      35.859  14.641  11.833  0.00  0.00     0.360 C 
HETATM   77  O   UNK N   1      34.764  14.127  11.650  0.00  0.00    -0.239 OA
HETATM   78  H   UNK N   1      37.786  14.335  12.337  0.00  0.00     0.165 HD
BRANCH  76  79
HETATM   79  O   UNK N   1      36.032  15.972  11.632  0.00  0.00    -0.309 OA
HETATM   80  C   UNK N   1      35.365  16.660  10.644  0.00  0.00     0.215 C 
ENDBRANCH  76  79
ENDBRANCH  71  75
ENDBRANCH  69  71
ENDBRANCH  57  60
ENDBRANCH  13  49
TORSDOF 12
ENDMDL
MODEL 5
REMARK VINA RESULT:      -9.5      2.787      5.583
REMARK  12 active torsions:
REMARK  status: ('A' for Active; 'I' for Inactive)
REMARK    1  A    between atoms: C_2  and  C_4 
REMARK    2  A    between atoms: C_4  and  C_5 
REMARK    3  A    between atoms: C_4  and  N_72 
REMARK       I    between atoms: C_5  and  N_7 
REMARK    4  A    between atoms: C_15  and  C_16 
REMARK    5  A    between atoms: C_20  and  C_26 
REMARK    6  A    between atoms: C_38  and  C_40 
REMARK    7  A    between atoms: C_50  and  C_47 
REMARK       I    between atoms: N_58  and  C_59 
REMARK    8  A    between atoms: C_59  and  C_61 
REMARK    9  A    between atoms: C_61  and  C_62 
REMARK   10  A    between atoms: C_61  and  N_65 
REMARK       I    between atoms: N_65  and  C_66 
REMARK   11  A    between atoms: C_66  and  O_68 
REMARK       I    between atoms: N_72  and  C_73 
REMARK   12  A    between atoms: C_73  and  O_75 
ROOT
HETATM    1  C   UNK N   1      27.257  16.879   3.575  0.00  0.00    -0.019 C 
HETATM    2  C   UNK N   1      26.868  17.920   4.412  0.00  0.00     0.020 C 
HETATM    3  C   UNK N   1      27.845  18.763   4.955  0.00  0.00    -0.057 C 
HETATM    4  C   UNK N   1      29.184  18.641   4.563  0.00  0.00     0.007 C 
HETATM    5  C   UNK N   1      29.587  17.567   3.772  0.00  0.00     0.008 C 
HETATM    6  C   UNK N   1      28.648  16.627   3.362  0.00  0.00    -0.047 C 
HETATM    7  C   UNK N   1      29.157  15.234   2.915  0.00  0.00     0.044 C 
HETATM    8  C   UNK N   1      28.793  14.044   3.913  0.00  0.00     0.043 C 
HETATM    9  C   UNK N   1      28.623  14.560   5.312  0.00  0.00    -0.057 C 
HETATM   10  C   UNK N   1      27.329  14.788   5.778  0.00  0.00     0.007 C 
HETATM   11  C   UNK N   1      27.056  15.899   6.570  0.00  0.00     0.008 C 
HETATM   12  C   UNK N   1      28.075  16.796   6.882  0.00  0.00    -0.051 C 
HETATM   13  C   UNK N   1      29.442  16.421   6.577  0.00  0.00    -0.040 C 
HETATM   14  C   UNK N   1      29.681  15.293   5.811  0.00  0.00     0.015 C 
HETATM   15  C   UNK N   1      27.618  18.164   7.415  0.00  0.00     0.043 C 
HETATM   16  C   UNK N   1      27.581  19.315   6.324  0.00  0.00     0.043 C 
ENDROOT
BRANCH   1  17
HETATM   17  C   UNK N   1      26.312  15.918   3.026  0.00  0.00    -0.023 A 
HETATM   18  C   UNK N   1      25.028  16.147   3.457  0.00  0.00     0.044 A 
HETATM   19  C   UNK N   1      24.019  15.642   2.755  0.00  0.00     0.061 A 
HETATM   20  N   UNK N   1      22.757  15.833   3.037  0.00  0.00    -0.342 N 
HETATM   21  C   UNK N   1      24.168  14.892   1.641  0.00  0.00     0.060 A 
HETATM   22  C   UNK N   1      22.117  15.170   2.077  0.00  0.00     0.105 A 
HETATM   23  H   UNK N   1      22.371  16.346   3.784  0.00  0.00     0.167 HD
HETATM   24  N   UNK N   1      22.948  14.565   1.175  0.00  0.00    -0.342 N 
ATOM     25  HN  UNK N   1      22.705  14.007   0.357  1.00  0.00     0.167 HD
HETATM   26  C   UNK N   1      25.448  14.530   1.189  0.00  0.00     0.033 A 
HETATM   27  C   UNK N   1      26.556  15.062   1.910  0.00  0.00     0.014 A 
BRANCH  22  28
HETATM   28  C   UNK N   1      20.680  15.026   2.218  0.00  0.00     0.156 C 
HETATM   29  C   UNK N   1      19.813  15.422   1.035  0.00  0.00     0.040 C 
HETATM   30  C   UNK N   1      19.070  14.136   0.787  0.00  0.00     0.011 C 
HETATM   31  C   UNK N   1      17.745  14.188   0.062  0.00  0.00     0.007 C 
HETATM   32  C   UNK N   1      18.938  13.439   2.127  0.00  0.00     0.092 C 
HETATM   33  C   UNK N   1      17.339  12.736  -0.215  0.00  0.00     0.001 C 
HETATM   34  C   UNK N   1      17.378  11.862   1.056  0.00  0.00     0.002 C 
HETATM   35  C   UNK N   1      18.723  11.974   1.790  0.00  0.00     0.026 C 
HETATM   36  N   UNK N   1      20.193  13.769   2.740  0.00  0.00    -0.334 N 
HETATM   37  C   UNK N   1      20.742  13.071   3.801  0.00  0.00     0.244 C 
HETATM   38  O   UNK N   1      20.116  12.147   4.299  0.00  0.00    -0.271 OA
BRANCH  37  39
HETATM   39  C   UNK N   1      22.180  13.300   4.283  0.00  0.00     0.182 C 
BRANCH  39  40
HETATM   40  C   UNK N   1      23.022  12.045   3.925  0.00  0.00     0.009 C 
HETATM   41  C   UNK N   1      24.514  12.217   4.148  0.00  0.00     0.012 C 
HETATM   42  C   UNK N   1      22.796  11.530   2.512  0.00  0.00     0.012 C 
ENDBRANCH  39  40
BRANCH  39  43
HETATM   43  N   UNK N   1      22.265  13.538   5.714  0.00  0.00    -0.323 N 
HETATM   44  C   UNK N   1      21.985  14.757   6.262  0.00  0.00     0.360 C 
HETATM   45  O   UNK N   1      21.550  15.663   5.565  0.00  0.00    -0.239 OA
HETATM   46  H   UNK N   1      22.533  12.799   6.306  0.00  0.00     0.165 HD
BRANCH  44  47
HETATM   47  O   UNK N   1      22.212  14.995   7.576  0.00  0.00    -0.309 OA
HETATM   48  C   UNK N   1      21.435  14.453   8.571  0.00  0.00     0.215 C 
ENDBRANCH  44  47
ENDBRANCH  39  43
ENDBRANCH  37  39
ENDBRANCH  22  28
ENDBRANCH   1  17
BRANCH  13  49
HETATM   49  C   UNK N   1      30.619  17.149   7.058  0.00  0.00     0.066 C 
HETATM   50  C   UNK N   1      31.629  17.033   6.068  0.00  0.00    -0.011 C 
HETATM   51  C   UNK N   1      32.756  16.256   6.329  0.00  0.00     0.029 C 
HETATM   52  C   UNK N   1      32.840  15.712   7.598  0.00  0.00     0.060 A 
HETATM   53  C   UNK N   1      32.007  16.067   8.600  0.00  0.00     0.057 A 
HETATM   54  N   UNK N   1      33.681  14.793   8.027  0.00  0.00    -0.342 N 
HETATM   55  C   UNK N   1      30.925  16.858   8.389  0.00  0.00     0.018 C 
HETATM   56  N   UNK N   1      32.308  15.399   9.715  0.00  0.00    -0.343 N 
HETATM   57  C   UNK N   1      33.333  14.607   9.325  0.00  0.00     0.105 A 
HETATM   58  H   UNK N   1      31.888  15.465  10.602  0.00  0.00     0.167 HD
ATOM     59  HN  UNK N   1      34.424  14.329   7.504  1.00  0.00     0.167 HD
BRANCH  57  60
HETATM   60  C   UNK N   1      34.188  13.811  10.258  0.00  0.00     0.156 C 
HETATM   61  C   UNK N   1      35.513  14.530  10.511  0.00  0.00     0.040 C 
HETATM   62  C   UNK N   1      36.328  14.144   9.288  0.00  0.00     0.011 C 
HETATM   63  C   UNK N   1      37.834  14.371   9.424  0.00  0.00     0.007 C 
HETATM   64  C   UNK N   1      35.900  12.705   8.968  0.00  0.00     0.092 C 
HETATM   65  C   UNK N   1      38.466  13.333  10.338  0.00  0.00     0.001 C 
HETATM   66  C   UNK N   1      38.183  11.946   9.783  0.00  0.00     0.002 C 
HETATM   67  C   UNK N   1      36.685  11.695   9.819  0.00  0.00     0.026 C 
HETATM   68  N   UNK N   1      34.549  12.664   9.461  0.00  0.00    -0.334 N 
HETATM   69  C   UNK N   1      33.601  11.756   9.063  0.00  0.00     0.244 C 
HETATM   70  O   UNK N   1      32.525  11.700   9.646  0.00  0.00    -0.271 OA
BRANCH  69  71
HETATM   71  C   UNK N   1      33.752  10.971   7.789  0.00  0.00     0.182 C 
BRANCH  71  72
HETATM   72  C   UNK N   1      34.110   9.496   7.801  0.00  0.00     0.009 C 
HETATM   73  C   UNK N   1      35.500   9.250   7.247  0.00  0.00     0.012 C 
HETATM   74  C   UNK N   1      33.076   8.702   7.035  0.00  0.00     0.012 C 
ENDBRANCH  71  72
BRANCH  71  75
HETATM   75  N   UNK N   1      32.825  11.409   6.752  0.00  0.00    -0.323 N 
HETATM   76  C   UNK N   1      33.121  12.317   5.784  0.00  0.00     0.360 C 
HETATM   77  O   UNK N   1      34.212  12.869   5.764  0.00  0.00    -0.239 OA
HETATM   78  H   UNK N   1      31.920  11.021   6.753  0.00  0.00     0.165 HD
BRANCH  76  79
HETATM   79  O   UNK N   1      32.193  12.604   4.837  0.00  0.00    -0.309 OA
HETATM   80  C   UNK N   1      32.440  13.479   3.803  0.00  0.00     0.215 C 
ENDBRANCH  76  79
ENDBRANCH  71  75
ENDBRANCH  69  71
ENDBRANCH  57  60
ENDBRANCH  13  49
TORSDOF 12
ENDMDL
MODEL 6
REMARK VINA RESULT:      -9.2      2.554     12.911
REMARK  12 active torsions:
REMARK  status: ('A' for Active; 'I' for Inactive)
REMARK    1  A    between atoms: C_2  and  C_4 
REMARK    2  A    between atoms: C_4  and  C_5 
REMARK    3  A    between atoms: C_4  and  N_72 
REMARK       I    between atoms: C_5  and  N_7 
REMARK    4  A    between atoms: C_15  and  C_16 
REMARK    5  A    between atoms: C_20  and  C_26 
REMARK    6  A    between atoms: C_38  and  C_40 
REMARK    7  A    between atoms: C_50  and  C_47 
REMARK       I    between atoms: N_58  and  C_59 
REMARK    8  A    between atoms: C_59  and  C_61 
REMARK    9  A    between atoms: C_61  and  C_62 
REMARK   10  A    between atoms: C_61  and  N_65 
REMARK       I    between atoms: N_65  and  C_66 
REMARK   11  A    between atoms: C_66  and  O_68 
REMARK       I    between atoms: N_72  and  C_73 
REMARK   12  A    between atoms: C_73  and  O_75 
ROOT
HETATM    1  C   UNK N   1      34.923  15.656   7.370  0.00  0.00    -0.019 C 
HETATM    2  C   UNK N   1      34.867  15.367   6.011  0.00  0.00     0.020 C 
HETATM    3  C   UNK N   1      34.084  16.169   5.172  0.00  0.00    -0.057 C 
HETATM    4  C   UNK N   1      33.464  17.323   5.671  0.00  0.00     0.007 C 
HETATM    5  C   UNK N   1      33.469  17.585   7.038  0.00  0.00     0.008 C 
HETATM    6  C   UNK N   1      34.107  16.701   7.904  0.00  0.00    -0.047 C 
HETATM    7  C   UNK N   1      33.710  16.732   9.401  0.00  0.00     0.044 C 
HETATM    8  C   UNK N   1      32.905  15.449   9.899  0.00  0.00     0.043 C 
HETATM    9  C   UNK N   1      32.162  14.814   8.760  0.00  0.00    -0.057 C 
HETATM   10  C   UNK N   1      32.730  13.701   8.142  0.00  0.00     0.007 C 
HETATM   11  C   UNK N   1      32.650  13.551   6.761  0.00  0.00     0.008 C 
HETATM   12  C   UNK N   1      32.019  14.526   5.992  0.00  0.00    -0.051 C 
HETATM   13  C   UNK N   1      31.249  15.549   6.672  0.00  0.00    -0.040 C 
HETATM   14  C   UNK N   1      31.328  15.653   8.050  0.00  0.00     0.015 C 
HETATM   15  C   UNK N   1      32.313  14.480   4.484  0.00  0.00     0.043 C 
HETATM   16  C   UNK N   1      33.433  15.494   4.001  0.00  0.00     0.043 C 
ENDROOT
BRANCH   1  17
HETATM   17  C   UNK N   1      35.658  14.833   8.318  0.00  0.00    -0.023 A 
HETATM   18  C   UNK N   1      35.951  13.590   7.811  0.00  0.00     0.044 A 
HETATM   19  C   UNK N   1      36.936  12.890   8.363  0.00  0.00     0.061 A 
HETATM   20  N   UNK N   1      37.338  11.721   7.936  0.00  0.00    -0.342 N 
HETATM   21  C   UNK N   1      37.670  13.311   9.416  0.00  0.00     0.060 A 
HETATM   22  C   UNK N   1      38.336  11.413   8.761  0.00  0.00     0.105 A 
HETATM   23  H   UNK N   1      36.985  11.194   7.184  0.00  0.00     0.167 HD
HETATM   24  N   UNK N   1      38.589  12.370   9.704  0.00  0.00    -0.342 N 
ATOM     25  HN  UNK N   1      39.297  12.372  10.439  1.00  0.00     0.167 HD
HETATM   26  C   UNK N   1      37.371  14.525  10.056  0.00  0.00     0.033 A 
HETATM   27  C   UNK N   1      36.327  15.310   9.486  0.00  0.00     0.014 A 
BRANCH  22  28
HETATM   28  C   UNK N   1      38.877  10.069   8.671  0.00  0.00     0.156 C 
HETATM   29  C   UNK N   1      40.332   9.922   8.263  0.00  0.00     0.040 C 
HETATM   30  C   UNK N   1      40.879   9.158   9.439  0.00  0.00     0.011 C 
HETATM   31  C   UNK N   1      42.137   8.340   9.256  0.00  0.00     0.007 C 
HETATM   32  C   UNK N   1      39.744   8.308   9.976  0.00  0.00     0.092 C 
HETATM   33  C   UNK N   1      42.551   7.853  10.649  0.00  0.00     0.001 C 
HETATM   34  C   UNK N   1      41.395   7.153  11.393  0.00  0.00     0.002 C 
HETATM   35  C   UNK N   1      40.122   8.012  11.418  0.00  0.00     0.026 C 
HETATM   36  N   UNK N   1      38.623   9.183   9.784  0.00  0.00    -0.334 N 
HETATM   37  C   UNK N   1      37.418   9.054  10.453  0.00  0.00     0.244 C 
HETATM   38  O   UNK N   1      37.256   8.116  11.219  0.00  0.00    -0.271 OA
BRANCH  37  39
HETATM   39  C   UNK N   1      36.327  10.130  10.400  0.00  0.00     0.182 C 
BRANCH  39  40
HETATM   40  C   UNK N   1      36.213  10.782  11.804  0.00  0.00     0.009 C 
HETATM   41  C   UNK N   1      35.312  12.003  11.849  0.00  0.00     0.012 C 
HETATM   42  C   UNK N   1      37.552  11.140  12.431  0.00  0.00     0.012 C 
ENDBRANCH  39  40
BRANCH  39  43
HETATM   43  N   UNK N   1      35.030   9.600  10.015  0.00  0.00    -0.323 N 
HETATM   44  C   UNK N   1      34.682   9.421   8.706  0.00  0.00     0.360 C 
HETATM   45  O   UNK N   1      35.501   9.607   7.817  0.00  0.00    -0.239 OA
HETATM   46  H   UNK N   1      34.383   9.364  10.717  0.00  0.00     0.165 HD
BRANCH  44  47
HETATM   47  O   UNK N   1      33.419   9.066   8.367  0.00  0.00    -0.309 OA
HETATM   48  C   UNK N   1      32.311   9.665   8.913  0.00  0.00     0.215 C 
ENDBRANCH  44  47
ENDBRANCH  39  43
ENDBRANCH  37  39
ENDBRANCH  22  28
ENDBRANCH   1  17
BRANCH  13  49
HETATM   49  C   UNK N   1      30.348  16.485   5.993  0.00  0.00     0.066 C 
HETATM   50  C   UNK N   1      29.655  17.214   6.994  0.00  0.00    -0.011 C 
HETATM   51  C   UNK N   1      28.292  16.988   7.184  0.00  0.00     0.029 C 
HETATM   52  C   UNK N   1      27.693  16.106   6.302  0.00  0.00     0.060 A 
HETATM   53  C   UNK N   1      28.315  15.646   5.195  0.00  0.00     0.057 A 
HETATM   54  N   UNK N   1      26.491  15.574   6.387  0.00  0.00    -0.342 N 
HETATM   55  C   UNK N   1      29.630  15.884   4.959  0.00  0.00     0.018 C 
HETATM   56  N   UNK N   1      27.515  14.818   4.521  0.00  0.00    -0.343 N 
HETATM   57  C   UNK N   1      26.404  14.779   5.291  0.00  0.00     0.105 A 
HETATM   58  H   UNK N   1      27.690  14.350   3.674  0.00  0.00     0.167 HD
ATOM     59  HN  UNK N   1      25.787  15.725   7.110  1.00  0.00     0.167 HD
BRANCH  57  60
HETATM   60  C   UNK N   1      25.107  14.164   4.872  0.00  0.00     0.156 C 
HETATM   61  C   UNK N   1      25.299  13.320   3.612  0.00  0.00     0.040 C 
HETATM   62  C   UNK N   1      25.263  14.368   2.513  0.00  0.00     0.011 C 
HETATM   63  C   UNK N   1      25.027  13.814   1.107  0.00  0.00     0.007 C 
HETATM   64  C   UNK N   1      24.242  15.409   2.995  0.00  0.00     0.092 C 
HETATM   65  C   UNK N   1      23.582  13.378   0.923  0.00  0.00     0.001 C 
HETATM   66  C   UNK N   1      22.669  14.563   1.190  0.00  0.00     0.002 C 
HETATM   67  C   UNK N   1      22.809  14.979   2.644  0.00  0.00     0.026 C 
HETATM   68  N   UNK N   1      24.342  15.302   4.427  0.00  0.00    -0.334 N 
HETATM   69  C   UNK N   1      23.948  16.276   5.309  0.00  0.00     0.244 C 
HETATM   70  O   UNK N   1      23.929  16.040   6.511  0.00  0.00    -0.271 OA
BRANCH  69  71
HETATM   71  C   UNK N   1      23.750  17.701   4.870  0.00  0.00     0.182 C 
BRANCH  71  72
HETATM   72  C   UNK N   1      22.367  18.322   4.786  0.00  0.00     0.009 C 
HETATM   73  C   UNK N   1      21.274  17.285   4.957  0.00  0.00     0.012 C 
HETATM   74  C   UNK N   1      22.207  19.062   3.477  0.00  0.00     0.012 C 
ENDBRANCH  71  72
BRANCH  71  75
HETATM   75  N   UNK N   1      24.832  18.574   5.308  0.00  0.00    -0.323 N 
HETATM   76  C   UNK N   1      25.954  18.836   4.587  0.00  0.00     0.360 C 
HETATM   77  O   UNK N   1      26.140  18.290   3.508  0.00  0.00    -0.239 OA
HETATM   78  H   UNK N   1      24.744  19.005   6.189  0.00  0.00     0.165 HD
BRANCH  76  79
HETATM   79  O   UNK N   1      26.868  19.713   5.075  0.00  0.00    -0.309 OA
HETATM   80  C   UNK N   1      28.183  19.711   4.667  0.00  0.00     0.215 C 
ENDBRANCH  76  79
ENDBRANCH  71  75
ENDBRANCH  69  71
ENDBRANCH  57  60
ENDBRANCH  13  49
TORSDOF 12
ENDMDL
MODEL 7
REMARK VINA RESULT:      -9.1      2.321     12.613
REMARK  12 active torsions:
REMARK  status: ('A' for Active; 'I' for Inactive)
REMARK    1  A    between atoms: C_2  and  C_4 
REMARK    2  A    between atoms: C_4  and  C_5 
REMARK    3  A    between atoms: C_4  and  N_72 
REMARK       I    between atoms: C_5  and  N_7 
REMARK    4  A    between atoms: C_15  and  C_16 
REMARK    5  A    between atoms: C_20  and  C_26 
REMARK    6  A    between atoms: C_38  and  C_40 
REMARK    7  A    between atoms: C_50  and  C_47 
REMARK       I    between atoms: N_58  and  C_59 
REMARK    8  A    between atoms: C_59  and  C_61 
REMARK    9  A    between atoms: C_61  and  C_62 
REMARK   10  A    between atoms: C_61  and  N_65 
REMARK       I    between atoms: N_65  and  C_66 
REMARK   11  A    between atoms: C_66  and  O_68 
REMARK       I    between atoms: N_72  and  C_73 
REMARK   12  A    between atoms: C_73  and  O_75 
ROOT
HETATM    1  C   UNK N   1      35.153  15.170   7.379  0.00  0.00    -0.019 C 
HETATM    2  C   UNK N   1      35.115  14.591   6.115  0.00  0.00     0.020 C 
HETATM    3  C   UNK N   1      34.425  15.239   5.084  0.00  0.00    -0.057 C 
HETATM    4  C   UNK N   1      33.886  16.517   5.287  0.00  0.00     0.007 C 
HETATM    5  C   UNK N   1      33.870  17.076   6.562  0.00  0.00     0.008 C 
HETATM    6  C   UNK N   1      34.408  16.364   7.630  0.00  0.00    -0.047 C 
HETATM    7  C   UNK N   1      33.970  16.756   9.063  0.00  0.00     0.044 C 
HETATM    8  C   UNK N   1      33.049  15.677   9.792  0.00  0.00     0.043 C 
HETATM    9  C   UNK N   1      32.292  14.860   8.786  0.00  0.00    -0.057 C 
HETATM   10  C   UNK N   1      32.786  13.599   8.455  0.00  0.00     0.007 C 
HETATM   11  C   UNK N   1      32.737  13.151   7.139  0.00  0.00     0.008 C 
HETATM   12  C   UNK N   1      32.210  13.974   6.146  0.00  0.00    -0.051 C 
HETATM   13  C   UNK N   1      31.505  15.175   6.547  0.00  0.00    -0.040 C 
HETATM   14  C   UNK N   1      31.550  15.578   7.870  0.00  0.00     0.015 C 
HETATM   15  C   UNK N   1      32.545  13.571   4.700  0.00  0.00     0.043 C 
HETATM   16  C   UNK N   1      33.758  14.370   4.060  0.00  0.00     0.043 C 
ENDROOT
BRANCH   1  17
HETATM   17  C   UNK N   1      35.789  14.528   8.518  0.00  0.00    -0.023 A 
HETATM   18  C   UNK N   1      35.811  13.159   8.400  0.00  0.00     0.044 A 
HETATM   19  C   UNK N   1      36.687  12.469   9.121  0.00  0.00     0.061 A 
HETATM   20  N   UNK N   1      36.836  11.171   9.056  0.00  0.00    -0.342 N 
HETATM   21  C   UNK N   1      37.560  13.023   9.991  0.00  0.00     0.060 A 
HETATM   22  C   UNK N   1      37.816  10.924   9.921  0.00  0.00     0.105 A 
HETATM   23  H   UNK N   1      36.338  10.529   8.499  0.00  0.00     0.167 HD
HETATM   24  N   UNK N   1      38.309  12.043  10.532  0.00  0.00    -0.342 N 
ATOM     25  HN  UNK N   1      39.055  12.117  11.224  1.00  0.00     0.167 HD
HETATM   26  C   UNK N   1      37.537  14.404  10.245  0.00  0.00     0.033 A 
HETATM   27  C   UNK N   1      36.617  15.180   9.481  0.00  0.00     0.014 A 
BRANCH  22  28
HETATM   28  C   UNK N   1      38.093   9.532  10.227  0.00  0.00     0.156 C 
HETATM   29  C   UNK N   1      39.469   8.995   9.880  0.00  0.00     0.040 C 
HETATM   30  C   UNK N   1      39.931   8.508  11.228  0.00  0.00     0.011 C 
HETATM   31  C   UNK N   1      41.002   7.445  11.291  0.00  0.00     0.007 C 
HETATM   32  C   UNK N   1      38.689   8.085  11.990  0.00  0.00     0.092 C 
HETATM   33  C   UNK N   1      41.397   7.306  12.766  0.00  0.00     0.001 C 
HETATM   34  C   UNK N   1      40.175   7.087  13.682  0.00  0.00     0.002 C 
HETATM   35  C   UNK N   1      39.087   8.147  13.455  0.00  0.00     0.026 C 
HETATM   36  N   UNK N   1      37.742   9.069  11.550  0.00  0.00    -0.334 N 
HETATM   37  C   UNK N   1      36.573   9.373  12.228  0.00  0.00     0.244 C 
HETATM   38  O   UNK N   1      36.283   8.744  13.234  0.00  0.00    -0.271 OA
BRANCH  37  39
HETATM   39  C   UNK N   1      35.700  10.579  11.862  0.00  0.00     0.182 C 
BRANCH  39  40
HETATM   40  C   UNK N   1      35.780  11.611  13.020  0.00  0.00     0.009 C 
HETATM   41  C   UNK N   1      35.134  12.948  12.704  0.00  0.00     0.012 C 
HETATM   42  C   UNK N   1      37.191  11.860  13.531  0.00  0.00     0.012 C 
ENDBRANCH  39  40
BRANCH  39  43
HETATM   43  N   UNK N   1      34.309  10.223  11.639  0.00  0.00    -0.323 N 
HETATM   44  C   UNK N   1      33.873   9.724  10.444  0.00  0.00     0.360 C 
HETATM   45  O   UNK N   1      34.671   9.466   9.554  0.00  0.00    -0.239 OA
HETATM   46  H   UNK N   1      33.661  10.344  12.371  0.00  0.00     0.165 HD
BRANCH  44  47
HETATM   47  O   UNK N   1      32.552   9.537  10.212  0.00  0.00    -0.309 OA
HETATM   48  C   UNK N   1      32.059   9.200   8.976  0.00  0.00     0.215 C 
ENDBRANCH  44  47
ENDBRANCH  39  43
ENDBRANCH  37  39
ENDBRANCH  22  28
ENDBRANCH   1  17
BRANCH  13  49
HETATM   49  C   UNK N   1      30.704  15.999   5.637  0.00  0.00     0.066 C 
HETATM   50  C   UNK N   1      30.499  17.255   6.264  0.00  0.00    -0.011 C 
HETATM   51  C   UNK N   1      29.224  17.593   6.718  0.00  0.00     0.029 C 
HETATM   52  C   UNK N   1      28.219  16.685   6.438  0.00  0.00     0.060 A 
HETATM   53  C   UNK N   1      28.392  15.639   5.601  0.00  0.00     0.057 A 
HETATM   54  N   UNK N   1      26.993  16.667   6.920  0.00  0.00    -0.342 N 
HETATM   55  C   UNK N   1      29.613  15.309   5.108  0.00  0.00     0.018 C 
HETATM   56  N   UNK N   1      27.268  14.928   5.504  0.00  0.00    -0.343 N 
HETATM   57  C   UNK N   1      26.428  15.575   6.343  0.00  0.00     0.105 A 
HETATM   58  H   UNK N   1      27.092  14.129   4.958  0.00  0.00     0.167 HD
ATOM     59  HN  UNK N   1      26.566  17.322   7.576  1.00  0.00     0.167 HD
BRANCH  57  60
HETATM   60  C   UNK N   1      24.959  15.314   6.437  0.00  0.00     0.156 C 
HETATM   61  C   UNK N   1      24.676  14.222   7.469  0.00  0.00     0.040 C 
HETATM   62  C   UNK N   1      24.946  12.953   6.679  0.00  0.00     0.011 C 
HETATM   63  C   UNK N   1      24.371  11.679   7.299  0.00  0.00     0.007 C 
HETATM   64  C   UNK N   1      24.471  13.269   5.253  0.00  0.00     0.092 C 
HETATM   65  C   UNK N   1      22.860  11.619   7.136  0.00  0.00     0.001 C 
HETATM   66  C   UNK N   1      22.520  11.694   5.656  0.00  0.00     0.002 C 
HETATM   67  C   UNK N   1      22.958  13.044   5.114  0.00  0.00     0.026 C 
HETATM   68  N   UNK N   1      24.664  14.692   5.169  0.00  0.00    -0.334 N 
HETATM   69  C   UNK N   1      24.776  15.395   3.996  0.00  0.00     0.244 C 
HETATM   70  O   UNK N   1      24.785  16.619   4.015  0.00  0.00    -0.271 OA
BRANCH  69  71
HETATM   71  C   UNK N   1      25.112  14.710   2.700  0.00  0.00     0.182 C 
BRANCH  71  72
HETATM   72  C   UNK N   1      24.087  14.562   1.590  0.00  0.00     0.009 C 
HETATM   73  C   UNK N   1      22.691  14.918   2.063  0.00  0.00     0.012 C 
HETATM   74  C   UNK N   1      24.124  13.159   1.030  0.00  0.00     0.012 C 
ENDBRANCH  71  72
BRANCH  71  75
HETATM   75  N   UNK N   1      26.491  14.944   2.287  0.00  0.00    -0.323 N 
HETATM   76  C   UNK N   1      27.492  14.028   2.383  0.00  0.00     0.360 C 
HETATM   77  O   UNK N   1      27.284  12.932   2.884  0.00  0.00    -0.239 OA
HETATM   78  H   UNK N   1      26.713  15.827   1.914  0.00  0.00     0.165 HD
BRANCH  76  79
HETATM   79  O   UNK N   1      28.725  14.342   1.912  0.00  0.00    -0.309 OA
HETATM   80  C   UNK N   1      29.771  13.447   1.931  0.00  0.00     0.215 C 
ENDBRANCH  76  79
ENDBRANCH  71  75
ENDBRANCH  69  71
ENDBRANCH  57  60
ENDBRANCH  13  49
TORSDOF 12
ENDMDL
MODEL 8
REMARK VINA RESULT:      -9.1      6.066     14.860
REMARK  12 active torsions:
REMARK  status: ('A' for Active; 'I' for Inactive)
REMARK    1  A    between atoms: C_2  and  C_4 
REMARK    2  A    between atoms: C_4  and  C_5 
REMARK    3  A    between atoms: C_4  and  N_72 
REMARK       I    between atoms: C_5  and  N_7 
REMARK    4  A    between atoms: C_15  and  C_16 
REMARK    5  A    between atoms: C_20  and  C_26 
REMARK    6  A    between atoms: C_38  and  C_40 
REMARK    7  A    between atoms: C_50  and  C_47 
REMARK       I    between atoms: N_58  and  C_59 
REMARK    8  A    between atoms: C_59  and  C_61 
REMARK    9  A    between atoms: C_61  and  C_62 
REMARK   10  A    between atoms: C_61  and  N_65 
REMARK       I    between atoms: N_65  and  C_66 
REMARK   11  A    between atoms: C_66  and  O_68 
REMARK       I    between atoms: N_72  and  C_73 
REMARK   12  A    between atoms: C_73  and  O_75 
ROOT
HETATM    1  C   UNK N   1      36.497  10.352  15.510  0.00  0.00    -0.019 C 
HETATM    2  C   UNK N   1      36.259   9.190  14.783  0.00  0.00     0.020 C 
HETATM    3  C   UNK N   1      36.764   9.080  13.482  0.00  0.00    -0.057 C 
HETATM    4  C   UNK N   1      37.606  10.072  12.962  0.00  0.00     0.007 C 
HETATM    5  C   UNK N   1      37.802  11.261  13.661  0.00  0.00     0.008 C 
HETATM    6  C   UNK N   1      37.168  11.450  14.885  0.00  0.00    -0.047 C 
HETATM    7  C   UNK N   1      37.001  12.899  15.404  0.00  0.00     0.044 C 
HETATM    8  C   UNK N   1      35.498  13.435  15.403  0.00  0.00     0.043 C 
HETATM    9  C   UNK N   1      34.686  12.730  14.356  0.00  0.00    -0.057 C 
HETATM   10  C   UNK N   1      33.868  11.674  14.757  0.00  0.00     0.007 C 
HETATM   11  C   UNK N   1      33.751  10.538  13.963  0.00  0.00     0.008 C 
HETATM   12  C   UNK N   1      34.469  10.447  12.772  0.00  0.00    -0.051 C 
HETATM   13  C   UNK N   1      35.130  11.637  12.273  0.00  0.00    -0.040 C 
HETATM   14  C   UNK N   1      35.203  12.760  13.077  0.00  0.00     0.015 C 
HETATM   15  C   UNK N   1      34.586   9.037  12.171  0.00  0.00     0.043 C 
HETATM   16  C   UNK N   1      35.948   8.292  12.501  0.00  0.00     0.043 C 
ENDROOT
BRANCH   1  17
HETATM   17  C   UNK N   1      35.950  10.573  16.839  0.00  0.00    -0.023 A 
HETATM   18  C   UNK N   1      36.300   9.577  17.719  0.00  0.00     0.044 A 
HETATM   19  C   UNK N   1      36.237   9.824  19.022  0.00  0.00     0.061 A 
HETATM   20  N   UNK N   1      36.591   8.974  19.951  0.00  0.00    -0.342 N 
HETATM   21  C   UNK N   1      35.828  10.996  19.555  0.00  0.00     0.060 A 
HETATM   22  C   UNK N   1      36.379   9.640  21.083  0.00  0.00     0.105 A 
HETATM   23  H   UNK N   1      36.932   8.058  19.838  0.00  0.00     0.167 HD
HETATM   24  N   UNK N   1      35.905  10.909  20.896  0.00  0.00    -0.342 N 
ATOM     25  HN  UNK N   1      35.670  11.613  21.597  1.00  0.00     0.167 HD
HETATM   26  C   UNK N   1      35.360  12.031  18.730  0.00  0.00     0.033 A 
HETATM   27  C   UNK N   1      35.423  11.808  17.324  0.00  0.00     0.014 A 
BRANCH  22  28
HETATM   28  C   UNK N   1      36.496   8.894  22.322  0.00  0.00     0.156 C 
HETATM   29  C   UNK N   1      37.460   9.418  23.372  0.00  0.00     0.040 C 
HETATM   30  C   UNK N   1      36.533   9.589  24.545  0.00  0.00     0.011 C 
HETATM   31  C   UNK N   1      37.114   9.590  25.940  0.00  0.00     0.007 C 
HETATM   32  C   UNK N   1      35.446   8.541  24.403  0.00  0.00     0.092 C 
HETATM   33  C   UNK N   1      35.976   9.979  26.890  0.00  0.00     0.001 C 
HETATM   34  C   UNK N   1      34.718   9.110  26.686  0.00  0.00     0.002 C 
HETATM   35  C   UNK N   1      34.277   9.072  25.215  0.00  0.00     0.026 C 
HETATM   36  N   UNK N   1      35.267   8.515  22.979  0.00  0.00    -0.334 N 
HETATM   37  C   UNK N   1      34.137   8.018  22.352  0.00  0.00     0.244 C 
HETATM   38  O   UNK N   1      33.248   7.519  23.025  0.00  0.00    -0.271 OA
BRANCH  37  39
HETATM   39  C   UNK N   1      33.874   8.212  20.854  0.00  0.00     0.182 C 
BRANCH  39  40
HETATM   40  C   UNK N   1      32.740   9.258  20.686  0.00  0.00     0.009 C 
HETATM   41  C   UNK N   1      32.586  10.200  21.868  0.00  0.00     0.012 C 
HETATM   42  C   UNK N   1      31.382   8.654  20.364  0.00  0.00     0.012 C 
ENDBRANCH  39  40
BRANCH  39  43
HETATM   43  N   UNK N   1      33.489   6.981  20.184  0.00  0.00    -0.323 N 
HETATM   44  C   UNK N   1      34.411   6.141  19.628  0.00  0.00     0.360 C 
HETATM   45  O   UNK N   1      35.607   6.354  19.772  0.00  0.00    -0.239 OA
HETATM   46  H   UNK N   1      32.535   6.746  20.129  0.00  0.00     0.165 HD
BRANCH  44  47
HETATM   47  O   UNK N   1      34.021   5.078  18.885  0.00  0.00    -0.309 OA
HETATM   48  C   UNK N   1      34.892   4.092  18.489  0.00  0.00     0.215 C 
ENDBRANCH  44  47
ENDBRANCH  39  43
ENDBRANCH  37  39
ENDBRANCH  22  28
ENDBRANCH   1  17
BRANCH  13  49
HETATM   49  C   UNK N   1      35.714  11.749  10.933  0.00  0.00     0.066 C 
HETATM   50  C   UNK N   1      36.953  12.428  11.061  0.00  0.00    -0.011 C 
HETATM   51  C   UNK N   1      37.078  13.724  10.563  0.00  0.00     0.029 C 
HETATM   52  C   UNK N   1      35.977  14.227   9.892  0.00  0.00     0.060 A 
HETATM   53  C   UNK N   1      34.921  13.460   9.546  0.00  0.00     0.057 A 
HETATM   54  N   UNK N   1      35.765  15.470   9.510  0.00  0.00    -0.342 N 
HETATM   55  C   UNK N   1      34.790  12.180   9.979  0.00  0.00     0.018 C 
HETATM   56  N   UNK N   1      34.005  14.189   8.907  0.00  0.00    -0.343 N 
HETATM   57  C   UNK N   1      34.545  15.428   8.917  0.00  0.00     0.105 A 
HETATM   58  H   UNK N   1      33.147  13.897   8.524  0.00  0.00     0.167 HD
ATOM     59  HN  UNK N   1      36.377  16.277   9.632  1.00  0.00     0.167 HD
BRANCH  57  60
HETATM   60  C   UNK N   1      34.019  16.586   8.131  0.00  0.00     0.156 C 
HETATM   61  C   UNK N   1      32.744  17.131   8.774  0.00  0.00     0.040 C 
HETATM   62  C   UNK N   1      31.684  16.176   8.251  0.00  0.00     0.011 C 
HETATM   63  C   UNK N   1      30.246  16.679   8.385  0.00  0.00     0.007 C 
HETATM   64  C   UNK N   1      32.136  15.829   6.825  0.00  0.00     0.092 C 
HETATM   65  C   UNK N   1      29.950  17.774   7.371  0.00  0.00     0.001 C 
HETATM   66  C   UNK N   1      30.200  17.233   5.972  0.00  0.00     0.002 C 
HETATM   67  C   UNK N   1      31.674  16.900   5.825  0.00  0.00     0.026 C 
HETATM   68  N   UNK N   1      33.566  15.964   6.910  0.00  0.00    -0.334 N 
HETATM   69  C   UNK N   1      34.456  15.383   6.042  0.00  0.00     0.244 C 
HETATM   70  O   UNK N   1      35.644  15.675   6.099  0.00  0.00    -0.271 OA
BRANCH  69  71
HETATM   71  C   UNK N   1      34.058  14.229   5.164  0.00  0.00     0.182 C 
BRANCH  71  72
HETATM   72  C   UNK N   1      33.902  14.389   3.663  0.00  0.00     0.009 C 
HETATM   73  C   UNK N   1      32.473  14.144   3.217  0.00  0.00     0.012 C 
HETATM   74  C   UNK N   1      34.857  13.469   2.938  0.00  0.00     0.012 C 
ENDBRANCH  71  72
BRANCH  71  75
HETATM   75  N   UNK N   1      34.600  12.960   5.632  0.00  0.00    -0.323 N 
HETATM   76  C   UNK N   1      33.898  12.031   6.334  0.00  0.00     0.360 C 
HETATM   77  O   UNK N   1      32.740  12.246   6.662  0.00  0.00    -0.239 OA
HETATM   78  H   UNK N   1      35.542  12.761   5.426  0.00  0.00     0.165 HD
BRANCH  76  79
HETATM   79  O   UNK N   1      34.496  10.858   6.667  0.00  0.00    -0.309 OA
HETATM   80  C   UNK N   1      35.865  10.710   6.691  0.00  0.00     0.215 C 
ENDBRANCH  76  79
ENDBRANCH  71  75
ENDBRANCH  69  71
ENDBRANCH  57  60
ENDBRANCH  13  49
TORSDOF 12
ENDMDL
MODEL 9
REMARK VINA RESULT:      -9.0      2.183     12.278
REMARK  12 active torsions:
REMARK  status: ('A' for Active; 'I' for Inactive)
REMARK    1  A    between atoms: C_2  and  C_4 
REMARK    2  A    between atoms: C_4  and  C_5 
REMARK    3  A    between atoms: C_4  and  N_72 
REMARK       I    between atoms: C_5  and  N_7 
REMARK    4  A    between atoms: C_15  and  C_16 
REMARK    5  A    between atoms: C_20  and  C_26 
REMARK    6  A    between atoms: C_38  and  C_40 
REMARK    7  A    between atoms: C_50  and  C_47 
REMARK       I    between atoms: N_58  and  C_59 
REMARK    8  A    between atoms: C_59  and  C_61 
REMARK    9  A    between atoms: C_61  and  C_62 
REMARK   10  A    between atoms: C_61  and  N_65 
REMARK       I    between atoms: N_65  and  C_66 
REMARK   11  A    between atoms: C_66  and  O_68 
REMARK       I    between atoms: N_72  and  C_73 
REMARK   12  A    between atoms: C_73  and  O_75 
ROOT
HETATM    1  C   UNK N   1      34.450  15.829   6.213  0.00  0.00    -0.019 C 
HETATM    2  C   UNK N   1      34.366  16.124   4.856  0.00  0.00     0.020 C 
HETATM    3  C   UNK N   1      33.432  17.069   4.416  0.00  0.00    -0.057 C 
HETATM    4  C   UNK N   1      32.677  17.802   5.342  0.00  0.00     0.007 C 
HETATM    5  C   UNK N   1      32.715  17.473   6.694  0.00  0.00     0.008 C 
HETATM    6  C   UNK N   1      33.518  16.420   7.122  0.00  0.00    -0.047 C 
HETATM    7  C   UNK N   1      33.199  15.768   8.490  0.00  0.00     0.044 C 
HETATM    8  C   UNK N   1      32.617  14.286   8.397  0.00  0.00     0.043 C 
HETATM    9  C   UNK N   1      31.917  14.073   7.087  0.00  0.00    -0.057 C 
HETATM   10  C   UNK N   1      32.608  13.417   6.069  0.00  0.00     0.007 C 
HETATM   11  C   UNK N   1      32.480  13.841   4.750  0.00  0.00     0.008 C 
HETATM   12  C   UNK N   1      31.674  14.937   4.449  0.00  0.00    -0.051 C 
HETATM   13  C   UNK N   1      30.800  15.455   5.482  0.00  0.00    -0.040 C 
HETATM   14  C   UNK N   1      30.933  14.991   6.779  0.00  0.00     0.015 C 
HETATM   15  C   UNK N   1      31.894  15.565   3.062  0.00  0.00     0.043 C 
HETATM   16  C   UNK N   1      32.827  16.848   3.062  0.00  0.00     0.043 C 
ENDROOT
BRANCH   1  17
HETATM   17  C   UNK N   1      35.345  14.811   6.742  0.00  0.00    -0.023 A 
HETATM   18  C   UNK N   1      35.386  14.817   8.115  0.00  0.00     0.044 A 
HETATM   19  C   UNK N   1      35.812  13.729   8.746  0.00  0.00     0.061 A 
HETATM   20  N   UNK N   1      35.849  13.598  10.047  0.00  0.00    -0.342 N 
HETATM   21  C   UNK N   1      36.234  12.606   8.125  0.00  0.00     0.060 A 
HETATM   22  C   UNK N   1      36.319  12.366  10.226  0.00  0.00     0.105 A 
HETATM   23  H   UNK N   1      35.590  14.257  10.732  0.00  0.00     0.167 HD
HETATM   24  N   UNK N   1      36.574  11.698   9.060  0.00  0.00    -0.342 N 
ATOM     25  HN  UNK N   1      36.932  10.752   8.931  1.00  0.00     0.167 HD
HETATM   26  C   UNK N   1      36.316  12.552   6.724  0.00  0.00     0.033 A 
HETATM   27  C   UNK N   1      35.857  13.697   6.011  0.00  0.00     0.014 A 
BRANCH  22  28
HETATM   28  C   UNK N   1      36.662  11.979  11.581  0.00  0.00     0.156 C 
HETATM   29  C   UNK N   1      37.181  13.060  12.512  0.00  0.00     0.040 C 
HETATM   30  C   UNK N   1      36.184  12.969  13.636  0.00  0.00     0.011 C 
HETATM   31  C   UNK N   1      36.579  13.474  15.005  0.00  0.00     0.007 C 
HETATM   32  C   UNK N   1      35.721  11.526  13.695  0.00  0.00     0.092 C 
HETATM   33  C   UNK N   1      35.314  13.435  15.869  0.00  0.00     0.001 C 
HETATM   34  C   UNK N   1      34.621  12.057  15.834  0.00  0.00     0.002 C 
HETATM   35  C   UNK N   1      34.375  11.573  14.398  0.00  0.00     0.026 C 
HETATM   36  N   UNK N   1      35.695  11.183  12.302  0.00  0.00    -0.334 N 
HETATM   37  C   UNK N   1      34.979  10.118  11.782  0.00  0.00     0.244 C 
HETATM   38  O   UNK N   1      34.368   9.379  12.539  0.00  0.00    -0.271 OA
BRANCH  37  39
HETATM   39  C   UNK N   1      34.786   9.913  10.274  0.00  0.00     0.182 C 
BRANCH  39  40
HETATM   40  C   UNK N   1      33.313  10.256   9.919  0.00  0.00     0.009 C 
HETATM   41  C   UNK N   1      32.339   9.114  10.152  0.00  0.00     0.012 C 
HETATM   42  C   UNK N   1      33.123  10.779   8.504  0.00  0.00     0.012 C 
ENDBRANCH  39  40
BRANCH  39  43
HETATM   43  N   UNK N   1      35.075   8.555   9.846  0.00  0.00    -0.323 N 
HETATM   44  C   UNK N   1      36.313   8.186   9.401  0.00  0.00     0.360 C 
HETATM   45  O   UNK N   1      37.247   8.973   9.449  0.00  0.00    -0.239 OA
HETATM   46  H   UNK N   1      34.358   7.882   9.878  0.00  0.00     0.165 HD
BRANCH  44  47
HETATM   47  O   UNK N   1      36.520   6.956   8.871  0.00  0.00    -0.309 OA
HETATM   48  C   UNK N   1      35.644   5.915   9.056  0.00  0.00     0.215 C 
ENDBRANCH  44  47
ENDBRANCH  39  43
ENDBRANCH  37  39
ENDBRANCH  22  28
ENDBRANCH   1  17
BRANCH  13  49
HETATM   49  C   UNK N   1      29.738  16.437   5.242  0.00  0.00     0.066 C 
HETATM   50  C   UNK N   1      29.209  16.812   6.504  0.00  0.00    -0.011 C 
HETATM   51  C   UNK N   1      27.921  16.408   6.854  0.00  0.00     0.029 C 
HETATM   52  C   UNK N   1      27.213  15.724   5.881  0.00  0.00     0.060 A 
HETATM   53  C   UNK N   1      27.638  15.627   4.603  0.00  0.00     0.057 A 
HETATM   54  N   UNK N   1      26.079  15.069   6.021  0.00  0.00    -0.342 N 
HETATM   55  C   UNK N   1      28.869  16.050   4.221  0.00  0.00     0.018 C 
HETATM   56  N   UNK N   1      26.770  14.922   3.876  0.00  0.00    -0.343 N 
HETATM   57  C   UNK N   1      25.828  14.575   4.782  0.00  0.00     0.105 A 
HETATM   58  H   UNK N   1      26.806  14.706   2.917  0.00  0.00     0.167 HD
ATOM     59  HN  UNK N   1      25.518  14.958   6.866  1.00  0.00     0.167 HD
BRANCH  57  60
HETATM   60  C   UNK N   1      24.511  13.958   4.438  0.00  0.00     0.156 C 
HETATM   61  C   UNK N   1      24.603  13.210   3.108  0.00  0.00     0.040 C 
HETATM   62  C   UNK N   1      24.447  14.332   2.095  0.00  0.00     0.011 C 
HETATM   63  C   UNK N   1      24.094  13.872   0.680  0.00  0.00     0.007 C 
HETATM   64  C   UNK N   1      23.455  15.311   2.741  0.00  0.00     0.092 C 
HETATM   65  C   UNK N   1      22.646  13.414   0.595  0.00  0.00     0.001 C 
HETATM   66  C   UNK N   1      21.740  14.554   1.028  0.00  0.00     0.002 C 
HETATM   67  C   UNK N   1      22.004  14.871   2.489  0.00  0.00     0.026 C 
HETATM   68  N   UNK N   1      23.687  15.106   4.146  0.00  0.00    -0.334 N 
HETATM   69  C   UNK N   1      23.358  16.006   5.129  0.00  0.00     0.244 C 
HETATM   70  O   UNK N   1      23.452  15.685   6.307  0.00  0.00    -0.271 OA
BRANCH  69  71
HETATM   71  C   UNK N   1      23.094  17.452   4.813  0.00  0.00     0.182 C 
BRANCH  71  72
HETATM   72  C   UNK N   1      21.685  18.018   4.794  0.00  0.00     0.009 C 
HETATM   73  C   UNK N   1      21.589  19.256   3.924  0.00  0.00     0.012 C 
HETATM   74  C   UNK N   1      21.222  18.312   6.202  0.00  0.00     0.012 C 
ENDBRANCH  71  72
BRANCH  71  75
HETATM   75  N   UNK N   1      24.144  18.332   5.313  0.00  0.00    -0.323 N 
HETATM   76  C   UNK N   1      25.306  18.596   4.660  0.00  0.00     0.360 C 
HETATM   77  O   UNK N   1      25.559  18.047   3.596  0.00  0.00    -0.239 OA
HETATM   78  H   UNK N   1      24.001  18.765   6.185  0.00  0.00     0.165 HD
BRANCH  76  79
HETATM   79  O   UNK N   1      26.185  19.479   5.199  0.00  0.00    -0.309 OA
HETATM   80  C   UNK N   1      27.471  19.620   4.729  0.00  0.00     0.215 C 
ENDBRANCH  76  79
ENDBRANCH  71  75
ENDBRANCH  69  71
ENDBRANCH  57  60
ENDBRANCH  13  49
TORSDOF 12
ENDMDL
