MODEL 1
REMARK VINA RESULT:      -6.0      0.000      0.000
REMARK  6 active torsions:
REMARK  status: ('A' for Active; 'I' for Inactive)
REMARK    1  A    between atoms: C_2  and  C_11 
REMARK    2  A    between atoms: C_5  and  O_10 
REMARK    3  A    between atoms: C_7  and  C_8 
REMARK    4  A    between atoms: C_8  and  O_9 
REMARK    5  A    between atoms: C_16  and  C_17 
REMARK    6  A    between atoms: C_17  and  N_18 
ROOT
HETATM    1  C   UNK N   1      31.063  15.523   6.833  0.00  0.00     0.000 C 
HETATM    2  C   UNK N   1      30.952  14.423   5.773  0.00  0.00     0.007 C 
HETATM    3  C   UNK N   1      31.134  14.982   4.369  0.00  0.00     0.014 C 
HETATM    4  C   UNK N   1      30.090  16.047   4.014  0.00  0.00    -0.017 C 
HETATM    5  C   UNK N   1      29.990  17.155   5.080  0.00  0.00     0.004 C 
HETATM    6  C   UNK N   1      29.976  16.587   6.523  0.00  0.00     0.013 C 
HETATM    7  C   UNK N   1      28.601  17.750   4.820  0.00  0.00     0.010 C 
HETATM    8  C   UNK N   1      27.706  16.555   4.483  0.00  0.00     0.034 C 
HETATM    9  C   UNK N   1      28.677  15.567   3.943  0.00  0.00    -0.081 C 
HETATM   10  C   UNK N   1      28.278  14.568   3.150  0.00  0.00     0.015 C 
HETATM   11  C   UNK N   1      30.477  16.651   2.670  0.00  0.00     0.020 C 
ENDROOT
BRANCH   1  12
HETATM   12  C   UNK N   1      32.508  16.010   7.197  0.00  0.00    -0.034 C 
HETATM   13  C   UNK N   1      33.551  14.953   6.829  0.00  0.00     0.016 C 
HETATM   14  C   UNK N   1      32.747  17.285   6.367  0.00  0.00     0.012 C 
HETATM   15  C   UNK N   1      34.070  17.977   6.670  0.00  0.00     0.032 C 
HETATM   16  C   UNK N   1      34.093  18.381   8.132  0.00  0.00     0.118 C 
HETATM   17  C   UNK N   1      33.972  17.134   8.991  0.00  0.00     0.039 C 
HETATM   18  C   UNK N   1      32.650  16.405   8.707  0.00  0.00     0.020 C 
BRANCH  16  19
HETATM   19  O   UNK N   1      35.292  19.032   8.416  0.00  0.00    -0.396 OA
HETATM   20  H   UNK N   1      36.152  18.842   8.008  0.00  0.00     0.210 HD
ENDBRANCH  16  19
BRANCH  18  21
HETATM   21  C   UNK N   1      32.559  15.210   9.657  0.00  0.00     0.169 C 
BRANCH  21  22
HETATM   22  O   UNK N   1      31.398  15.286  10.428  0.00  0.00    -0.400 OA
HETATM   23  H   UNK N   1      31.373  15.472  11.379  0.00  0.00     0.209 HD
ENDBRANCH  21  22
ENDBRANCH  18  21
ENDBRANCH   1  12
BRANCH   6  24
HETATM   24  C   UNK N   1      29.750  17.663   7.592  0.00  0.00     0.116 C 
BRANCH  24  25
HETATM   25  N   UNK N   1      29.145  17.099   8.791  0.00  0.00    -0.430 N 
HETATM   26  H   UNK N   1      28.768  17.114   9.738  0.00  0.00     0.149 HD
HETATM   27  H   UNK N   1      29.031  16.119   8.531  0.00  0.00     0.149 HD
ENDBRANCH  24  25
ENDBRANCH   6  24
TORSDOF 6
ENDMDL
MODEL 2
REMARK VINA RESULT:      -5.8      3.069      6.251
REMARK  6 active torsions:
REMARK  status: ('A' for Active; 'I' for Inactive)
REMARK    1  A    between atoms: C_2  and  C_11 
REMARK    2  A    between atoms: C_5  and  O_10 
REMARK    3  A    between atoms: C_7  and  C_8 
REMARK    4  A    between atoms: C_8  and  O_9 
REMARK    5  A    between atoms: C_16  and  C_17 
REMARK    6  A    between atoms: C_17  and  N_18 
ROOT
HETATM    1  C   UNK N   1      28.930  17.685   5.584  0.00  0.00     0.000 C 
HETATM    2  C   UNK N   1      30.219  17.719   4.758  0.00  0.00     0.007 C 
HETATM    3  C   UNK N   1      31.067  16.477   4.995  0.00  0.00     0.014 C 
HETATM    4  C   UNK N   1      31.484  16.314   6.460  0.00  0.00    -0.017 C 
HETATM    5  C   UNK N   1      30.290  16.404   7.429  0.00  0.00     0.004 C 
HETATM    6  C   UNK N   1      29.333  17.575   7.080  0.00  0.00     0.013 C 
HETATM    7  C   UNK N   1      30.961  16.758   8.761  0.00  0.00     0.010 C 
HETATM    8  C   UNK N   1      32.079  17.739   8.403  0.00  0.00     0.034 C 
HETATM    9  C   UNK N   1      32.389  17.375   6.996  0.00  0.00    -0.081 C 
HETATM   10  C   UNK N   1      33.567  17.685   6.445  0.00  0.00     0.015 C 
HETATM   11  C   UNK N   1      32.168  14.960   6.603  0.00  0.00     0.020 C 
ENDROOT
BRANCH   1  12
HETATM   12  C   UNK N   1      27.772  16.775   5.050  0.00  0.00    -0.034 C 
HETATM   13  C   UNK N   1      27.812  16.677   3.523  0.00  0.00     0.016 C 
HETATM   14  C   UNK N   1      28.010  15.382   5.664  0.00  0.00     0.012 C 
HETATM   15  C   UNK N   1      26.911  14.375   5.349  0.00  0.00     0.032 C 
HETATM   16  C   UNK N   1      25.594  14.891   5.897  0.00  0.00     0.118 C 
HETATM   17  C   UNK N   1      25.266  16.216   5.230  0.00  0.00     0.039 C 
HETATM   18  C   UNK N   1      26.358  17.256   5.522  0.00  0.00     0.020 C 
BRANCH  16  19
HETATM   19  O   UNK N   1      24.585  13.968   5.630  0.00  0.00    -0.396 OA
HETATM   20  H   UNK N   1      24.601  13.026   5.862  0.00  0.00     0.210 HD
ENDBRANCH  16  19
BRANCH  18  21
HETATM   21  C   UNK N   1      25.926  18.580   4.890  0.00  0.00     0.169 C 
BRANCH  21  22
HETATM   22  O   UNK N   1      25.843  19.581   5.860  0.00  0.00    -0.400 OA
HETATM   23  H   UNK N   1      26.260  19.543   6.735  0.00  0.00     0.209 HD
ENDBRANCH  21  22
ENDBRANCH  18  21
ENDBRANCH   1  12
BRANCH   6  24
HETATM   24  C   UNK N   1      28.208  17.761   8.105  0.00  0.00     0.116 C 
BRANCH  24  25
HETATM   25  N   UNK N   1      27.803  19.156   8.199  0.00  0.00    -0.430 N 
HETATM   26  H   UNK N   1      27.416  19.984   8.651  0.00  0.00     0.149 HD
HETATM   27  H   UNK N   1      28.048  19.512   7.275  0.00  0.00     0.149 HD
ENDBRANCH  24  25
ENDBRANCH   6  24
TORSDOF 6
ENDMDL
MODEL 3
REMARK VINA RESULT:      -5.8      8.358     10.895
REMARK  6 active torsions:
REMARK  status: ('A' for Active; 'I' for Inactive)
REMARK    1  A    between atoms: C_2  and  C_11 
REMARK    2  A    between atoms: C_5  and  O_10 
REMARK    3  A    between atoms: C_7  and  C_8 
REMARK    4  A    between atoms: C_8  and  O_9 
REMARK    5  A    between atoms: C_16  and  C_17 
REMARK    6  A    between atoms: C_17  and  N_18 
ROOT
HETATM    1  C   UNK N   1      22.671  15.459   6.874  0.00  0.00     0.000 C 
HETATM    2  C   UNK N   1      24.078  14.901   7.105  0.00  0.00     0.007 C 
HETATM    3  C   UNK N   1      24.103  13.384   6.986  0.00  0.00     0.014 C 
HETATM    4  C   UNK N   1      23.182  12.694   7.998  0.00  0.00    -0.017 C 
HETATM    5  C   UNK N   1      21.750  13.262   7.977  0.00  0.00     0.004 C 
HETATM    6  C   UNK N   1      21.730  14.813   7.926  0.00  0.00     0.013 C 
HETATM    7  C   UNK N   1      21.204  12.853   9.350  0.00  0.00     0.010 C 
HETATM    8  C   UNK N   1      22.373  13.032  10.320  0.00  0.00     0.034 C 
HETATM    9  C   UNK N   1      23.555  12.868   9.434  0.00  0.00    -0.081 C 
HETATM   10  C   UNK N   1      24.750  12.531   9.930  0.00  0.00     0.015 C 
HETATM   11  C   UNK N   1      23.156  11.207   7.668  0.00  0.00     0.020 C 
ENDROOT
BRANCH   1  12
HETATM   12  C   UNK N   1      22.182  15.552   5.387  0.00  0.00    -0.034 C 
HETATM   13  C   UNK N   1      23.358  15.799   4.439  0.00  0.00     0.016 C 
HETATM   14  C   UNK N   1      21.537  14.190   5.068  0.00  0.00     0.012 C 
HETATM   15  C   UNK N   1      20.894  14.123   3.688  0.00  0.00     0.032 C 
HETATM   16  C   UNK N   1      19.801  15.172   3.599  0.00  0.00     0.118 C 
HETATM   17  C   UNK N   1      20.418  16.546   3.799  0.00  0.00     0.039 C 
HETATM   18  C   UNK N   1      21.082  16.648   5.179  0.00  0.00     0.020 C 
BRANCH  16  19
HETATM   19  O   UNK N   1      19.194  15.106   2.346  0.00  0.00    -0.396 OA
HETATM   20  H   UNK N   1      18.249  15.228   2.167  0.00  0.00     0.210 HD
ENDBRANCH  16  19
BRANCH  18  21
HETATM   21  C   UNK N   1      21.609  18.074   5.342  0.00  0.00     0.169 C 
BRANCH  21  22
HETATM   22  O   UNK N   1      21.344  18.550   6.628  0.00  0.00    -0.400 OA
HETATM   23  H   UNK N   1      20.957  18.026   7.346  0.00  0.00     0.209 HD
ENDBRANCH  21  22
ENDBRANCH  18  21
ENDBRANCH   1  12
BRANCH   6  24
HETATM   24  C   UNK N   1      20.318  15.401   8.033  0.00  0.00     0.116 C 
BRANCH  24  25
HETATM   25  N   UNK N   1      20.323  16.659   8.767  0.00  0.00    -0.430 N 
HETATM   26  H   UNK N   1      20.725  17.400   9.340  0.00  0.00     0.149 HD
HETATM   27  H   UNK N   1      19.369  16.992   8.625  0.00  0.00     0.149 HD
ENDBRANCH  24  25
ENDBRANCH   6  24
TORSDOF 6
ENDMDL
MODEL 4
REMARK VINA RESULT:      -5.8      6.488     10.103
REMARK  6 active torsions:
REMARK  status: ('A' for Active; 'I' for Inactive)
REMARK    1  A    between atoms: C_2  and  C_11 
REMARK    2  A    between atoms: C_5  and  O_10 
REMARK    3  A    between atoms: C_7  and  C_8 
REMARK    4  A    between atoms: C_8  and  O_9 
REMARK    5  A    between atoms: C_16  and  C_17 
REMARK    6  A    between atoms: C_17  and  N_18 
ROOT
HETATM    1  C   UNK N   1      36.943  12.322  12.841  0.00  0.00     0.000 C 
HETATM    2  C   UNK N   1      36.944  10.840  13.227  0.00  0.00     0.007 C 
HETATM    3  C   UNK N   1      35.540  10.344  13.543  0.00  0.00     0.014 C 
HETATM    4  C   UNK N   1      34.890  11.104  14.704  0.00  0.00    -0.017 C 
HETATM    5  C   UNK N   1      34.946  12.632  14.517  0.00  0.00     0.004 C 
HETATM    6  C   UNK N   1      36.337  13.117  14.030  0.00  0.00     0.013 C 
HETATM    7  C   UNK N   1      34.767  13.155  15.947  0.00  0.00     0.010 C 
HETATM    8  C   UNK N   1      35.560  12.192  16.833  0.00  0.00     0.034 C 
HETATM    9  C   UNK N   1      35.550  10.938  16.035  0.00  0.00    -0.081 C 
HETATM   10  C   UNK N   1      35.755   9.749  16.611  0.00  0.00     0.015 C 
HETATM   11  C   UNK N   1      33.441  10.646  14.809  0.00  0.00     0.020 C 
ENDROOT
BRANCH   1  12
HETATM   12  C   UNK N   1      36.475  12.674  11.387  0.00  0.00    -0.034 C 
HETATM   13  C   UNK N   1      36.356  11.411  10.531  0.00  0.00     0.016 C 
HETATM   14  C   UNK N   1      35.091  13.331  11.535  0.00  0.00     0.012 C 
HETATM   15  C   UNK N   1      34.514  13.851  10.224  0.00  0.00     0.032 C 
HETATM   16  C   UNK N   1      35.451  14.897   9.651  0.00  0.00     0.118 C 
HETATM   17  C   UNK N   1      36.803  14.257   9.385  0.00  0.00     0.039 C 
HETATM   18  C   UNK N   1      37.413  13.714  10.686  0.00  0.00     0.020 C 
BRANCH  16  19
HETATM   19  O   UNK N   1      34.923  15.392   8.460  0.00  0.00    -0.396 OA
HETATM   20  H   UNK N   1      35.399  15.933   7.810  0.00  0.00     0.210 HD
ENDBRANCH  16  19
BRANCH  18  21
HETATM   21  C   UNK N   1      38.799  13.158  10.358  0.00  0.00     0.169 C 
BRANCH  21  22
HETATM   22  O   UNK N   1      39.114  13.388   9.018  0.00  0.00    -0.400 OA
HETATM   23  H   UNK N   1      39.849  13.940   8.707  0.00  0.00     0.209 HD
ENDBRANCH  21  22
ENDBRANCH  18  21
ENDBRANCH   1  12
BRANCH   6  24
HETATM   24  C   UNK N   1      36.452  14.644  13.958  0.00  0.00     0.116 C 
BRANCH  24  25
HETATM   25  N   UNK N   1      37.342  15.157  14.991  0.00  0.00    -0.430 N 
HETATM   26  H   UNK N   1      38.240  15.346  15.435  0.00  0.00     0.149 HD
HETATM   27  H   UNK N   1      36.684  15.561  15.658  0.00  0.00     0.149 HD
ENDBRANCH  24  25
ENDBRANCH   6  24
TORSDOF 6
ENDMDL
MODEL 5
REMARK VINA RESULT:      -5.8     12.599     15.138
REMARK  6 active torsions:
REMARK  status: ('A' for Active; 'I' for Inactive)
REMARK    1  A    between atoms: C_2  and  C_11 
REMARK    2  A    between atoms: C_5  and  O_10 
REMARK    3  A    between atoms: C_7  and  C_8 
REMARK    4  A    between atoms: C_8  and  O_9 
REMARK    5  A    between atoms: C_16  and  C_17 
REMARK    6  A    between atoms: C_17  and  N_18 
ROOT
HETATM    1  C   UNK N   1      28.553  25.333  -5.785  0.00  0.00     0.000 C 
HETATM    2  C   UNK N   1      29.067  26.690  -6.274  0.00  0.00     0.007 C 
HETATM    3  C   UNK N   1      29.469  27.587  -5.112  0.00  0.00     0.014 C 
HETATM    4  C   UNK N   1      28.308  27.873  -4.154  0.00  0.00    -0.017 C 
HETATM    5  C   UNK N   1      27.596  26.589  -3.687  0.00  0.00     0.004 C 
HETATM    6  C   UNK N   1      27.339  25.598  -4.853  0.00  0.00     0.013 C 
HETATM    7  C   UNK N   1      26.227  27.107  -3.232  0.00  0.00     0.010 C 
HETATM    8  C   UNK N   1      25.847  28.190  -4.243  0.00  0.00     0.034 C 
HETATM    9  C   UNK N   1      27.172  28.655  -4.731  0.00  0.00    -0.081 C 
HETATM   10  C   UNK N   1      27.319  29.858  -5.295  0.00  0.00     0.015 C 
HETATM   11  C   UNK N   1      28.867  28.623  -2.952  0.00  0.00     0.020 C 
ENDROOT
BRANCH   1  12
HETATM   12  C   UNK N   1      29.632  24.290  -5.332  0.00  0.00    -0.034 C 
HETATM   13  C   UNK N   1      30.910  24.430  -6.161  0.00  0.00     0.016 C 
HETATM   14  C   UNK N   1      29.935  24.607  -3.856  0.00  0.00     0.012 C 
HETATM   15  C   UNK N   1      30.890  23.618  -3.198  0.00  0.00     0.032 C 
HETATM   16  C   UNK N   1      30.275  22.232  -3.244  0.00  0.00     0.118 C 
HETATM   17  C   UNK N   1      30.063  21.833  -4.694  0.00  0.00     0.039 C 
HETATM   18  C   UNK N   1      29.109  22.814  -5.393  0.00  0.00     0.020 C 
BRANCH  16  19
HETATM   19  O   UNK N   1      31.133  21.322  -2.628  0.00  0.00    -0.396 OA
HETATM   20  H   UNK N   1      31.454  20.493  -3.016  0.00  0.00     0.210 HD
ENDBRANCH  16  19
BRANCH  18  21
HETATM   21  C   UNK N   1      28.879  22.311  -6.818  0.00  0.00     0.169 C 
BRANCH  21  22
HETATM   22  O   UNK N   1      27.513  22.218  -7.090  0.00  0.00    -0.400 OA
HETATM   23  H   UNK N   1      26.855  21.814  -6.503  0.00  0.00     0.209 HD
ENDBRANCH  21  22
ENDBRANCH  18  21
ENDBRANCH   1  12
BRANCH   6  24
HETATM   24  C   UNK N   1      26.521  24.371  -4.434  0.00  0.00     0.116 C 
BRANCH  24  25
HETATM   25  N   UNK N   1      25.550  24.008  -5.456  0.00  0.00    -0.430 N 
HETATM   26  H   UNK N   1      24.956  24.160  -6.271  0.00  0.00     0.149 HD
HETATM   27  H   UNK N   1      25.344  23.037  -5.219  0.00  0.00     0.149 HD
ENDBRANCH  24  25
ENDBRANCH   6  24
TORSDOF 6
ENDMDL
MODEL 6
REMARK VINA RESULT:      -5.8     11.966     14.574
REMARK  6 active torsions:
REMARK  status: ('A' for Active; 'I' for Inactive)
REMARK    1  A    between atoms: C_2  and  C_11 
REMARK    2  A    between atoms: C_5  and  O_10 
REMARK    3  A    between atoms: C_7  and  C_8 
REMARK    4  A    between atoms: C_8  and  O_9 
REMARK    5  A    between atoms: C_16  and  C_17 
REMARK    6  A    between atoms: C_17  and  N_18 
ROOT
HETATM    1  C   UNK N   1      29.892  24.626  -5.869  0.00  0.00     0.000 C 
HETATM    2  C   UNK N   1      29.521  26.111  -5.830  0.00  0.00     0.007 C 
HETATM    3  C   UNK N   1      28.538  26.411  -4.706  0.00  0.00     0.014 C 
HETATM    4  C   UNK N   1      27.227  25.629  -4.841  0.00  0.00    -0.017 C 
HETATM    5  C   UNK N   1      27.455  24.118  -5.035  0.00  0.00     0.004 C 
HETATM    6  C   UNK N   1      28.579  23.817  -6.060  0.00  0.00     0.013 C 
HETATM    7  C   UNK N   1      26.137  23.656  -5.668  0.00  0.00     0.010 C 
HETATM    8  C   UNK N   1      25.738  24.773  -6.633  0.00  0.00     0.034 C 
HETATM    9  C   UNK N   1      26.395  25.965  -6.036  0.00  0.00    -0.081 C 
HETATM   10  C   UNK N   1      25.967  27.202  -6.311  0.00  0.00     0.015 C 
HETATM   11  C   UNK N   1      26.406  25.874  -3.581  0.00  0.00     0.020 C 
ENDROOT
BRANCH   1  12
HETATM   12  C   UNK N   1      30.931  24.128  -4.806  0.00  0.00    -0.034 C 
HETATM   13  C   UNK N   1      31.841  25.272  -4.354  0.00  0.00     0.016 C 
HETATM   14  C   UNK N   1      30.104  23.620  -3.610  0.00  0.00     0.012 C 
HETATM   15  C   UNK N   1      30.943  22.985  -2.508  0.00  0.00     0.032 C 
HETATM   16  C   UNK N   1      31.689  21.794  -3.078  0.00  0.00     0.118 C 
HETATM   17  C   UNK N   1      32.605  22.271  -4.192  0.00  0.00     0.039 C 
HETATM   18  C   UNK N   1      31.792  22.925  -5.320  0.00  0.00     0.020 C 
BRANCH  16  19
HETATM   19  O   UNK N   1      32.446  21.194  -2.073  0.00  0.00    -0.396 OA
HETATM   20  H   UNK N   1      32.407  20.260  -1.814  0.00  0.00     0.210 HD
ENDBRANCH  16  19
BRANCH  18  21
HETATM   21  C   UNK N   1      32.764  23.308  -6.437  0.00  0.00     0.169 C 
BRANCH  21  22
HETATM   22  O   UNK N   1      32.327  22.800  -7.662  0.00  0.00    -0.400 OA
HETATM   23  H   UNK N   1      32.231  23.317  -8.476  0.00  0.00     0.209 HD
ENDBRANCH  21  22
ENDBRANCH  18  21
ENDBRANCH   1  12
BRANCH   6  24
HETATM   24  C   UNK N   1      28.736  22.322  -6.362  0.00  0.00     0.116 C 
BRANCH  24  25
HETATM   25  N   UNK N   1      29.269  22.106  -7.699  0.00  0.00    -0.430 N 
HETATM   26  H   UNK N   1      29.233  22.040  -8.716  0.00  0.00     0.149 HD
HETATM   27  H   UNK N   1      30.250  21.899  -7.507  0.00  0.00     0.149 HD
ENDBRANCH  24  25
ENDBRANCH   6  24
TORSDOF 6
ENDMDL
MODEL 7
REMARK VINA RESULT:      -5.8     14.782     17.101
REMARK  6 active torsions:
REMARK  status: ('A' for Active; 'I' for Inactive)
REMARK    1  A    between atoms: C_2  and  C_11 
REMARK    2  A    between atoms: C_5  and  O_10 
REMARK    3  A    between atoms: C_7  and  C_8 
REMARK    4  A    between atoms: C_8  and  O_9 
REMARK    5  A    between atoms: C_16  and  C_17 
REMARK    6  A    between atoms: C_17  and  N_18 
ROOT
HETATM    1  C   UNK N   1      26.830  26.989  -4.193  0.00  0.00     0.000 C 
HETATM    2  C   UNK N   1      26.093  28.147  -3.515  0.00  0.00     0.007 C 
HETATM    3  C   UNK N   1      26.460  29.485  -4.139  0.00  0.00     0.014 C 
HETATM    4  C   UNK N   1      27.958  29.795  -4.040  0.00  0.00    -0.017 C 
HETATM    5  C   UNK N   1      28.837  28.642  -4.561  0.00  0.00     0.004 C 
HETATM    6  C   UNK N   1      28.354  27.257  -4.056  0.00  0.00     0.013 C 
HETATM    7  C   UNK N   1      30.187  28.916  -3.890  0.00  0.00     0.010 C 
HETATM    8  C   UNK N   1      29.847  29.401  -2.479  0.00  0.00     0.034 C 
HETATM    9  C   UNK N   1      28.489  29.978  -2.655  0.00  0.00    -0.081 C 
HETATM   10  C   UNK N   1      28.001  30.876  -1.793  0.00  0.00     0.015 C 
HETATM   11  C   UNK N   1      28.228  31.059  -4.846  0.00  0.00     0.020 C 
ENDROOT
BRANCH   1  12
HETATM   12  C   UNK N   1      26.275  26.512  -5.579  0.00  0.00    -0.034 C 
HETATM   13  C   UNK N   1      24.802  26.895  -5.739  0.00  0.00     0.016 C 
HETATM   14  C   UNK N   1      27.116  27.238  -6.646  0.00  0.00     0.012 C 
HETATM   15  C   UNK N   1      26.797  26.814  -8.074  0.00  0.00     0.032 C 
HETATM   16  C   UNK N   1      27.067  25.328  -8.221  0.00  0.00     0.118 C 
HETATM   17  C   UNK N   1      26.171  24.566  -7.261  0.00  0.00     0.039 C 
HETATM   18  C   UNK N   1      26.460  24.974  -5.808  0.00  0.00     0.020 C 
BRANCH  16  19
HETATM   19  O   UNK N   1      26.795  24.934  -9.530  0.00  0.00    -0.396 OA
HETATM   20  H   UNK N   1      26.245  25.418 -10.166  0.00  0.00     0.210 HD
ENDBRANCH  16  19
BRANCH  18  21
HETATM   21  C   UNK N   1      25.583  24.115  -4.896  0.00  0.00     0.169 C 
BRANCH  21  22
HETATM   22  O   UNK N   1      26.162  23.996  -3.632  0.00  0.00    -0.400 OA
HETATM   23  H   UNK N   1      25.808  23.457  -2.907  0.00  0.00     0.209 HD
ENDBRANCH  21  22
ENDBRANCH  18  21
ENDBRANCH   1  12
BRANCH   6  24
HETATM   24  C   UNK N   1      29.287  26.109  -4.459  0.00  0.00     0.116 C 
BRANCH  24  25
HETATM   25  N   UNK N   1      29.115  24.956  -3.586  0.00  0.00    -0.430 N 
HETATM   26  H   UNK N   1      28.744  24.439  -2.789  0.00  0.00     0.149 HD
HETATM   27  H   UNK N   1      29.715  24.261  -4.031  0.00  0.00     0.149 HD
ENDBRANCH  24  25
ENDBRANCH   6  24
TORSDOF 6
ENDMDL
MODEL 8
REMARK VINA RESULT:      -5.8      3.583      5.329
REMARK  6 active torsions:
REMARK  status: ('A' for Active; 'I' for Inactive)
REMARK    1  A    between atoms: C_2  and  C_11 
REMARK    2  A    between atoms: C_5  and  O_10 
REMARK    3  A    between atoms: C_7  and  C_8 
REMARK    4  A    between atoms: C_8  and  O_9 
REMARK    5  A    between atoms: C_16  and  C_17 
REMARK    6  A    between atoms: C_17  and  N_18 
ROOT
HETATM    1  C   UNK N   1      34.040  14.432   9.314  0.00  0.00     0.000 C 
HETATM    2  C   UNK N   1      32.814  14.203   8.427  0.00  0.00     0.007 C 
HETATM    3  C   UNK N   1      33.065  14.661   6.997  0.00  0.00     0.014 C 
HETATM    4  C   UNK N   1      33.407  16.152   6.904  0.00  0.00    -0.017 C 
HETATM    5  C   UNK N   1      34.543  16.560   7.860  0.00  0.00     0.004 C 
HETATM    6  C   UNK N   1      34.371  15.949   9.276  0.00  0.00     0.013 C 
HETATM    7  C   UNK N   1      34.342  18.073   7.999  0.00  0.00     0.010 C 
HETATM    8  C   UNK N   1      32.826  18.277   8.048  0.00  0.00     0.034 C 
HETATM    9  C   UNK N   1      32.318  17.091   7.310  0.00  0.00    -0.081 C 
HETATM   10  C   UNK N   1      31.100  17.089   6.758  0.00  0.00     0.015 C 
HETATM   11  C   UNK N   1      33.807  16.450   5.464  0.00  0.00     0.020 C 
ENDROOT
BRANCH   1  12
HETATM   12  C   UNK N   1      35.216  13.404   9.174  0.00  0.00    -0.034 C 
HETATM   13  C   UNK N   1      34.725  12.092   8.558  0.00  0.00     0.016 C 
HETATM   14  C   UNK N   1      36.246  14.063   8.237  0.00  0.00     0.012 C 
HETATM   15  C   UNK N   1      37.527  13.255   8.067  0.00  0.00     0.032 C 
HETATM   16  C   UNK N   1      38.190  13.089   9.421  0.00  0.00     0.118 C 
HETATM   17  C   UNK N   1      37.246  12.341  10.346  0.00  0.00     0.039 C 
HETATM   18  C   UNK N   1      35.938  13.123  10.536  0.00  0.00     0.020 C 
BRANCH  16  19
HETATM   19  O   UNK N   1      39.373  12.366   9.273  0.00  0.00    -0.396 OA
HETATM   20  H   UNK N   1      40.268  12.704   9.436  0.00  0.00     0.210 HD
ENDBRANCH  16  19
BRANCH  18  21
HETATM   21  C   UNK N   1      35.072  12.355  11.535  0.00  0.00     0.169 C 
BRANCH  21  22
HETATM   22  O   UNK N   1      34.497  13.230  12.458  0.00  0.00    -0.400 OA
HETATM   23  H   UNK N   1      34.404  13.054  13.407  0.00  0.00     0.209 HD
ENDBRANCH  21  22
ENDBRANCH  18  21
ENDBRANCH   1  12
BRANCH   6  24
HETATM   24  C   UNK N   1      35.422  16.443  10.278  0.00  0.00     0.116 C 
BRANCH  24  25
HETATM   25  N   UNK N   1      35.013  16.173  11.649  0.00  0.00    -0.430 N 
HETATM   26  H   UNK N   1      34.998  16.310  12.659  0.00  0.00     0.149 HD
HETATM   27  H   UNK N   1      34.367  15.393  11.529  0.00  0.00     0.149 HD
ENDBRANCH  24  25
ENDBRANCH   6  24
TORSDOF 6
ENDMDL
MODEL 9
REMARK VINA RESULT:      -5.5      7.799     11.107
REMARK  6 active torsions:
REMARK  status: ('A' for Active; 'I' for Inactive)
REMARK    1  A    between atoms: C_2  and  C_11 
REMARK    2  A    between atoms: C_5  and  O_10 
REMARK    3  A    between atoms: C_7  and  C_8 
REMARK    4  A    between atoms: C_8  and  O_9 
REMARK    5  A    between atoms: C_16  and  C_17 
REMARK    6  A    between atoms: C_17  and  N_18 
ROOT
HETATM    1  C   UNK N   1      37.124  11.710  13.669  0.00  0.00     0.000 C 
HETATM    2  C   UNK N   1      37.585  10.671  14.694  0.00  0.00     0.007 C 
HETATM    3  C   UNK N   1      36.411   9.874  15.248  0.00  0.00     0.014 C 
HETATM    4  C   UNK N   1      35.373  10.758  15.948  0.00  0.00    -0.017 C 
HETATM    5  C   UNK N   1      34.920  11.944  15.075  0.00  0.00     0.004 C 
HETATM    6  C   UNK N   1      36.110  12.651  14.375  0.00  0.00     0.013 C 
HETATM    7  C   UNK N   1      34.360  12.929  16.108  0.00  0.00     0.010 C 
HETATM    8  C   UNK N   1      35.299  12.831  17.312  0.00  0.00     0.034 C 
HETATM    9  C   UNK N   1      35.845  11.455  17.183  0.00  0.00    -0.081 C 
HETATM   10  C   UNK N   1      36.364  10.814  18.236  0.00  0.00     0.015 C 
HETATM   11  C   UNK N   1      34.176   9.883  16.299  0.00  0.00     0.020 C 
ENDROOT
BRANCH   1  12
HETATM   12  C   UNK N   1      36.784  11.183  12.232  0.00  0.00    -0.034 C 
HETATM   13  C   UNK N   1      37.781  10.109  11.793  0.00  0.00     0.016 C 
HETATM   14  C   UNK N   1      35.373  10.572  12.328  0.00  0.00     0.012 C 
HETATM   15  C   UNK N   1      34.815  10.101  10.991  0.00  0.00     0.032 C 
HETATM   16  C   UNK N   1      34.730  11.285  10.046  0.00  0.00     0.118 C 
HETATM   17  C   UNK N   1      36.124  11.851   9.836  0.00  0.00     0.039 C 
HETATM   18  C   UNK N   1      36.722  12.330  11.167  0.00  0.00     0.020 C 
BRANCH  16  19
HETATM   19  O   UNK N   1      34.202  10.869   8.825  0.00  0.00    -0.396 OA
HETATM   20  H   UNK N   1      33.365  11.167   8.437  0.00  0.00     0.210 HD
ENDBRANCH  16  19
BRANCH  18  21
HETATM   21  C   UNK N   1      38.085  12.956  10.870  0.00  0.00     0.169 C 
BRANCH  21  22
HETATM   22  O   UNK N   1      37.956  14.328  10.650  0.00  0.00    -0.400 OA
HETATM   23  H   UNK N   1      38.611  14.883  10.198  0.00  0.00     0.209 HD
ENDBRANCH  21  22
ENDBRANCH  18  21
ENDBRANCH   1  12
BRANCH   6  24
HETATM   24  C   UNK N   1      35.695  13.909  13.604  0.00  0.00     0.116 C 
BRANCH  24  25
HETATM   25  N   UNK N   1      36.736  14.926  13.651  0.00  0.00    -0.430 N 
HETATM   26  H   UNK N   1      37.571  15.386  14.012  0.00  0.00     0.149 HD
HETATM   27  H   UNK N   1      36.481  15.528  12.868  0.00  0.00     0.149 HD
ENDBRANCH  24  25
ENDBRANCH   6  24
TORSDOF 6
ENDMDL
