REMARK WARNING: 32 MAX_TORS EXCEEDED!!!
REMARK  47 active torsions:
REMARK  status: ('A' for Active; 'I' for Inactive)
REMARK    1  A    between atoms: C_2  and  C_3 
REMARK    2  A    between atoms: C_2  and  N_34 
REMARK       I    between atoms: C_3  and  N_5 
REMARK    3  A    between atoms: C_6  and  N_5 
REMARK    4  A    between atoms: C_6  and  C_7 
REMARK    5  A    between atoms: C_6  and  C_11 
REMARK    6  A    between atoms: C_7  and  C_8 
REMARK       I    between atoms: C_11  and  N_13 
REMARK    7  A    between atoms: C_14  and  N_13 
REMARK    8  A    between atoms: C_14  and  C_15 
REMARK    9  A    between atoms: C_14  and  C_19 
REMARK   10  A    between atoms: C_15  and  C_16 
REMARK       I    between atoms: C_16  and  N_18 
REMARK       I    between atoms: C_19  and  N_21 
REMARK   11  A    between atoms: C_22  and  N_21 
REMARK   12  A    between atoms: C_22  and  C_23 
REMARK   13  A    between atoms: C_22  and  C_25 
REMARK   14  A    between atoms: C_23  and  O_24 
REMARK       I    between atoms: C_25  and  N_27 
REMARK   15  A    between atoms: C_28  and  N_27 
REMARK   16  A    between atoms: C_28  and  C_29 
REMARK   17  A    between atoms: C_28  and  C_31 
REMARK   18  A    between atoms: C_29  and  O_30 
REMARK   19  A    between atoms: C_31  and  O_33 
REMARK       I    between atoms: N_34  and  C_35 
REMARK   20  A    between atoms: C_35  and  C_37 
REMARK   21  A    between atoms: C_37  and  C_38 
REMARK   22  A    between atoms: C_37  and  N_46 
REMARK   23  A    between atoms: C_38  and  C_39 
REMARK   24  A    between atoms: C_39  and  C_40 
REMARK   25  A    between atoms: C_40  and  N_41 
REMARK       I    between atoms: N_41  and  C_42 
REMARK       I    between atoms: C_42  and  N_45 
REMARK       I    between atoms: N_46  and  C_47 
REMARK   26  A    between atoms: C_47  and  C_49 
REMARK   27  A    between atoms: C_49  and  C_50 
REMARK   28  A    between atoms: C_49  and  N_55 
REMARK   29  A    between atoms: C_50  and  C_51 
REMARK   30  A    between atoms: C_51  and  C_52 
REMARK   31  A    between atoms: C_52  and  O_54 
REMARK       I    between atoms: N_55  and  C_56 
REMARK   32  A    between atoms: C_56  and  C_58 
REMARK   33  A    between atoms: C_58  and  C_59 
REMARK   34  A    between atoms: C_58  and  N_63 
REMARK   35  A    between atoms: C_59  and  C_60 
REMARK       I    between atoms: N_63  and  C_64 
REMARK   36  A    between atoms: C_64  and  C_66 
REMARK   37  A    between atoms: C_66  and  C_67 
REMARK   38  A    between atoms: C_66  and  N_72 
REMARK   39  A    between atoms: C_67  and  C_68 
REMARK   40  A    between atoms: C_68  and  C_69 
REMARK       I    between atoms: C_69  and  N_71 
REMARK       I    between atoms: N_72  and  C_73 
REMARK   41  A    between atoms: C_73  and  C_75 
REMARK   42  A    between atoms: C_75  and  C_76 
REMARK   43  A    between atoms: C_75  and  N_81 
REMARK   44  A    between atoms: C_76  and  C_77 
REMARK   45  A    between atoms: C_77  and  C_78 
REMARK   46  A    between atoms: C_78  and  O_80 
REMARK       I    between atoms: N_81  and  C_82 
REMARK   47  A    between atoms: C_84  and  C_82 
ROOT
HETATM    1  C   UNK N   1       6.724 -20.671   0.549  0.00  0.00     0.176 C 
ENDROOT
BRANCH   1   2
HETATM    2  C   UNK N   1       6.110 -19.344   0.938  0.00  0.00     0.241 C 
HETATM    3  N   UNK N   1       5.233 -18.700   0.124  0.00  0.00    -0.346 N 
HETATM    4  H   UNK N   1       4.768 -17.908   0.478  0.00  0.00     0.163 HD
HETATM    5  O   UNK N   1       6.337 -18.880   2.044  0.00  0.00    -0.271 OA
BRANCH   3   6
HETATM    6  C   UNK N   1       4.939 -19.109  -1.234  0.00  0.00     0.172 C 
HETATM    7  C   UNK N   1       4.053 -18.089  -1.927  0.00  0.00     0.042 C 
BRANCH   6   8
HETATM    8  C   UNK N   1       4.447 -20.532  -1.447  0.00  0.00     0.240 C 
HETATM    9  O   UNK N   1       4.537 -20.989  -2.574  0.00  0.00    -0.271 OA
HETATM   10  N   UNK N   1       3.957 -21.341  -0.464  0.00  0.00    -0.346 N 
HETATM   11  H   UNK N   1       3.849 -22.292  -0.695  0.00  0.00     0.163 HD
BRANCH  10  12
HETATM   12  C   UNK N   1       3.576 -20.960   0.886  0.00  0.00     0.177 C 
BRANCH  12  13
HETATM   13  C   UNK N   1       3.401 -22.212   1.772  0.00  0.00     0.038 C 
BRANCH  13  14
HETATM   14  C   UNK N   1       3.189 -23.547   1.043  0.00  0.00    -0.020 C 
HETATM   15  C   UNK N   1       2.963 -24.641   2.064  0.00  0.00     0.009 C 
HETATM   16  C   UNK N   1       2.017 -23.525   0.079  0.00  0.00     0.009 C 
ENDBRANCH  13  14
ENDBRANCH  12  13
BRANCH  12  17
HETATM   17  C   UNK N   1       2.302 -20.184   0.777  0.00  0.00     0.241 C 
HETATM   18  O   UNK N   1       2.308 -19.150   0.125  0.00  0.00    -0.271 OA
HETATM   19  N   UNK N   1       1.129 -20.699   1.241  0.00  0.00    -0.346 N 
HETATM   20  H   UNK N   1       1.152 -21.356   1.973  0.00  0.00     0.163 HD
BRANCH  19  21
HETATM   21  C   UNK N   1      -0.151 -20.307   0.686  0.00  0.00     0.185 C 
BRANCH  21  22
HETATM   22  C   UNK N   1      -0.262 -18.766   0.676  0.00  0.00     0.137 C 
BRANCH  22  23
HETATM   23  C   UNK N   1      -1.412 -18.169  -0.053  0.00  0.00     0.217 C 
HETATM   24  O   UNK N   1      -2.521 -18.179   0.447  0.00  0.00    -0.274 OA
HETATM   25  N   UNK N   1      -1.196 -17.497  -1.201  0.00  0.00    -0.370 N 
HETATM   26  H   UNK N   1      -0.692 -17.388  -2.040  0.00  0.00     0.159 HD
HETATM   27  H   UNK N   1      -1.857 -16.767  -1.201  0.00  0.00     0.159 HD
ENDBRANCH  22  23
ENDBRANCH  21  22
BRANCH  21  28
HETATM   28  C   UNK N   1      -0.206 -20.972  -0.683  0.00  0.00     0.241 C 
HETATM   29  O   UNK N   1       0.600 -20.653  -1.540  0.00  0.00    -0.271 OA
HETATM   30  N   UNK N   1      -1.061 -21.992  -0.944  0.00  0.00    -0.344 N 
HETATM   31  H   UNK N   1      -0.949 -22.493  -1.784  0.00  0.00     0.163 HD
BRANCH  30  32
HETATM   32  C   UNK N   1      -2.124 -22.377  -0.052  0.00  0.00     0.200 C 
BRANCH  32  33
HETATM   33  C   UNK N   1      -2.377 -23.882  -0.150  0.00  0.00     0.199 C 
BRANCH  33  34
HETATM   34  O   UNK N   1      -1.257 -24.610   0.252  0.00  0.00    -0.398 OA
HETATM   35  H   UNK N   1      -1.306 -25.538   0.531  0.00  0.00     0.209 HD
ENDBRANCH  33  34
ENDBRANCH  32  33
BRANCH  32  36
HETATM   36  C   UNK N   1      -3.362 -21.657  -0.497  0.00  0.00     0.243 C 
HETATM   37  O   UNK N   1      -3.325 -20.968  -1.515  0.00  0.00    -0.271 OA
HETATM   38  N   UNK N   1      -4.512 -21.769   0.199  0.00  0.00    -0.343 N 
HETATM   39  H   UNK N   1      -4.525 -22.330   1.008  0.00  0.00     0.163 HD
BRANCH  38  40
HETATM   40  C   UNK N   1      -5.730 -21.093  -0.202  0.00  0.00     0.206 C 
BRANCH  40  41
HETATM   41  C   UNK N   1      -6.907 -21.689   0.549  0.00  0.00     0.200 C 
BRANCH  41  42
HETATM   42  O   UNK N   1      -7.113 -23.001   0.123  0.00  0.00    -0.398 OA
HETATM   43  H   UNK N   1      -7.975 -23.333  -0.173  0.00  0.00     0.209 HD
ENDBRANCH  41  42
ENDBRANCH  40  41
BRANCH  40  44
HETATM   44  C   UNK N   1      -5.621 -19.596  -0.011  0.00  0.00     0.165 C 
HETATM   45  O   UNK N   1      -6.329 -19.017   0.798  0.00  0.00    -0.648 OA
BRANCH  44  46
HETATM   46  O   UNK N   1      -4.778 -18.881  -0.776  0.00  0.00    -0.775 OA
HETATM   47  H   UNK N   1      -4.052 -19.141  -1.309  0.00  0.00     0.167 HD
ENDBRANCH  44  46
ENDBRANCH  40  44
ENDBRANCH  38  40
ENDBRANCH  32  36
ENDBRANCH  30  32
ENDBRANCH  21  28
ENDBRANCH  19  21
ENDBRANCH  12  17
ENDBRANCH  10  12
ENDBRANCH   6   8
ENDBRANCH   3   6
ENDBRANCH   1   2
BRANCH   1  48
HETATM   48  C   UNK N   1       7.359 -21.500   1.651  0.00  0.00     0.036 C 
BRANCH  48  49
HETATM   49  C   UNK N   1       6.763 -22.901   1.626  0.00  0.00     0.023 C 
BRANCH  49  50
HETATM   50  C   UNK N   1       6.988 -23.597   0.290  0.00  0.00     0.138 C 
BRANCH  50  51
HETATM   51  N   UNK N   1       5.985 -24.613   0.110  0.00  0.00    -0.227 N 
HETATM   52  C   UNK N   1       6.235 -25.968   0.436  0.00  0.00     0.665 C 
HETATM   53  N   UNK N   1       7.378 -26.329   0.891  0.00  0.00    -0.235 N 
HETATM   54  N   UNK N   1       5.195 -26.916   0.324  0.00  0.00    -0.235 N 
HETATM   55  H   UNK N   1       7.577 -27.228   1.241  0.00  0.00     0.174 HD
ATOM     56  HN  UNK N   1       8.131 -25.641   0.891  1.00  0.00     0.174 HD
HETATM   57  H   UNK N   1       4.260 -26.618   0.247  0.00  0.00     0.174 HD
HETATM   58  H   UNK N   1       5.406 -27.878   0.324  0.00  0.00     0.174 HD
HETATM   59  H   UNK N   1       5.104 -24.359  -0.247  0.00  0.00     0.177 HD
ENDBRANCH  50  51
ENDBRANCH  49  50
ENDBRANCH  48  49
ENDBRANCH   1  48
BRANCH   1  60
HETATM   60  N   UNK N   1       7.448 -20.792  -0.704  0.00  0.00    -0.346 N 
HETATM   61  C   UNK N   1       8.521 -20.079  -1.141  0.00  0.00     0.241 C 
HETATM   62  O   UNK N   1       9.084 -20.445  -2.159  0.00  0.00    -0.271 OA
HETATM   63  H   UNK N   1       7.118 -21.484  -1.322  0.00  0.00     0.163 HD
BRANCH  61  64
HETATM   64  C   UNK N   1       9.023 -18.825  -0.477  0.00  0.00     0.177 C 
BRANCH  64  65
HETATM   65  C   UNK N   1       7.986 -17.736  -0.672  0.00  0.00     0.045 C 
BRANCH  65  66
HETATM   66  C   UNK N   1       8.623 -16.397  -0.944  0.00  0.00     0.112 C 
BRANCH  66  67
HETATM   67  C   UNK N   1       7.815 -15.314  -0.318  0.00  0.00     0.139 C 
HETATM   68  O   UNK N   1       8.336 -14.561   0.487  0.00  0.00    -0.650 OA
BRANCH  67  69
HETATM   69  O   UNK N   1       6.516 -15.161  -0.639  0.00  0.00    -0.776 OA
HETATM   70  H   UNK N   1       6.156 -14.326  -0.862  0.00  0.00     0.167 HD
ENDBRANCH  67  69
ENDBRANCH  66  67
ENDBRANCH  65  66
ENDBRANCH  64  65
BRANCH  64  71
HETATM   71  N   UNK N   1       9.305 -18.987   0.934  0.00  0.00    -0.346 N 
HETATM   72  C   UNK N   1      10.262 -19.793   1.464  0.00  0.00     0.241 C 
HETATM   73  O   UNK N   1      10.347 -19.879   2.680  0.00  0.00    -0.271 OA
HETATM   74  H   UNK N   1       8.755 -18.468   1.565  0.00  0.00     0.163 HD
BRANCH  72  75
HETATM   75  C   UNK N   1      11.190 -20.616   0.606  0.00  0.00     0.177 C 
BRANCH  75  76
HETATM   76  C   UNK N   1      10.712 -22.057   0.764  0.00  0.00     0.038 C 
BRANCH  76  77
HETATM   77  C   UNK N   1      11.303 -23.001  -0.260  0.00  0.00    -0.020 C 
HETATM   78  C   UNK N   1      12.002 -24.124   0.475  0.00  0.00     0.009 C 
HETATM   79  C   UNK N   1      10.179 -23.596  -1.086  0.00  0.00     0.009 C 
ENDBRANCH  76  77
ENDBRANCH  75  76
BRANCH  75  80
HETATM   80  N   UNK N   1      12.546 -20.497   1.128  0.00  0.00    -0.346 N 
HETATM   81  C   UNK N   1      13.471 -19.565   0.753  0.00  0.00     0.241 C 
HETATM   82  O   UNK N   1      14.545 -19.543   1.329  0.00  0.00    -0.271 OA
HETATM   83  H   UNK N   1      12.820 -21.148   1.814  0.00  0.00     0.163 HD
BRANCH  81  84
HETATM   84  C   UNK N   1      13.191 -18.569  -0.354  0.00  0.00     0.177 C 
BRANCH  84  85
HETATM   85  C   UNK N   1      12.024 -17.673   0.043  0.00  0.00     0.044 C 
BRANCH  85  86
HETATM   86  C   UNK N   1      11.652 -16.751  -1.112  0.00  0.00     0.105 C 
BRANCH  86  87
HETATM   87  C   UNK N   1      12.015 -15.327  -0.823  0.00  0.00     0.215 C 
HETATM   88  O   UNK N   1      13.169 -15.022  -0.572  0.00  0.00    -0.274 OA
HETATM   89  N   UNK N   1      11.070 -14.370  -0.881  0.00  0.00    -0.370 N 
HETATM   90  H   UNK N   1      11.331 -13.422  -0.924  0.00  0.00     0.159 HD
HETATM   91  H   UNK N   1      10.118 -14.618  -0.881  0.00  0.00     0.159 HD
ENDBRANCH  86  87
ENDBRANCH  85  86
ENDBRANCH  84  85
BRANCH  84  92
HETATM   92  N   UNK N   1      14.278 -17.676  -0.729  0.00  0.00    -0.346 N 
HETATM   93  C   UNK N   1      15.501 -17.924  -1.269  0.00  0.00     0.241 C 
HETATM   94  O   UNK N   1      16.107 -16.983  -1.752  0.00  0.00    -0.271 OA
HETATM   95  H   UNK N   1      14.095 -16.724  -0.561  0.00  0.00     0.163 HD
BRANCH  93  96
HETATM   96  C   UNK N   1      16.154 -19.279  -1.344  0.00  0.00     0.177 C 
BRANCH  96  97
HETATM   97  C   UNK N   1      15.250 -20.393  -1.847  0.00  0.00     0.045 C 
BRANCH  97  98
HETATM   98  C   UNK N   1      16.039 -21.684  -1.970  0.00  0.00     0.112 C 
BRANCH  98  99
HETATM   99  C   UNK N   1      15.526 -22.682  -0.989  0.00  0.00     0.139 C 
HETATM  100  O   UNK N   1      16.234 -23.054  -0.067  0.00  0.00    -0.650 OA
BRANCH  99 101
HETATM  101  O   UNK N   1      14.287 -23.181  -1.128  0.00  0.00    -0.776 OA
HETATM  102  H   UNK N   1      13.553 -22.606  -1.225  0.00  0.00     0.167 HD
ENDBRANCH  99 101
ENDBRANCH  98  99
ENDBRANCH  97  98
ENDBRANCH  96  97
BRANCH  96 103
HETATM  103  N   UNK N   1      16.850 -19.624  -0.118  0.00  0.00    -0.346 N 
HETATM  104  C   UNK N   1      18.041 -19.076   0.251  0.00  0.00     0.241 C 
HETATM  105  O   UNK N   1      18.555 -19.428   1.302  0.00  0.00    -0.271 OA
HETATM  106  H   UNK N   1      16.440 -20.291   0.478  0.00  0.00     0.163 HD
BRANCH 104 107
HETATM  107  C   UNK N   1      18.737 -18.045  -0.609  0.00  0.00     0.177 A 
HETATM  108  C   UNK N   1      18.359 -16.623  -0.147  0.00  0.00     0.044 A 
HETATM  109  C   UNK N   1      19.660 -15.865   0.134  0.00  0.00     0.105 A 
HETATM  110  C   UNK N   1      20.663 -16.926  -0.057  0.00  0.00     0.218 A 
HETATM  111  O   UNK N   1      21.857 -16.755   0.126  0.00  0.00    -0.274 OA
HETATM  112  N   UNK N   1      20.163 -18.098  -0.453  0.00  0.00    -0.348 N 
HETATM  113  H   UNK N   1      20.707 -18.902  -0.619  0.00  0.00     0.163 HD
ENDBRANCH 104 107
ENDBRANCH  96 103
ENDBRANCH  93  96
ENDBRANCH  84  92
ENDBRANCH  81  84
ENDBRANCH  75  80
ENDBRANCH  72  75
ENDBRANCH  64  71
ENDBRANCH  61  64
ENDBRANCH   1  60
TORSDOF 47
