MODEL 1
REMARK VINA RESULT:      -7.2      0.000      0.000
REMARK  4 active torsions:
REMARK  status: ('A' for Active; 'I' for Inactive)
REMARK    1  A    between atoms: N_5  and  C_9 
REMARK    2  A    between atoms: C_12  and  N_16 
REMARK    3  A    between atoms: C_18  and  C_22 
REMARK    4  A    between atoms: C_22  and  O_23 
ROOT
HETATM    1  C   UNK N   1      21.090  16.289   6.491  0.00  0.00     0.074 A 
HETATM    2  C   UNK N   1      21.826  15.117   6.268  0.00  0.00     0.035 A 
HETATM    3  C   UNK N   1      22.059  14.207   7.285  0.00  0.00     0.032 A 
HETATM    4  C   UNK N   1      21.581  14.437   8.576  0.00  0.00     0.042 A 
HETATM    5  C   UNK N   1      20.854  15.611   8.832  0.00  0.00     0.074 A 
HETATM    6  C   UNK N   1      20.600  16.535   7.803  0.00  0.00     0.145 A 
HETATM    7  F   UNK N   1      19.874  17.643   8.095  0.00  0.00    -0.204 F 
ENDROOT
BRANCH   4   8
HETATM    8  N   UNK N   1      21.809  13.441   9.576  0.00  0.00    -0.291 N 
HETATM    9  C   UNK N   1      23.102  12.868   9.814  0.00  0.00     0.169 A 
HETATM   10  C   UNK N   1      22.810  11.812  10.911  0.00  0.00     0.175 A 
HETATM   11  O   UNK N   1      21.462  11.965  11.202  0.00  0.00    -0.294 OA
HETATM   12  C   UNK N   1      20.917  12.885  10.401  0.00  0.00     0.368 A 
HETATM   13  O   UNK N   1      19.734  13.178  10.432  0.00  0.00    -0.238 OA
BRANCH  10  14
HETATM   14  C   UNK N   1      23.674  12.084  12.130  0.00  0.00     0.198 C 
BRANCH  14  15
HETATM   15  O   UNK N   1      24.984  12.351  11.727  0.00  0.00    -0.398 OA
HETATM   16  H   UNK N   1      25.268  13.242  11.468  0.00  0.00     0.209 HD
ENDBRANCH  14  15
ENDBRANCH  10  14
ENDBRANCH   4   8
BRANCH   1  17
HETATM   17  N   UNK N   1      20.860  17.175   5.382  0.00  0.00    -0.338 N 
HETATM   18  C   UNK N   1      19.931  16.752   4.346  0.00  0.00     0.151 A 
HETATM   19  C   UNK N   1      19.715  17.724   3.192  0.00  0.00     0.162 A 
HETATM   20  N   UNK N   1      20.443  18.967   3.289  0.00  0.00    -0.330 N 
HETATM   21  C   UNK N   1      20.280  19.933   2.241  0.00  0.00     0.171 C 
HETATM   22  N   UNK N   1      21.291  19.255   4.336  0.00  0.00    -0.298 N 
HETATM   23  C   UNK N   1      21.499  18.442   5.310  0.00  0.00     0.200 A 
ATOM     24  HN  UNK N   1      21.775  20.153   4.339  1.00  0.00     0.187 HD
ENDBRANCH   1  17
TORSDOF 4
ENDMDL
MODEL 2
REMARK VINA RESULT:      -6.9      9.821     10.804
REMARK  4 active torsions:
REMARK  status: ('A' for Active; 'I' for Inactive)
REMARK    1  A    between atoms: N_5  and  C_9 
REMARK    2  A    between atoms: C_12  and  N_16 
REMARK    3  A    between atoms: C_18  and  C_22 
REMARK    4  A    between atoms: C_22  and  O_23 
ROOT
HETATM    1  C   UNK N   1      29.852  17.517   6.675  0.00  0.00     0.074 A 
HETATM    2  C   UNK N   1      29.962  17.889   8.022  0.00  0.00     0.035 A 
HETATM    3  C   UNK N   1      31.146  17.730   8.720  0.00  0.00     0.032 A 
HETATM    4  C   UNK N   1      32.271  17.176   8.107  0.00  0.00     0.042 A 
HETATM    5  C   UNK N   1      32.186  16.779   6.761  0.00  0.00     0.074 A 
HETATM    6  C   UNK N   1      30.991  16.950   6.040  0.00  0.00     0.145 A 
HETATM    7  F   UNK N   1      30.966  16.573   4.737  0.00  0.00    -0.204 F 
ENDROOT
BRANCH   4   8
HETATM    8  N   UNK N   1      33.482  17.079   8.861  0.00  0.00    -0.291 N 
HETATM    9  C   UNK N   1      33.745  15.995   9.763  0.00  0.00     0.169 A 
HETATM   10  C   UNK N   1      35.114  16.387  10.375  0.00  0.00     0.175 A 
HETATM   11  O   UNK N   1      35.479  17.551   9.716  0.00  0.00    -0.294 OA
HETATM   12  C   UNK N   1      34.510  17.932   8.878  0.00  0.00     0.368 A 
HETATM   13  O   UNK N   1      34.571  18.947   8.206  0.00  0.00    -0.238 OA
BRANCH  10  14
HETATM   14  C   UNK N   1      36.122  15.276  10.135  0.00  0.00     0.198 C 
BRANCH  14  15
HETATM   15  O   UNK N   1      37.380  15.677  10.592  0.00  0.00    -0.398 OA
HETATM   16  H   UNK N   1      38.198  15.375  10.167  0.00  0.00     0.209 HD
ENDBRANCH  14  15
ENDBRANCH  10  14
ENDBRANCH   4   8
BRANCH   1  17
HETATM   17  N   UNK N   1      28.601  17.739   6.001  0.00  0.00    -0.338 N 
HETATM   18  C   UNK N   1      28.562  18.724   4.932  0.00  0.00     0.151 A 
HETATM   19  C   UNK N   1      27.215  18.924   4.246  0.00  0.00     0.162 A 
HETATM   20  N   UNK N   1      26.147  18.080   4.727  0.00  0.00    -0.330 N 
HETATM   21  C   UNK N   1      24.854  18.209   4.118  0.00  0.00     0.171 C 
HETATM   22  N   UNK N   1      26.317  17.170   5.747  0.00  0.00    -0.298 N 
HETATM   23  C   UNK N   1      27.439  16.999   6.350  0.00  0.00     0.200 A 
ATOM     24  HN  UNK N   1      25.517  16.608   6.037  1.00  0.00     0.187 HD
ENDBRANCH   1  17
TORSDOF 4
ENDMDL
MODEL 3
REMARK VINA RESULT:      -6.8      8.836      9.760
REMARK  4 active torsions:
REMARK  status: ('A' for Active; 'I' for Inactive)
REMARK    1  A    between atoms: N_5  and  C_9 
REMARK    2  A    between atoms: C_12  and  N_16 
REMARK    3  A    between atoms: C_18  and  C_22 
REMARK    4  A    between atoms: C_22  and  O_23 
ROOT
HETATM    1  C   UNK N   1      29.084  17.745   6.952  0.00  0.00     0.074 A 
HETATM    2  C   UNK N   1      30.099  17.169   6.176  0.00  0.00     0.035 A 
HETATM    3  C   UNK N   1      31.279  16.722   6.746  0.00  0.00     0.032 A 
HETATM    4  C   UNK N   1      31.503  16.846   8.118  0.00  0.00     0.042 A 
HETATM    5  C   UNK N   1      30.510  17.434   8.919  0.00  0.00     0.074 A 
HETATM    6  C   UNK N   1      29.303  17.878   8.351  0.00  0.00     0.145 A 
HETATM    7  F   UNK N   1      28.366  18.418   9.169  0.00  0.00    -0.204 F 
ENDROOT
BRANCH   4   8
HETATM    8  N   UNK N   1      32.719  16.324   8.661  0.00  0.00    -0.291 N 
HETATM    9  C   UNK N   1      33.873  17.142   8.897  0.00  0.00     0.169 A 
HETATM   10  C   UNK N   1      34.920  16.116   9.401  0.00  0.00     0.175 A 
HETATM   11  O   UNK N   1      34.237  14.910   9.461  0.00  0.00    -0.294 OA
HETATM   12  C   UNK N   1      32.990  15.061   9.004  0.00  0.00     0.368 A 
HETATM   13  O   UNK N   1      32.195  14.141   8.918  0.00  0.00    -0.238 OA
BRANCH  10  14
HETATM   14  C   UNK N   1      35.430  16.531  10.770  0.00  0.00     0.198 C 
BRANCH  14  15
HETATM   15  O   UNK N   1      36.786  16.214  10.882  0.00  0.00    -0.398 OA
HETATM   16  H   UNK N   1      37.479  16.810  10.557  0.00  0.00     0.209 HD
ENDBRANCH  14  15
ENDBRANCH  10  14
ENDBRANCH   4   8
BRANCH   1  17
HETATM   17  N   UNK N   1      27.873  18.160   6.299  0.00  0.00    -0.338 N 
HETATM   18  C   UNK N   1      27.690  19.576   6.025  0.00  0.00     0.151 A 
HETATM   19  C   UNK N   1      26.392  19.969   5.329  0.00  0.00     0.162 A 
HETATM   20  N   UNK N   1      25.513  18.871   4.998  0.00  0.00    -0.330 N 
HETATM   21  C   UNK N   1      24.277  19.168   4.333  0.00  0.00     0.171 C 
HETATM   22  N   UNK N   1      25.808  17.561   5.304  0.00  0.00    -0.298 N 
HETATM   23  C   UNK N   1      26.890  17.212   5.906  0.00  0.00     0.200 A 
ATOM     24  HN  UNK N   1      25.141  16.837   5.042  1.00  0.00     0.187 HD
ENDBRANCH   1  17
TORSDOF 4
ENDMDL
MODEL 4
REMARK VINA RESULT:      -6.6     14.634     17.745
REMARK  4 active torsions:
REMARK  status: ('A' for Active; 'I' for Inactive)
REMARK    1  A    between atoms: N_5  and  C_9 
REMARK    2  A    between atoms: C_12  and  N_16 
REMARK    3  A    between atoms: C_18  and  C_22 
REMARK    4  A    between atoms: C_22  and  O_23 
ROOT
HETATM    1  C   UNK N   1      35.731  12.691  15.297  0.00  0.00     0.074 A 
HETATM    2  C   UNK N   1      34.939  12.154  14.274  0.00  0.00     0.035 A 
HETATM    3  C   UNK N   1      34.877  12.745  13.023  0.00  0.00     0.032 A 
HETATM    4  C   UNK N   1      35.594  13.909  12.744  0.00  0.00     0.042 A 
HETATM    5  C   UNK N   1      36.385  14.480  13.756  0.00  0.00     0.074 A 
HETATM    6  C   UNK N   1      36.464  13.879  15.025  0.00  0.00     0.145 A 
HETATM    7  F   UNK N   1      37.259  14.455  15.962  0.00  0.00    -0.204 F 
ENDROOT
BRANCH   4   8
HETATM    8  N   UNK N   1      35.531  14.450  11.422  0.00  0.00    -0.291 N 
HETATM    9  C   UNK N   1      34.408  15.205  10.948  0.00  0.00     0.169 A 
HETATM   10  C   UNK N   1      34.784  15.485   9.471  0.00  0.00     0.175 A 
HETATM   11  O   UNK N   1      36.054  14.947   9.319  0.00  0.00    -0.294 OA
HETATM   12  C   UNK N   1      36.437  14.339  10.446  0.00  0.00     0.368 A 
HETATM   13  O   UNK N   1      37.501  13.754  10.559  0.00  0.00    -0.238 OA
BRANCH  10  14
HETATM   14  C   UNK N   1      34.784  16.982   9.216  0.00  0.00     0.198 C 
BRANCH  14  15
HETATM   15  O   UNK N   1      35.491  17.632  10.230  0.00  0.00    -0.398 OA
HETATM   16  H   UNK N   1      35.042  18.016  11.001  0.00  0.00     0.209 HD
ENDBRANCH  14  15
ENDBRANCH  10  14
ENDBRANCH   4   8
BRANCH   1  17
HETATM   17  N   UNK N   1      35.773  12.010  16.562  0.00  0.00    -0.338 N 
HETATM   18  C   UNK N   1      36.424  10.711  16.621  0.00  0.00     0.151 A 
HETATM   19  C   UNK N   1      36.446  10.026  17.984  0.00  0.00     0.162 A 
HETATM   20  N   UNK N   1      35.840  10.775  19.060  0.00  0.00    -0.330 N 
HETATM   21  C   UNK N   1      35.834  10.194  20.372  0.00  0.00     0.171 C 
HETATM   22  N   UNK N   1      35.262  12.012  18.875  0.00  0.00    -0.298 N 
HETATM   23  C   UNK N   1      35.218  12.597  17.731  0.00  0.00     0.200 A 
ATOM     24  HN  UNK N   1      34.851  12.483  19.680  1.00  0.00     0.187 HD
ENDBRANCH   1  17
TORSDOF 4
ENDMDL
MODEL 5
REMARK VINA RESULT:      -6.6     11.039     12.108
REMARK  4 active torsions:
REMARK  status: ('A' for Active; 'I' for Inactive)
REMARK    1  A    between atoms: N_5  and  C_9 
REMARK    2  A    between atoms: C_12  and  N_16 
REMARK    3  A    between atoms: C_18  and  C_22 
REMARK    4  A    between atoms: C_22  and  O_23 
ROOT
HETATM    1  C   UNK N   1      31.668  16.956   6.880  0.00  0.00     0.074 A 
HETATM    2  C   UNK N   1      31.525  16.212   8.060  0.00  0.00     0.035 A 
HETATM    3  C   UNK N   1      32.626  15.810   8.796  0.00  0.00     0.032 A 
HETATM    4  C   UNK N   1      33.921  16.119   8.377  0.00  0.00     0.042 A 
HETATM    5  C   UNK N   1      34.095  16.850   7.190  0.00  0.00     0.074 A 
HETATM    6  C   UNK N   1      32.983  17.275   6.443  0.00  0.00     0.145 A 
HETATM    7  F   UNK N   1      33.202  17.997   5.315  0.00  0.00    -0.204 F 
ENDROOT
BRANCH   4   8
HETATM    8  N   UNK N   1      35.019  15.719   9.202  0.00  0.00    -0.291 N 
HETATM    9  C   UNK N   1      35.573  14.397   9.162  0.00  0.00     0.169 A 
HETATM   10  C   UNK N   1      36.657  14.449  10.269  0.00  0.00     0.175 A 
HETATM   11  O   UNK N   1      36.637  15.759  10.726  0.00  0.00    -0.294 OA
HETATM   12  C   UNK N   1      35.670  16.448  10.113  0.00  0.00     0.368 A 
HETATM   13  O   UNK N   1      35.421  17.615  10.364  0.00  0.00    -0.238 OA
BRANCH  10  14
HETATM   14  C   UNK N   1      38.010  14.088   9.683  0.00  0.00     0.198 C 
BRANCH  14  15
HETATM   15  O   UNK N   1      38.858  13.641  10.699  0.00  0.00    -0.398 OA
HETATM   16  H   UNK N   1      39.105  14.209  11.446  0.00  0.00     0.209 HD
ENDBRANCH  14  15
ENDBRANCH  10  14
ENDBRANCH   4   8
BRANCH   1  17
HETATM   17  N   UNK N   1      30.481  17.368   6.181  0.00  0.00    -0.338 N 
HETATM   18  C   UNK N   1      29.323  17.764   6.967  0.00  0.00     0.151 A 
HETATM   19  C   UNK N   1      28.089  18.195   6.184  0.00  0.00     0.162 A 
HETATM   20  N   UNK N   1      28.236  18.186   4.747  0.00  0.00    -0.330 N 
HETATM   21  C   UNK N   1      27.115  18.589   3.947  0.00  0.00     0.171 C 
HETATM   22  N   UNK N   1      29.398  17.796   4.119  0.00  0.00    -0.298 N 
HETATM   23  C   UNK N   1      30.444  17.413   4.761  0.00  0.00     0.200 A 
ATOM     24  HN  UNK N   1      29.431  17.812   3.100  1.00  0.00     0.187 HD
ENDBRANCH   1  17
TORSDOF 4
ENDMDL
MODEL 6
REMARK VINA RESULT:      -6.6     14.501     17.645
REMARK  4 active torsions:
REMARK  status: ('A' for Active; 'I' for Inactive)
REMARK    1  A    between atoms: N_5  and  C_9 
REMARK    2  A    between atoms: C_12  and  N_16 
REMARK    3  A    between atoms: C_18  and  C_22 
REMARK    4  A    between atoms: C_22  and  O_23 
ROOT
HETATM    1  C   UNK N   1      35.605  12.521  15.374  0.00  0.00     0.074 A 
HETATM    2  C   UNK N   1      36.359  13.652  15.031  0.00  0.00     0.035 A 
HETATM    3  C   UNK N   1      36.313  14.190  13.756  0.00  0.00     0.032 A 
HETATM    4  C   UNK N   1      35.522  13.612  12.762  0.00  0.00     0.042 A 
HETATM    5  C   UNK N   1      34.767  12.468  13.073  0.00  0.00     0.074 A 
HETATM    6  C   UNK N   1      34.797  11.923  14.368  0.00  0.00     0.145 A 
HETATM    7  F   UNK N   1      34.033  10.832  14.626  0.00  0.00    -0.204 F 
ENDROOT
BRANCH   4   8
HETATM    8  N   UNK N   1      35.475  14.237  11.477  0.00  0.00    -0.291 N 
HETATM    9  C   UNK N   1      34.366  15.041  11.050  0.00  0.00     0.169 A 
HETATM   10  C   UNK N   1      34.754  15.409   9.595  0.00  0.00     0.175 A 
HETATM   11  O   UNK N   1      36.014  14.858   9.411  0.00  0.00    -0.294 OA
HETATM   12  C   UNK N   1      36.382  14.172  10.498  0.00  0.00     0.368 A 
HETATM   13  O   UNK N   1      37.435  13.562  10.576  0.00  0.00    -0.238 OA
BRANCH  10  14
HETATM   14  C   UNK N   1      34.782  16.919   9.436  0.00  0.00     0.198 C 
BRANCH  14  15
HETATM   15  O   UNK N   1      35.540  17.486  10.463  0.00  0.00    -0.398 OA
HETATM   16  H   UNK N   1      35.907  16.949  11.183  0.00  0.00     0.209 HD
ENDBRANCH  14  15
ENDBRANCH  10  14
ENDBRANCH   4   8
BRANCH   1  17
HETATM   17  N   UNK N   1      35.676  12.034  16.725  0.00  0.00    -0.338 N 
HETATM   18  C   UNK N   1      35.148  12.874  17.787  0.00  0.00     0.151 A 
HETATM   19  C   UNK N   1      35.244  12.315  19.202  0.00  0.00     0.162 A 
HETATM   20  N   UNK N   1      35.822  10.996  19.307  0.00  0.00    -0.330 N 
HETATM   21  C   UNK N   1      35.934  10.405  20.610  0.00  0.00     0.171 C 
HETATM   22  N   UNK N   1      36.279  10.293  18.213  0.00  0.00    -0.298 N 
HETATM   23  C   UNK N   1      36.223  10.754  17.015  0.00  0.00     0.200 A 
ATOM     24  HN  UNK N   1      36.678   9.367  18.361  1.00  0.00     0.187 HD
ENDBRANCH   1  17
TORSDOF 4
ENDMDL
MODEL 7
REMARK VINA RESULT:      -6.5      9.102     11.208
REMARK  4 active torsions:
REMARK  status: ('A' for Active; 'I' for Inactive)
REMARK    1  A    between atoms: N_5  and  C_9 
REMARK    2  A    between atoms: C_12  and  N_16 
REMARK    3  A    between atoms: C_18  and  C_22 
REMARK    4  A    between atoms: C_22  and  O_23 
ROOT
HETATM    1  C   UNK N   1      30.714  17.416   7.840  0.00  0.00     0.074 A 
HETATM    2  C   UNK N   1      30.511  17.138   6.481  0.00  0.00     0.035 A 
HETATM    3  C   UNK N   1      29.369  17.558   5.822  0.00  0.00     0.032 A 
HETATM    4  C   UNK N   1      28.369  18.261   6.496  0.00  0.00     0.042 A 
HETATM    5  C   UNK N   1      28.538  18.539   7.863  0.00  0.00     0.074 A 
HETATM    6  C   UNK N   1      29.701  18.129   8.538  0.00  0.00     0.145 A 
HETATM    7  F   UNK N   1      29.828  18.442   9.852  0.00  0.00    -0.204 F 
ENDROOT
BRANCH   4   8
HETATM    8  N   UNK N   1      27.232  18.712   5.756  0.00  0.00    -0.291 N 
HETATM    9  C   UNK N   1      26.321  17.809   5.113  0.00  0.00     0.169 A 
HETATM   10  C   UNK N   1      25.338  18.770   4.398  0.00  0.00     0.175 A 
HETATM   11  O   UNK N   1      25.748  20.042   4.770  0.00  0.00    -0.294 OA
HETATM   12  C   UNK N   1      26.850  19.971   5.523  0.00  0.00     0.368 A 
HETATM   13  O   UNK N   1      27.431  20.955   5.949  0.00  0.00    -0.238 OA
BRANCH  10  14
HETATM   14  C   UNK N   1      23.918  18.490   4.857  0.00  0.00     0.198 C 
BRANCH  14  15
HETATM   15  O   UNK N   1      23.908  17.378   5.701  0.00  0.00    -0.398 OA
HETATM   16  H   UNK N   1      24.589  17.244   6.379  0.00  0.00     0.209 HD
ENDBRANCH  14  15
ENDBRANCH  10  14
ENDBRANCH   4   8
BRANCH   1  17
HETATM   17  N   UNK N   1      31.937  16.977   8.455  0.00  0.00    -0.338 N 
HETATM   18  C   UNK N   1      33.118  17.812   8.306  0.00  0.00     0.151 A 
HETATM   19  C   UNK N   1      34.392  17.308   8.976  0.00  0.00     0.162 A 
HETATM   20  N   UNK N   1      34.256  16.070   9.707  0.00  0.00    -0.330 N 
HETATM   21  C   UNK N   1      35.413  15.542  10.371  0.00  0.00     0.171 C 
HETATM   22  N   UNK N   1      33.069  15.375   9.782  0.00  0.00    -0.298 N 
HETATM   23  C   UNK N   1      31.989  15.774   9.210  0.00  0.00     0.200 A 
ATOM     24  HN  UNK N   1      33.045  14.506  10.314  1.00  0.00     0.187 HD
ENDBRANCH   1  17
TORSDOF 4
ENDMDL
MODEL 8
REMARK VINA RESULT:      -6.4      9.280     11.476
REMARK  4 active torsions:
REMARK  status: ('A' for Active; 'I' for Inactive)
REMARK    1  A    between atoms: N_5  and  C_9 
REMARK    2  A    between atoms: C_12  and  N_16 
REMARK    3  A    between atoms: C_18  and  C_22 
REMARK    4  A    between atoms: C_22  and  O_23 
ROOT
HETATM    1  C   UNK N   1      30.704  17.390   7.234  0.00  0.00     0.074 A 
HETATM    2  C   UNK N   1      29.623  17.988   7.896  0.00  0.00     0.035 A 
HETATM    3  C   UNK N   1      28.506  18.426   7.204  0.00  0.00     0.032 A 
HETATM    4  C   UNK N   1      28.427  18.300   5.816  0.00  0.00     0.042 A 
HETATM    5  C   UNK N   1      29.503  17.718   5.125  0.00  0.00     0.074 A 
HETATM    6  C   UNK N   1      30.635  17.258   5.819  0.00  0.00     0.145 A 
HETATM    7  F   UNK N   1      31.638  16.683   5.109  0.00  0.00    -0.204 F 
ENDROOT
BRANCH   4   8
HETATM    8  N   UNK N   1      27.231  18.724   5.159  0.00  0.00    -0.291 N 
HETATM    9  C   UNK N   1      27.039  20.069   4.698  0.00  0.00     0.169 A 
HETATM   10  C   UNK N   1      25.591  20.036   4.145  0.00  0.00     0.175 A 
HETATM   11  O   UNK N   1      25.187  18.716   4.283  0.00  0.00    -0.294 OA
HETATM   12  C   UNK N   1      26.139  18.002   4.892  0.00  0.00     0.368 A 
HETATM   13  O   UNK N   1      26.014  16.820   5.164  0.00  0.00    -0.238 OA
BRANCH  10  14
HETATM   14  C   UNK N   1      25.586  20.466   2.689  0.00  0.00     0.198 C 
BRANCH  14  15
HETATM   15  O   UNK N   1      24.319  20.945   2.345  0.00  0.00    -0.398 OA
HETATM   16  H   UNK N   1      23.509  20.479   2.604  0.00  0.00     0.209 HD
ENDBRANCH  14  15
ENDBRANCH  10  14
ENDBRANCH   4   8
BRANCH   1  17
HETATM   17  N   UNK N   1      31.819  16.931   8.017  0.00  0.00    -0.338 N 
HETATM   18  C   UNK N   1      31.931  15.505   8.282  0.00  0.00     0.151 A 
HETATM   19  C   UNK N   1      33.129  15.064   9.115  0.00  0.00     0.162 A 
HETATM   20  N   UNK N   1      34.028  16.123   9.512  0.00  0.00    -0.330 N 
HETATM   21  C   UNK N   1      35.183  15.777  10.290  0.00  0.00     0.171 C 
HETATM   22  N   UNK N   1      33.814  17.444   9.185  0.00  0.00    -0.298 N 
HETATM   23  C   UNK N   1      32.801  17.838   8.498  0.00  0.00     0.200 A 
ATOM     24  HN  UNK N   1      34.489  18.140   9.500  1.00  0.00     0.187 HD
ENDBRANCH   1  17
TORSDOF 4
ENDMDL
MODEL 9
REMARK VINA RESULT:      -6.4      9.201     10.151
REMARK  4 active torsions:
REMARK  status: ('A' for Active; 'I' for Inactive)
REMARK    1  A    between atoms: N_5  and  C_9 
REMARK    2  A    between atoms: C_12  and  N_16 
REMARK    3  A    between atoms: C_18  and  C_22 
REMARK    4  A    between atoms: C_22  and  O_23 
ROOT
HETATM    1  C   UNK N   1      29.271  17.856   6.949  0.00  0.00     0.074 A 
HETATM    2  C   UNK N   1      30.273  17.212   6.211  0.00  0.00     0.035 A 
HETATM    3  C   UNK N   1      31.517  16.949   6.760  0.00  0.00     0.032 A 
HETATM    4  C   UNK N   1      31.819  17.334   8.067  0.00  0.00     0.042 A 
HETATM    5  C   UNK N   1      30.839  17.996   8.825  0.00  0.00     0.074 A 
HETATM    6  C   UNK N   1      29.569  18.255   8.281  0.00  0.00     0.145 A 
HETATM    7  F   UNK N   1      28.648  18.877   9.060  0.00  0.00    -0.204 F 
ENDROOT
BRANCH   4   8
HETATM    8  N   UNK N   1      33.102  16.994   8.599  0.00  0.00    -0.291 N 
HETATM    9  C   UNK N   1      33.346  15.770   9.305  0.00  0.00     0.169 A 
HETATM   10  C   UNK N   1      34.829  15.913   9.734  0.00  0.00     0.175 A 
HETATM   11  O   UNK N   1      35.246  17.113   9.176  0.00  0.00    -0.294 OA
HETATM   12  C   UNK N   1      34.226  17.716   8.558  0.00  0.00     0.368 A 
HETATM   13  O   UNK N   1      34.324  18.804   8.018  0.00  0.00    -0.238 OA
BRANCH  10  14
HETATM   14  C   UNK N   1      35.635  14.744   9.198  0.00  0.00     0.198 C 
BRANCH  14  15
HETATM   15  O   UNK N   1      34.860  13.582   9.236  0.00  0.00    -0.398 OA
HETATM   16  H   UNK N   1      34.756  13.011   8.458  0.00  0.00     0.209 HD
ENDBRANCH  14  15
ENDBRANCH  10  14
ENDBRANCH   4   8
BRANCH   1  17
HETATM   17  N   UNK N   1      27.992  18.070   6.327  0.00  0.00    -0.338 N 
HETATM   18  C   UNK N   1      27.656  19.417   5.894  0.00  0.00     0.151 A 
HETATM   19  C   UNK N   1      26.291  19.596   5.239  0.00  0.00     0.162 A 
HETATM   20  N   UNK N   1      25.511  18.389   5.100  0.00  0.00    -0.330 N 
HETATM   21  C   UNK N   1      24.219  18.483   4.483  0.00  0.00     0.171 C 
HETATM   22  N   UNK N   1      25.950  17.162   5.545  0.00  0.00    -0.298 N 
HETATM   23  C   UNK N   1      27.090  16.993   6.116  0.00  0.00     0.200 A 
ATOM     24  HN  UNK N   1      25.345  16.351   5.416  1.00  0.00     0.187 HD
ENDBRANCH   1  17
TORSDOF 4
ENDMDL
