MODEL 1
REMARK VINA RESULT:      -8.9      0.000      0.000
REMARK  12 active torsions:
REMARK  status: ('A' for Active; 'I' for Inactive)
REMARK       I    between atoms: C_2  and  N_4 
REMARK    1  A    between atoms: N_7  and  C_10 
REMARK    2  A    between atoms: C_13  and  C_16 
REMARK    3  A    between atoms: C_16  and  N_17 
REMARK    4  A    between atoms: C_18  and  N_17 
REMARK       I    between atoms: N_17  and  C_43 
REMARK    5  A    between atoms: C_18  and  C_19 
REMARK    6  A    between atoms: C_18  and  C_26 
REMARK    7  A    between atoms: C_19  and  C_20 
REMARK       I    between atoms: C_26  and  N_28 
REMARK    8  A    between atoms: N_31  and  C_34 
REMARK    9  A    between atoms: C_34  and  C_35 
REMARK   10  A    between atoms: C_43  and  C_45 
REMARK   11  A    between atoms: C_46  and  C_47 
REMARK   12  A    between atoms: C_50  and  C_53 
ROOT
HETATM    1  C   UNK N   1      24.298  12.743   7.763  0.00  0.00    -0.030 A 
HETATM    2  C   UNK N   1      25.105  13.148   8.821  0.00  0.00     0.010 A 
HETATM    3  C   UNK N   1      24.710  12.920  10.136  0.00  0.00     0.023 A 
HETATM    4  C   UNK N   1      23.501  12.277  10.399  0.00  0.00     0.044 A 
HETATM    5  C   UNK N   1      22.672  11.883   9.341  0.00  0.00     0.023 A 
HETATM    6  C   UNK N   1      23.068  12.121   8.018  0.00  0.00     0.010 A 
HETATM    7  C   UNK N   1      23.112  11.997  11.752  0.00  0.00     0.099 C 
HETATM    8  N   UNK N   1      22.762  11.752  12.828  0.00  0.00    -0.191 NA
ENDROOT
BRANCH   1   9
HETATM    9  C   UNK N   1      24.809  12.923   6.374  0.00  0.00     0.311 C 
BRANCH   9  10
HETATM   10  N   UNK N   1      23.915  12.299   5.380  0.00  0.00     0.095 N 
HETATM   11  C   UNK N   1      24.385  10.932   5.115  0.00  0.00     0.292 C 
HETATM   12  C   UNK N   1      25.801  10.931   4.522  0.00  0.00     0.156 C 
HETATM   13  N   UNK N   1      26.058  12.204   3.897  0.00  0.00    -0.347 N 
HETATM   14  C   UNK N   1      27.244  12.853   4.075  0.00  0.00     0.243 C 
HETATM   15  C   UNK N   1      24.979  12.810   3.153  0.00  0.00     0.156 C 
HETATM   16  O   UNK N   1      28.138  12.345   4.735  0.00  0.00    -0.271 OA
HETATM   17  C   UNK N   1      23.825  13.082   4.123  0.00  0.00     0.292 C 
BRANCH  14  18
HETATM   18  C   UNK N   1      27.509  14.152   3.380  0.00  0.00     0.184 C 
BRANCH  18  19
HETATM   19  N   UNK N   1      27.058  15.326   4.108  0.00  0.00    -0.331 N 
HETATM   20  C   UNK N   1      26.460  16.371   3.428  0.00  0.00     0.244 C 
HETATM   21  O   UNK N   1      26.021  16.171   2.307  0.00  0.00    -0.268 OA
BRANCH  19  22
HETATM   22  C   UNK N   1      27.332  15.364   5.526  0.00  0.00     0.165 C 
BRANCH  22  23
HETATM   23  C   UNK N   1      28.717  15.902   5.767  0.00  0.00    -0.040 C 
HETATM   24  C   UNK N   1      29.801  15.019   5.868  0.00  0.00     0.011 C 
HETATM   25  C   UNK N   1      30.929  15.382   6.564  0.00  0.00     0.030 C 
HETATM   26  C   UNK N   1      31.007  16.661   7.127  0.00  0.00     0.030 C 
HETATM   27  C   UNK N   1      30.039  17.619   6.805  0.00  0.00     0.030 C 
HETATM   28  C   UNK N   1      28.877  17.232   6.146  0.00  0.00     0.011 C 
BRANCH  26  29
HETATM   29  N   UNK N   1      31.719  16.816   8.344  0.00  0.00    -0.378 N 
HETATM   30  C   UNK N   1      32.622  17.959   8.386  0.00  0.00     0.143 C 
HETATM   31  C   UNK N   1      33.974  17.484   7.839  0.00  0.00     0.145 C 
HETATM   32  N   UNK N   1      34.348  16.442   8.753  0.00  0.00    -0.349 N 
HETATM   33  C   UNK N   1      35.049  16.780   9.868  0.00  0.00     0.215 C 
HETATM   34  C   UNK N   1      33.563  15.230   8.719  0.00  0.00     0.145 C 
HETATM   35  C   UNK N   1      35.115  15.858  11.042  0.00  0.00     0.117 C 
HETATM   36  O   UNK N   1      35.547  17.892   9.964  0.00  0.00    -0.274 OA
HETATM   37  C   UNK N   1      32.121  15.625   9.091  0.00  0.00     0.143 C 
ENDBRANCH  26  29
ENDBRANCH  22  23
ENDBRANCH  19  22
BRANCH  20  38
HETATM   38  C   UNK N   1      26.313  17.756   3.975  0.00  0.00     0.075 C 
HETATM   39  C   UNK N   1      25.235  18.080   4.745  0.00  0.00     0.017 C 
BRANCH  39  40
HETATM   40  C   UNK N   1      24.041  17.186   4.854  0.00  0.00    -0.036 A 
HETATM   41  C   UNK N   1      23.024  17.260   3.898  0.00  0.00     0.012 A 
HETATM   42  C   UNK N   1      21.804  16.599   4.111  0.00  0.00     0.009 A 
HETATM   43  C   UNK N   1      21.581  15.866   5.293  0.00  0.00    -0.051 A 
HETATM   44  C   UNK N   1      22.621  15.763   6.227  0.00  0.00     0.009 A 
HETATM   45  C   UNK N   1      23.842  16.400   6.005  0.00  0.00     0.012 A 
BRANCH  43  46
HETATM   46  C   UNK N   1      20.221  15.258   5.605  0.00  0.00    -0.024 C 
HETATM   47  C   UNK N   1      19.225  15.594   4.509  0.00  0.00     0.019 C 
HETATM   48  C   UNK N   1      20.346  13.751   5.694  0.00  0.00     0.019 C 
HETATM   49  C   UNK N   1      19.644  15.732   6.930  0.00  0.00     0.019 C 
ENDBRANCH  43  46
ENDBRANCH  39  40
ENDBRANCH  20  38
ENDBRANCH  18  19
BRANCH  18  50
HETATM   50  C   UNK N   1      28.639  14.153   2.346  0.00  0.00     0.073 C 
BRANCH  50  51
HETATM   51  C   UNK N   1      29.964  14.737   2.658  0.00  0.00    -0.056 A 
HETATM   52  C   UNK N   1      30.106  16.125   2.663  0.00  0.00     0.007 A 
HETATM   53  C   UNK N   1      31.362  16.699   2.868  0.00  0.00     0.001 A 
HETATM   54  C   UNK N   1      32.479  15.883   3.063  0.00  0.00     0.000 A 
HETATM   55  C   UNK N   1      32.342  14.492   3.036  0.00  0.00     0.001 A 
HETATM   56  C   UNK N   1      31.086  13.918   2.813  0.00  0.00     0.007 A 
ENDBRANCH  50  51
ENDBRANCH  18  50
ENDBRANCH  14  18
ENDBRANCH   9  10
ENDBRANCH   1   9
TORSDOF 12
ENDMDL
MODEL 2
REMARK VINA RESULT:      -8.7      1.977      4.280
REMARK  12 active torsions:
REMARK  status: ('A' for Active; 'I' for Inactive)
REMARK       I    between atoms: C_2  and  N_4 
REMARK    1  A    between atoms: N_7  and  C_10 
REMARK    2  A    between atoms: C_13  and  C_16 
REMARK    3  A    between atoms: C_16  and  N_17 
REMARK    4  A    between atoms: C_18  and  N_17 
REMARK       I    between atoms: N_17  and  C_43 
REMARK    5  A    between atoms: C_18  and  C_19 
REMARK    6  A    between atoms: C_18  and  C_26 
REMARK    7  A    between atoms: C_19  and  C_20 
REMARK       I    between atoms: C_26  and  N_28 
REMARK    8  A    between atoms: N_31  and  C_34 
REMARK    9  A    between atoms: C_34  and  C_35 
REMARK   10  A    between atoms: C_43  and  C_45 
REMARK   11  A    between atoms: C_46  and  C_47 
REMARK   12  A    between atoms: C_50  and  C_53 
ROOT
HETATM    1  C   UNK N   1      22.993  13.673   7.203  0.00  0.00    -0.030 A 
HETATM    2  C   UNK N   1      22.022  13.257   8.107  0.00  0.00     0.010 A 
HETATM    3  C   UNK N   1      22.385  12.782   9.365  0.00  0.00     0.023 A 
HETATM    4  C   UNK N   1      23.731  12.729   9.727  0.00  0.00     0.044 A 
HETATM    5  C   UNK N   1      24.718  13.128   8.816  0.00  0.00     0.023 A 
HETATM    6  C   UNK N   1      24.350  13.597   7.548  0.00  0.00     0.010 A 
HETATM    7  C   UNK N   1      24.109  12.286  11.038  0.00  0.00     0.099 C 
HETATM    8  N   UNK N   1      24.455  11.936  12.086  0.00  0.00    -0.191 NA
ENDROOT
BRANCH   1   9
HETATM    9  C   UNK N   1      22.548  14.262   5.908  0.00  0.00     0.311 C 
BRANCH   9  10
HETATM   10  N   UNK N   1      21.637  15.405   6.114  0.00  0.00     0.095 N 
HETATM   11  C   UNK N   1      20.779  15.543   4.930  0.00  0.00     0.292 C 
HETATM   12  C   UNK N   1      21.605  15.838   3.670  0.00  0.00     0.156 C 
HETATM   13  N   UNK N   1      22.866  16.422   4.052  0.00  0.00    -0.347 N 
HETATM   14  C   UNK N   1      24.035  16.021   3.476  0.00  0.00     0.243 C 
HETATM   15  C   UNK N   1      22.855  17.380   5.132  0.00  0.00     0.156 C 
HETATM   16  O   UNK N   1      24.035  15.185   2.586  0.00  0.00    -0.271 OA
HETATM   17  C   UNK N   1      22.361  16.669   6.396  0.00  0.00     0.292 C 
BRANCH  14  18
HETATM   18  C   UNK N   1      25.328  16.673   3.853  0.00  0.00     0.184 C 
BRANCH  18  19
HETATM   19  N   UNK N   1      26.397  15.744   4.181  0.00  0.00    -0.331 N 
HETATM   20  C   UNK N   1      27.057  15.071   3.170  0.00  0.00     0.244 C 
HETATM   21  O   UNK N   1      26.976  15.493   2.028  0.00  0.00    -0.268 OA
BRANCH  19  22
HETATM   22  C   UNK N   1      26.666  15.521   5.582  0.00  0.00     0.165 C 
BRANCH  22  23
HETATM   23  C   UNK N   1      27.739  16.465   6.055  0.00  0.00    -0.040 C 
HETATM   24  C   UNK N   1      29.035  16.367   5.530  0.00  0.00     0.011 C 
HETATM   25  C   UNK N   1      30.112  16.820   6.253  0.00  0.00     0.030 C 
HETATM   26  C   UNK N   1      29.900  17.427   7.496  0.00  0.00     0.030 C 
HETATM   27  C   UNK N   1      28.597  17.752   7.894  0.00  0.00     0.030 C 
HETATM   28  C   UNK N   1      27.513  17.246   7.185  0.00  0.00     0.011 C 
BRANCH  26  29
HETATM   29  N   UNK N   1      30.879  17.251   8.506  0.00  0.00    -0.378 N 
HETATM   30  C   UNK N   1      31.876  18.311   8.587  0.00  0.00     0.143 C 
HETATM   31  C   UNK N   1      33.016  17.931   7.634  0.00  0.00     0.145 C 
HETATM   32  N   UNK N   1      33.483  16.682   8.167  0.00  0.00    -0.349 N 
HETATM   33  C   UNK N   1      34.448  16.709   9.126  0.00  0.00     0.215 C 
HETATM   34  C   UNK N   1      32.597  15.548   8.050  0.00  0.00     0.145 C 
HETATM   35  C   UNK N   1      34.687  15.526  10.007  0.00  0.00     0.117 C 
HETATM   36  O   UNK N   1      35.061  17.743   9.349  0.00  0.00    -0.274 OA
HETATM   37  C   UNK N   1      31.322  15.899   8.841  0.00  0.00     0.143 C 
ENDBRANCH  26  29
ENDBRANCH  22  23
ENDBRANCH  19  22
BRANCH  20  38
HETATM   38  C   UNK N   1      27.878  13.836   3.378  0.00  0.00     0.075 C 
HETATM   39  C   UNK N   1      27.376  12.613   3.044  0.00  0.00     0.017 C 
BRANCH  39  40
HETATM   40  C   UNK N   1      25.929  12.410   2.723  0.00  0.00    -0.036 A 
HETATM   41  C   UNK N   1      25.016  12.151   3.749  0.00  0.00     0.012 A 
HETATM   42  C   UNK N   1      23.711  11.735   3.445  0.00  0.00     0.009 A 
HETATM   43  C   UNK N   1      23.306  11.556   2.108  0.00  0.00    -0.051 A 
HETATM   44  C   UNK N   1      24.216  11.858   1.084  0.00  0.00     0.009 A 
HETATM   45  C   UNK N   1      25.506  12.295   1.386  0.00  0.00     0.012 A 
BRANCH  43  46
HETATM   46  C   UNK N   1      21.944  10.975   1.761  0.00  0.00    -0.024 C 
HETATM   47  C   UNK N   1      21.184  11.916   0.841  0.00  0.00     0.019 C 
HETATM   48  C   UNK N   1      22.123   9.650   1.048  0.00  0.00     0.019 C 
HETATM   49  C   UNK N   1      21.079  10.706   2.982  0.00  0.00     0.019 C 
ENDBRANCH  43  46
ENDBRANCH  39  40
ENDBRANCH  20  38
ENDBRANCH  18  19
BRANCH  18  50
HETATM   50  C   UNK N   1      25.546  18.100   3.340  0.00  0.00     0.073 C 
BRANCH  50  51
HETATM   51  C   UNK N   1      26.266  19.106   4.153  0.00  0.00    -0.056 A 
HETATM   52  C   UNK N   1      27.641  19.265   3.970  0.00  0.00     0.007 A 
HETATM   53  C   UNK N   1      28.359  20.144   4.783  0.00  0.00     0.001 A 
HETATM   54  C   UNK N   1      27.702  20.862   5.785  0.00  0.00     0.000 A 
HETATM   55  C   UNK N   1      26.329  20.688   5.984  0.00  0.00     0.001 A 
HETATM   56  C   UNK N   1      25.614  19.794   5.181  0.00  0.00     0.007 A 
ENDBRANCH  50  51
ENDBRANCH  18  50
ENDBRANCH  14  18
ENDBRANCH   9  10
ENDBRANCH   1   9
TORSDOF 12
ENDMDL
MODEL 3
REMARK VINA RESULT:      -8.2      3.106      7.155
REMARK  12 active torsions:
REMARK  status: ('A' for Active; 'I' for Inactive)
REMARK       I    between atoms: C_2  and  N_4 
REMARK    1  A    between atoms: N_7  and  C_10 
REMARK    2  A    between atoms: C_13  and  C_16 
REMARK    3  A    between atoms: C_16  and  N_17 
REMARK    4  A    between atoms: C_18  and  N_17 
REMARK       I    between atoms: N_17  and  C_43 
REMARK    5  A    between atoms: C_18  and  C_19 
REMARK    6  A    between atoms: C_18  and  C_26 
REMARK    7  A    between atoms: C_19  and  C_20 
REMARK       I    between atoms: C_26  and  N_28 
REMARK    8  A    between atoms: N_31  and  C_34 
REMARK    9  A    between atoms: C_34  and  C_35 
REMARK   10  A    between atoms: C_43  and  C_45 
REMARK   11  A    between atoms: C_46  and  C_47 
REMARK   12  A    between atoms: C_50  and  C_53 
ROOT
HETATM    1  C   UNK N   1      20.794  17.846   4.267  0.00  0.00    -0.030 A 
HETATM    2  C   UNK N   1      21.849  18.739   4.120  0.00  0.00     0.010 A 
HETATM    3  C   UNK N   1      21.914  19.579   3.012  0.00  0.00     0.023 A 
HETATM    4  C   UNK N   1      20.912  19.531   2.042  0.00  0.00     0.044 A 
HETATM    5  C   UNK N   1      19.856  18.620   2.172  0.00  0.00     0.023 A 
HETATM    6  C   UNK N   1      19.797  17.771   3.284  0.00  0.00     0.010 A 
HETATM    7  C   UNK N   1      20.948  20.426   0.922  0.00  0.00     0.099 C 
HETATM    8  N   UNK N   1      20.941  21.132   0.004  0.00  0.00    -0.191 NA
ENDROOT
BRANCH   1   9
HETATM    9  C   UNK N   1      20.719  17.038   5.518  0.00  0.00     0.311 C 
BRANCH   9  10
HETATM   10  N   UNK N   1      19.494  16.217   5.564  0.00  0.00     0.095 N 
HETATM   11  C   UNK N   1      19.084  16.060   6.966  0.00  0.00     0.292 C 
HETATM   12  C   UNK N   1      20.156  15.328   7.786  0.00  0.00     0.156 C 
HETATM   13  N   UNK N   1      20.979  14.542   6.901  0.00  0.00    -0.347 N 
HETATM   14  C   UNK N   1      22.336  14.523   7.028  0.00  0.00     0.243 C 
HETATM   15  C   UNK N   1      20.320  13.850   5.819  0.00  0.00     0.156 C 
HETATM   16  O   UNK N   1      22.886  15.140   7.927  0.00  0.00    -0.271 OA
HETATM   17  C   UNK N   1      19.667  14.896   4.910  0.00  0.00     0.292 C 
BRANCH  14  18
HETATM   18  C   UNK N   1      23.169  13.663   6.129  0.00  0.00     0.184 C 
BRANCH  18  19
HETATM   19  N   UNK N   1      23.702  14.351   4.964  0.00  0.00    -0.331 N 
HETATM   20  C   UNK N   1      24.113  13.621   3.864  0.00  0.00     0.244 C 
HETATM   21  O   UNK N   1      23.730  12.469   3.742  0.00  0.00    -0.268 OA
BRANCH  19  22
HETATM   22  C   UNK N   1      23.838  15.785   5.054  0.00  0.00     0.165 C 
BRANCH  22  23
HETATM   23  C   UNK N   1      25.279  16.150   5.292  0.00  0.00    -0.040 C 
HETATM   24  C   UNK N   1      25.928  17.035   4.420  0.00  0.00     0.011 C 
HETATM   25  C   UNK N   1      27.295  17.000   4.287  0.00  0.00     0.030 C 
HETATM   26  C   UNK N   1      28.039  16.107   5.068  0.00  0.00     0.030 C 
HETATM   27  C   UNK N   1      27.414  15.415   6.112  0.00  0.00     0.030 C 
HETATM   28  C   UNK N   1      26.027  15.415   6.208  0.00  0.00     0.011 C 
BRANCH  26  29
HETATM   29  N   UNK N   1      29.218  15.550   4.511  0.00  0.00    -0.378 N 
HETATM   30  C   UNK N   1      30.057  14.819   5.453  0.00  0.00     0.143 C 
HETATM   31  C   UNK N   1      31.022  15.835   6.078  0.00  0.00     0.145 C 
HETATM   32  N   UNK N   1      31.752  16.330   4.946  0.00  0.00    -0.349 N 
HETATM   33  C   UNK N   1      32.878  15.670   4.564  0.00  0.00     0.215 C 
HETATM   34  C   UNK N   1      31.023  17.144   4.002  0.00  0.00     0.145 C 
HETATM   35  C   UNK N   1      33.450  15.855   3.196  0.00  0.00     0.117 C 
HETATM   36  O   UNK N   1      33.377  14.833   5.302  0.00  0.00    -0.274 OA
HETATM   37  C   UNK N   1      29.900  16.258   3.429  0.00  0.00     0.143 C 
ENDBRANCH  26  29
ENDBRANCH  22  23
ENDBRANCH  19  22
BRANCH  20  38
HETATM   38  C   UNK N   1      25.015  14.152   2.793  0.00  0.00     0.075 C 
HETATM   39  C   UNK N   1      24.498  14.554   1.597  0.00  0.00     0.017 C 
BRANCH  39  40
HETATM   40  C   UNK N   1      23.091  14.241   1.195  0.00  0.00    -0.036 A 
HETATM   41  C   UNK N   1      22.044  15.057   1.630  0.00  0.00     0.012 A 
HETATM   42  C   UNK N   1      20.711  14.651   1.454  0.00  0.00     0.009 A 
HETATM   43  C   UNK N   1      20.411  13.413   0.854  0.00  0.00    -0.051 A 
HETATM   44  C   UNK N   1      21.468  12.620   0.383  0.00  0.00     0.009 A 
HETATM   45  C   UNK N   1      22.790  13.035   0.536  0.00  0.00     0.012 A 
BRANCH  43  46
HETATM   46  C   UNK N   1      18.983  12.892   0.779  0.00  0.00    -0.024 C 
HETATM   47  C   UNK N   1      18.930  11.604  -0.025  0.00  0.00     0.019 C 
HETATM   48  C   UNK N   1      18.472  12.606   2.176  0.00  0.00     0.019 C 
HETATM   49  C   UNK N   1      18.017  13.883   0.149  0.00  0.00     0.019 C 
ENDBRANCH  43  46
ENDBRANCH  39  40
ENDBRANCH  20  38
ENDBRANCH  18  19
BRANCH  18  50
HETATM   50  C   UNK N   1      23.799  12.421   6.767  0.00  0.00     0.073 C 
BRANCH  50  51
HETATM   51  C   UNK N   1      23.810  12.234   8.236  0.00  0.00    -0.056 A 
HETATM   52  C   UNK N   1      22.685  11.686   8.855  0.00  0.00     0.007 A 
HETATM   53  C   UNK N   1      22.635  11.579  10.246  0.00  0.00     0.001 A 
HETATM   54  C   UNK N   1      23.708  12.025  11.020  0.00  0.00     0.000 A 
HETATM   55  C   UNK N   1      24.827  12.595  10.402  0.00  0.00     0.001 A 
HETATM   56  C   UNK N   1      24.868  12.718   9.010  0.00  0.00     0.007 A 
ENDBRANCH  50  51
ENDBRANCH  18  50
ENDBRANCH  14  18
ENDBRANCH   9  10
ENDBRANCH   1   9
TORSDOF 12
ENDMDL
MODEL 4
REMARK VINA RESULT:      -8.1      4.426      9.568
REMARK  12 active torsions:
REMARK  status: ('A' for Active; 'I' for Inactive)
REMARK       I    between atoms: C_2  and  N_4 
REMARK    1  A    between atoms: N_7  and  C_10 
REMARK    2  A    between atoms: C_13  and  C_16 
REMARK    3  A    between atoms: C_16  and  N_17 
REMARK    4  A    between atoms: C_18  and  N_17 
REMARK       I    between atoms: N_17  and  C_43 
REMARK    5  A    between atoms: C_18  and  C_19 
REMARK    6  A    between atoms: C_18  and  C_26 
REMARK    7  A    between atoms: C_19  and  C_20 
REMARK       I    between atoms: C_26  and  N_28 
REMARK    8  A    between atoms: N_31  and  C_34 
REMARK    9  A    between atoms: C_34  and  C_35 
REMARK   10  A    between atoms: C_43  and  C_45 
REMARK   11  A    between atoms: C_46  and  C_47 
REMARK   12  A    between atoms: C_50  and  C_53 
ROOT
HETATM    1  C   UNK N   1      21.143  17.047   3.658  0.00  0.00    -0.030 A 
HETATM    2  C   UNK N   1      20.293  17.104   2.559  0.00  0.00     0.010 A 
HETATM    3  C   UNK N   1      20.158  18.283   1.832  0.00  0.00     0.023 A 
HETATM    4  C   UNK N   1      20.884  19.416   2.201  0.00  0.00     0.044 A 
HETATM    5  C   UNK N   1      21.728  19.374   3.318  0.00  0.00     0.023 A 
HETATM    6  C   UNK N   1      21.856  18.188   4.053  0.00  0.00     0.010 A 
HETATM    7  C   UNK N   1      20.785  20.620   1.427  0.00  0.00     0.099 C 
HETATM    8  N   UNK N   1      20.734  21.610   0.829  0.00  0.00    -0.191 NA
ENDROOT
BRANCH   1   9
HETATM    9  C   UNK N   1      21.327  15.736   4.344  0.00  0.00     0.311 C 
BRANCH   9  10
HETATM   10  N   UNK N   1      20.212  15.443   5.265  0.00  0.00     0.095 N 
HETATM   11  C   UNK N   1      20.289  16.364   6.407  0.00  0.00     0.292 C 
HETATM   12  C   UNK N   1      21.594  16.174   7.193  0.00  0.00     0.156 C 
HETATM   13  N   UNK N   1      22.107  14.849   6.955  0.00  0.00    -0.347 N 
HETATM   14  C   UNK N   1      23.431  14.636   6.706  0.00  0.00     0.243 C 
HETATM   15  C   UNK N   1      21.153  13.767   6.895  0.00  0.00     0.156 C 
HETATM   16  O   UNK N   1      24.224  15.565   6.725  0.00  0.00    -0.271 OA
HETATM   17  C   UNK N   1      20.204  14.031   5.721  0.00  0.00     0.292 C 
BRANCH  14  18
HETATM   18  C   UNK N   1      23.951  13.247   6.507  0.00  0.00     0.184 C 
BRANCH  18  19
HETATM   19  N   UNK N   1      24.091  12.851   5.116  0.00  0.00    -0.331 N 
HETATM   20  C   UNK N   1      25.282  13.083   4.451  0.00  0.00     0.244 C 
HETATM   21  O   UNK N   1      26.289  13.304   5.103  0.00  0.00    -0.268 OA
BRANCH  19  22
HETATM   22  C   UNK N   1      22.928  12.288   4.473  0.00  0.00     0.165 C 
BRANCH  22  23
HETATM   23  C   UNK N   1      22.923  10.791   4.640  0.00  0.00    -0.040 C 
HETATM   24  C   UNK N   1      22.502  10.226   5.852  0.00  0.00     0.011 C 
HETATM   25  C   UNK N   1      22.942   8.980   6.227  0.00  0.00     0.030 C 
HETATM   26  C   UNK N   1      23.775   8.257   5.364  0.00  0.00     0.030 C 
HETATM   27  C   UNK N   1      23.980   8.714   4.057  0.00  0.00     0.030 C 
HETATM   28  C   UNK N   1      23.576   9.997   3.703  0.00  0.00     0.011 C 
BRANCH  26  29
HETATM   29  N   UNK N   1      24.756   7.407   5.934  0.00  0.00    -0.378 N 
HETATM   30  C   UNK N   1      25.083   6.229   5.142  0.00  0.00     0.143 C 
HETATM   31  C   UNK N   1      24.108   5.121   5.559  0.00  0.00     0.145 C 
HETATM   32  N   UNK N   1      24.387   4.950   6.956  0.00  0.00    -0.349 N 
HETATM   33  C   UNK N   1      25.359   4.071   7.319  0.00  0.00     0.215 C 
HETATM   34  C   UNK N   1      24.012   6.032   7.836  0.00  0.00     0.145 C 
HETATM   35  C   UNK N   1      25.985   4.134   8.674  0.00  0.00     0.117 C 
HETATM   36  O   UNK N   1      25.809   3.283   6.500  0.00  0.00    -0.274 OA
HETATM   37  C   UNK N   1      24.819   7.266   7.388  0.00  0.00     0.143 C 
ENDBRANCH  26  29
ENDBRANCH  22  23
ENDBRANCH  19  22
BRANCH  20  38
HETATM   38  C   UNK N   1      25.426  13.087   2.961  0.00  0.00     0.075 C 
HETATM   39  C   UNK N   1      25.923  14.183   2.321  0.00  0.00     0.017 C 
BRANCH  39  40
HETATM   40  C   UNK N   1      26.086  15.499   3.013  0.00  0.00    -0.036 A 
HETATM   41  C   UNK N   1      24.965  16.288   3.286  0.00  0.00     0.012 A 
HETATM   42  C   UNK N   1      25.123  17.614   3.722  0.00  0.00     0.009 A 
HETATM   43  C   UNK N   1      26.406  18.171   3.876  0.00  0.00    -0.051 A 
HETATM   44  C   UNK N   1      27.525  17.359   3.640  0.00  0.00     0.009 A 
HETATM   45  C   UNK N   1      27.369  16.036   3.230  0.00  0.00     0.012 A 
BRANCH  43  46
HETATM   46  C   UNK N   1      26.597  19.643   4.213  0.00  0.00    -0.024 C 
HETATM   47  C   UNK N   1      28.062  19.938   4.488  0.00  0.00     0.019 C 
HETATM   48  C   UNK N   1      26.149  20.495   3.044  0.00  0.00     0.019 C 
HETATM   49  C   UNK N   1      25.790  20.090   5.421  0.00  0.00     0.019 C 
ENDBRANCH  43  46
ENDBRANCH  39  40
ENDBRANCH  20  38
ENDBRANCH  18  19
BRANCH  18  50
HETATM   50  C   UNK N   1      24.757  12.649   7.665  0.00  0.00     0.073 C 
BRANCH  50  51
HETATM   51  C   UNK N   1      24.119  12.335   8.963  0.00  0.00    -0.056 A 
HETATM   52  C   UNK N   1      22.757  12.028   8.990  0.00  0.00     0.007 A 
HETATM   53  C   UNK N   1      22.112  11.813  10.209  0.00  0.00     0.001 A 
HETATM   54  C   UNK N   1      22.828  11.910  11.405  0.00  0.00     0.000 A 
HETATM   55  C   UNK N   1      24.187  12.240  11.381  0.00  0.00     0.001 A 
HETATM   56  C   UNK N   1      24.828  12.472  10.160  0.00  0.00     0.007 A 
ENDBRANCH  50  51
ENDBRANCH  18  50
ENDBRANCH  14  18
ENDBRANCH   9  10
ENDBRANCH   1   9
TORSDOF 12
ENDMDL
MODEL 5
REMARK VINA RESULT:      -8.1      2.418      4.501
REMARK  12 active torsions:
REMARK  status: ('A' for Active; 'I' for Inactive)
REMARK       I    between atoms: C_2  and  N_4 
REMARK    1  A    between atoms: N_7  and  C_10 
REMARK    2  A    between atoms: C_13  and  C_16 
REMARK    3  A    between atoms: C_16  and  N_17 
REMARK    4  A    between atoms: C_18  and  N_17 
REMARK       I    between atoms: N_17  and  C_43 
REMARK    5  A    between atoms: C_18  and  C_19 
REMARK    6  A    between atoms: C_18  and  C_26 
REMARK    7  A    between atoms: C_19  and  C_20 
REMARK       I    between atoms: C_26  and  N_28 
REMARK    8  A    between atoms: N_31  and  C_34 
REMARK    9  A    between atoms: C_34  and  C_35 
REMARK   10  A    between atoms: C_43  and  C_45 
REMARK   11  A    between atoms: C_46  and  C_47 
REMARK   12  A    between atoms: C_50  and  C_53 
ROOT
HETATM    1  C   UNK N   1      22.990  11.434   5.806  0.00  0.00    -0.030 A 
HETATM    2  C   UNK N   1      21.921  10.629   5.427  0.00  0.00     0.010 A 
HETATM    3  C   UNK N   1      21.913   9.273   5.741  0.00  0.00     0.023 A 
HETATM    4  C   UNK N   1      22.979   8.715   6.446  0.00  0.00     0.044 A 
HETATM    5  C   UNK N   1      24.069   9.513   6.816  0.00  0.00     0.023 A 
HETATM    6  C   UNK N   1      24.079  10.876   6.491  0.00  0.00     0.010 A 
HETATM    7  C   UNK N   1      22.953   7.328   6.814  0.00  0.00     0.099 C 
HETATM    8  N   UNK N   1      22.971   6.215   7.131  0.00  0.00    -0.191 NA
ENDROOT
BRANCH   1   9
HETATM    9  C   UNK N   1      22.907  12.897   5.532  0.00  0.00     0.311 C 
BRANCH   9  10
HETATM   10  N   UNK N   1      22.403  13.643   6.701  0.00  0.00     0.095 N 
HETATM   11  C   UNK N   1      21.110  14.248   6.353  0.00  0.00     0.292 C 
HETATM   12  C   UNK N   1      21.252  15.250   5.198  0.00  0.00     0.156 C 
HETATM   13  N   UNK N   1      22.613  15.721   5.140  0.00  0.00    -0.347 N 
HETATM   14  C   UNK N   1      23.275  15.827   3.952  0.00  0.00     0.243 C 
HETATM   15  C   UNK N   1      23.281  15.985   6.392  0.00  0.00     0.156 C 
HETATM   16  O   UNK N   1      22.710  15.568   2.900  0.00  0.00    -0.271 OA
HETATM   17  C   UNK N   1      23.360  14.672   7.178  0.00  0.00     0.292 C 
BRANCH  14  18
HETATM   18  C   UNK N   1      24.672  16.363   3.908  0.00  0.00     0.184 C 
BRANCH  18  19
HETATM   19  N   UNK N   1      25.701  15.347   3.760  0.00  0.00    -0.331 N 
HETATM   20  C   UNK N   1      26.031  14.880   2.501  0.00  0.00     0.244 C 
HETATM   21  O   UNK N   1      25.711  15.538   1.525  0.00  0.00    -0.268 OA
BRANCH  19  22
HETATM   22  C   UNK N   1      26.283  14.821   4.973  0.00  0.00     0.165 C 
BRANCH  22  23
HETATM   23  C   UNK N   1      27.494  15.630   5.353  0.00  0.00    -0.040 C 
HETATM   24  C   UNK N   1      28.728  15.371   4.739  0.00  0.00     0.011 C 
HETATM   25  C   UNK N   1      29.901  15.694   5.376  0.00  0.00     0.030 C 
HETATM   26  C   UNK N   1      29.854  16.331   6.622  0.00  0.00     0.030 C 
HETATM   27  C   UNK N   1      28.633  16.815   7.105  0.00  0.00     0.030 C 
HETATM   28  C   UNK N   1      27.447  16.440   6.484  0.00  0.00     0.011 C 
BRANCH  26  29
HETATM   29  N   UNK N   1      30.876  16.043   7.562  0.00  0.00    -0.378 N 
HETATM   30  C   UNK N   1      31.338  17.188   8.336  0.00  0.00     0.143 C 
HETATM   31  C   UNK N   1      32.474  17.843   7.539  0.00  0.00     0.145 C 
HETATM   32  N   UNK N   1      33.453  16.797   7.448  0.00  0.00    -0.349 N 
HETATM   33  C   UNK N   1      34.372  16.684   8.444  0.00  0.00     0.215 C 
HETATM   34  C   UNK N   1      33.119  15.658   6.625  0.00  0.00     0.145 C 
HETATM   35  C   UNK N   1      35.139  15.416   8.640  0.00  0.00     0.117 C 
HETATM   36  O   UNK N   1      34.507  17.585   9.259  0.00  0.00    -0.274 OA
HETATM   37  C   UNK N   1      31.865  15.014   7.247  0.00  0.00     0.143 C 
ENDBRANCH  26  29
ENDBRANCH  22  23
ENDBRANCH  19  22
BRANCH  20  38
HETATM   38  C   UNK N   1      26.764  13.600   2.244  0.00  0.00     0.075 C 
HETATM   39  C   UNK N   1      26.145  12.572   1.599  0.00  0.00     0.017 C 
BRANCH  39  40
HETATM   40  C   UNK N   1      24.667  12.556   1.364  0.00  0.00    -0.036 A 
HETATM   41  C   UNK N   1      24.116  13.326   0.336  0.00  0.00     0.012 A 
HETATM   42  C   UNK N   1      22.725  13.500   0.251  0.00  0.00     0.009 A 
HETATM   43  C   UNK N   1      21.869  12.918   1.205  0.00  0.00    -0.051 A 
HETATM   44  C   UNK N   1      22.428  12.113   2.209  0.00  0.00     0.009 A 
HETATM   45  C   UNK N   1      23.807  11.921   2.279  0.00  0.00     0.012 A 
BRANCH  43  46
HETATM   46  C   UNK N   1      20.375  13.206   1.212  0.00  0.00    -0.024 C 
HETATM   47  C   UNK N   1      19.641  12.227   0.311  0.00  0.00     0.019 C 
HETATM   48  C   UNK N   1      19.835  13.057   2.620  0.00  0.00     0.019 C 
HETATM   49  C   UNK N   1      20.035  14.616   0.756  0.00  0.00     0.019 C 
ENDBRANCH  43  46
ENDBRANCH  39  40
ENDBRANCH  20  38
ENDBRANCH  18  19
BRANCH  18  50
HETATM   50  C   UNK N   1      24.828  17.824   3.477  0.00  0.00     0.073 C 
BRANCH  50  51
HETATM   51  C   UNK N   1      25.809  18.718   4.133  0.00  0.00    -0.056 A 
HETATM   52  C   UNK N   1      27.144  18.671   3.727  0.00  0.00     0.007 A 
HETATM   53  C   UNK N   1      28.103  19.439   4.388  0.00  0.00     0.001 A 
HETATM   54  C   UNK N   1      27.730  20.253   5.460  0.00  0.00     0.000 A 
HETATM   55  C   UNK N   1      26.397  20.284   5.883  0.00  0.00     0.001 A 
HETATM   56  C   UNK N   1      25.439  19.500   5.231  0.00  0.00     0.007 A 
ENDBRANCH  50  51
ENDBRANCH  18  50
ENDBRANCH  14  18
ENDBRANCH   9  10
ENDBRANCH   1   9
TORSDOF 12
ENDMDL
MODEL 6
REMARK VINA RESULT:      -8.1      2.785      7.242
REMARK  12 active torsions:
REMARK  status: ('A' for Active; 'I' for Inactive)
REMARK       I    between atoms: C_2  and  N_4 
REMARK    1  A    between atoms: N_7  and  C_10 
REMARK    2  A    between atoms: C_13  and  C_16 
REMARK    3  A    between atoms: C_16  and  N_17 
REMARK    4  A    between atoms: C_18  and  N_17 
REMARK       I    between atoms: N_17  and  C_43 
REMARK    5  A    between atoms: C_18  and  C_19 
REMARK    6  A    between atoms: C_18  and  C_26 
REMARK    7  A    between atoms: C_19  and  C_20 
REMARK       I    between atoms: C_26  and  N_28 
REMARK    8  A    between atoms: N_31  and  C_34 
REMARK    9  A    between atoms: C_34  and  C_35 
REMARK   10  A    between atoms: C_43  and  C_45 
REMARK   11  A    between atoms: C_46  and  C_47 
REMARK   12  A    between atoms: C_50  and  C_53 
ROOT
HETATM    1  C   UNK N   1      20.998  17.874   4.611  0.00  0.00    -0.030 A 
HETATM    2  C   UNK N   1      22.040  18.766   4.383  0.00  0.00     0.010 A 
HETATM    3  C   UNK N   1      22.062  19.546   3.231  0.00  0.00     0.023 A 
HETATM    4  C   UNK N   1      21.029  19.441   2.299  0.00  0.00     0.044 A 
HETATM    5  C   UNK N   1      19.985  18.532   2.510  0.00  0.00     0.023 A 
HETATM    6  C   UNK N   1      19.970  17.742   3.667  0.00  0.00     0.010 A 
HETATM    7  C   UNK N   1      21.021  20.278   1.133  0.00  0.00     0.099 C 
HETATM    8  N   UNK N   1      20.977  20.935   0.181  0.00  0.00    -0.191 NA
ENDROOT
BRANCH   1   9
HETATM    9  C   UNK N   1      20.971  17.132   5.904  0.00  0.00     0.311 C 
BRANCH   9  10
HETATM   10  N   UNK N   1      19.759  16.300   6.029  0.00  0.00     0.095 N 
HETATM   11  C   UNK N   1      19.627  15.866   7.426  0.00  0.00     0.292 C 
HETATM   12  C   UNK N   1      20.821  15.004   7.862  0.00  0.00     0.156 C 
HETATM   13  N   UNK N   1      21.436  14.418   6.697  0.00  0.00    -0.347 N 
HETATM   14  C   UNK N   1      22.791  14.396   6.549  0.00  0.00     0.243 C 
HETATM   15  C   UNK N   1      20.562  13.941   5.652  0.00  0.00     0.156 C 
HETATM   16  O   UNK N   1      23.521  14.834   7.426  0.00  0.00    -0.271 OA
HETATM   17  C   UNK N   1      19.770  15.135   5.110  0.00  0.00     0.292 C 
BRANCH  14  18
HETATM   18  C   UNK N   1      23.412  13.741   5.355  0.00  0.00     0.184 C 
BRANCH  18  19
HETATM   19  N   UNK N   1      23.544  14.607   4.195  0.00  0.00    -0.331 N 
HETATM   20  C   UNK N   1      23.133  14.160   2.953  0.00  0.00     0.244 C 
HETATM   21  O   UNK N   1      22.377  13.205   2.889  0.00  0.00    -0.268 OA
BRANCH  19  22
HETATM   22  C   UNK N   1      24.177  15.888   4.401  0.00  0.00     0.165 C 
BRANCH  22  23
HETATM   23  C   UNK N   1      25.674  15.732   4.371  0.00  0.00    -0.040 C 
HETATM   24  C   UNK N   1      26.341  15.186   5.477  0.00  0.00     0.011 C 
HETATM   25  C   UNK N   1      27.662  15.483   5.706  0.00  0.00     0.030 C 
HETATM   26  C   UNK N   1      28.352  16.295   4.798  0.00  0.00     0.030 C 
HETATM   27  C   UNK N   1      27.758  16.622   3.573  0.00  0.00     0.030 C 
HETATM   28  C   UNK N   1      26.407  16.363   3.370  0.00  0.00     0.011 C 
BRANCH  26  29
HETATM   29  N   UNK N   1      29.362  17.155   5.299  0.00  0.00    -0.378 N 
HETATM   30  C   UNK N   1      30.461  17.413   4.378  0.00  0.00     0.143 C 
HETATM   31  C   UNK N   1      31.506  16.313   4.605  0.00  0.00     0.145 C 
HETATM   32  N   UNK N   1      31.875  16.493   5.980  0.00  0.00    -0.349 N 
HETATM   33  C   UNK N   1      32.887  17.353   6.271  0.00  0.00     0.215 C 
HETATM   34  C   UNK N   1      30.876  16.173   6.972  0.00  0.00     0.145 C 
HETATM   35  C   UNK N   1      33.055  17.902   7.651  0.00  0.00     0.117 C 
HETATM   36  O   UNK N   1      33.611  17.772   5.379  0.00  0.00    -0.274 OA
HETATM   37  C   UNK N   1      29.686  17.120   6.724  0.00  0.00     0.143 C 
ENDBRANCH  26  29
ENDBRANCH  22  23
ENDBRANCH  19  22
BRANCH  20  38
HETATM   38  C   UNK N   1      23.559  14.774   1.655  0.00  0.00     0.075 C 
HETATM   39  C   UNK N   1      24.372  14.086   0.804  0.00  0.00     0.017 C 
BRANCH  39  40
HETATM   40  C   UNK N   1      25.085  12.839   1.221  0.00  0.00    -0.036 A 
HETATM   41  C   UNK N   1      24.606  11.591   0.813  0.00  0.00     0.012 A 
HETATM   42  C   UNK N   1      25.124  10.416   1.380  0.00  0.00     0.009 A 
HETATM   43  C   UNK N   1      26.118  10.475   2.375  0.00  0.00    -0.051 A 
HETATM   44  C   UNK N   1      26.621  11.730   2.748  0.00  0.00     0.009 A 
HETATM   45  C   UNK N   1      26.124  12.896   2.168  0.00  0.00     0.012 A 
BRANCH  43  46
HETATM   46  C   UNK N   1      26.593   9.224   3.099  0.00  0.00    -0.024 C 
HETATM   47  C   UNK N   1      27.931   8.765   2.544  0.00  0.00     0.019 C 
HETATM   48  C   UNK N   1      26.765   9.524   4.574  0.00  0.00     0.019 C 
HETATM   49  C   UNK N   1      25.615   8.064   2.996  0.00  0.00     0.019 C 
ENDBRANCH  43  46
ENDBRANCH  39  40
ENDBRANCH  20  38
ENDBRANCH  18  19
BRANCH  18  50
HETATM   50  C   UNK N   1      24.294  12.518   5.630  0.00  0.00     0.073 C 
BRANCH  50  51
HETATM   51  C   UNK N   1      23.714  11.159   5.724  0.00  0.00    -0.056 A 
HETATM   52  C   UNK N   1      23.913  10.419   6.890  0.00  0.00     0.007 A 
HETATM   53  C   UNK N   1      23.452   9.104   6.971  0.00  0.00     0.001 A 
HETATM   54  C   UNK N   1      22.795   8.526   5.883  0.00  0.00     0.000 A 
HETATM   55  C   UNK N   1      22.615   9.259   4.705  0.00  0.00     0.001 A 
HETATM   56  C   UNK N   1      23.093  10.570   4.619  0.00  0.00     0.007 A 
ENDBRANCH  50  51
ENDBRANCH  18  50
ENDBRANCH  14  18
ENDBRANCH   9  10
ENDBRANCH   1   9
TORSDOF 12
ENDMDL
MODEL 7
REMARK VINA RESULT:      -8.0      3.866      7.719
REMARK  12 active torsions:
REMARK  status: ('A' for Active; 'I' for Inactive)
REMARK       I    between atoms: C_2  and  N_4 
REMARK    1  A    between atoms: N_7  and  C_10 
REMARK    2  A    between atoms: C_13  and  C_16 
REMARK    3  A    between atoms: C_16  and  N_17 
REMARK    4  A    between atoms: C_18  and  N_17 
REMARK       I    between atoms: N_17  and  C_43 
REMARK    5  A    between atoms: C_18  and  C_19 
REMARK    6  A    between atoms: C_18  and  C_26 
REMARK    7  A    between atoms: C_19  and  C_20 
REMARK       I    between atoms: C_26  and  N_28 
REMARK    8  A    between atoms: N_31  and  C_34 
REMARK    9  A    between atoms: C_34  and  C_35 
REMARK   10  A    between atoms: C_43  and  C_45 
REMARK   11  A    between atoms: C_46  and  C_47 
REMARK   12  A    between atoms: C_50  and  C_53 
ROOT
HETATM    1  C   UNK N   1      21.254  16.984   3.946  0.00  0.00    -0.030 A 
HETATM    2  C   UNK N   1      20.173  17.133   3.084  0.00  0.00     0.010 A 
HETATM    3  C   UNK N   1      20.019  18.298   2.339  0.00  0.00     0.023 A 
HETATM    4  C   UNK N   1      20.958  19.324   2.450  0.00  0.00     0.044 A 
HETATM    5  C   UNK N   1      22.041  19.192   3.329  0.00  0.00     0.023 A 
HETATM    6  C   UNK N   1      22.188  18.021   4.084  0.00  0.00     0.010 A 
HETATM    7  C   UNK N   1      20.831  20.508   1.649  0.00  0.00     0.099 C 
HETATM    8  N   UNK N   1      20.765  21.478   1.020  0.00  0.00    -0.191 NA
ENDROOT
BRANCH   1   9
HETATM    9  C   UNK N   1      21.426  15.680   4.648  0.00  0.00     0.311 C 
BRANCH   9  10
HETATM   10  N   UNK N   1      20.194  15.273   5.351  0.00  0.00     0.095 N 
HETATM   11  C   UNK N   1      20.171  15.918   6.671  0.00  0.00     0.292 C 
HETATM   12  C   UNK N   1      21.360  15.471   7.535  0.00  0.00     0.156 C 
HETATM   13  N   UNK N   1      21.839  14.196   7.064  0.00  0.00    -0.347 N 
HETATM   14  C   UNK N   1      23.172  13.950   6.922  0.00  0.00     0.243 C 
HETATM   15  C   UNK N   1      20.852  13.222   6.660  0.00  0.00     0.156 C 
HETATM   16  O   UNK N   1      23.997  14.794   7.236  0.00  0.00    -0.271 OA
HETATM   17  C   UNK N   1      20.068  13.800   5.477  0.00  0.00     0.292 C 
BRANCH  14  18
HETATM   18  C   UNK N   1      23.651  12.603   6.477  0.00  0.00     0.184 C 
BRANCH  18  19
HETATM   19  N   UNK N   1      24.574  12.634   5.354  0.00  0.00    -0.331 N 
HETATM   20  C   UNK N   1      24.219  12.044   4.156  0.00  0.00     0.244 C 
HETATM   21  O   UNK N   1      23.042  11.802   3.942  0.00  0.00    -0.268 OA
BRANCH  19  22
HETATM   22  C   UNK N   1      25.867  13.234   5.584  0.00  0.00     0.165 C 
BRANCH  22  23
HETATM   23  C   UNK N   1      26.121  14.312   4.564  0.00  0.00    -0.040 C 
HETATM   24  C   UNK N   1      27.435  14.605   4.172  0.00  0.00     0.011 C 
HETATM   25  C   UNK N   1      27.749  15.847   3.674  0.00  0.00     0.030 C 
HETATM   26  C   UNK N   1      26.736  16.800   3.513  0.00  0.00     0.030 C 
HETATM   27  C   UNK N   1      25.398  16.418   3.662  0.00  0.00     0.030 C 
HETATM   28  C   UNK N   1      25.090  15.179   4.215  0.00  0.00     0.011 C 
BRANCH  26  29
HETATM   29  N   UNK N   1      27.064  18.166   3.703  0.00  0.00    -0.378 N 
HETATM   30  C   UNK N   1      28.171  18.411   4.619  0.00  0.00     0.143 C 
HETATM   31  C   UNK N   1      27.573  18.522   6.027  0.00  0.00     0.145 C 
HETATM   32  N   UNK N   1      26.682  19.642   5.915  0.00  0.00    -0.349 N 
HETATM   33  C   UNK N   1      27.174  20.887   6.151  0.00  0.00     0.215 C 
HETATM   34  C   UNK N   1      25.504  19.461   5.098  0.00  0.00     0.145 C 
HETATM   35  C   UNK N   1      26.452  22.103   5.667  0.00  0.00     0.117 C 
HETATM   36  O   UNK N   1      28.272  21.023   6.672  0.00  0.00    -0.274 OA
HETATM   37  C   UNK N   1      25.999  19.166   3.669  0.00  0.00     0.143 C 
ENDBRANCH  26  29
ENDBRANCH  22  23
ENDBRANCH  19  22
BRANCH  20  38
HETATM   38  C   UNK N   1      25.193  11.670   3.082  0.00  0.00     0.075 C 
HETATM   39  C   UNK N   1      24.948  12.009   1.784  0.00  0.00     0.017 C 
BRANCH  39  40
HETATM   40  C   UNK N   1      23.613  12.509   1.333  0.00  0.00    -0.036 A 
HETATM   41  C   UNK N   1      23.290  13.861   1.474  0.00  0.00     0.012 A 
HETATM   42  C   UNK N   1      21.971  14.298   1.270  0.00  0.00     0.009 A 
HETATM   43  C   UNK N   1      20.955  13.384   0.937  0.00  0.00    -0.051 A 
HETATM   44  C   UNK N   1      21.296  12.035   0.757  0.00  0.00     0.009 A 
HETATM   45  C   UNK N   1      22.610  11.605   0.936  0.00  0.00     0.012 A 
BRANCH  43  46
HETATM   46  C   UNK N   1      19.498  13.813   0.848  0.00  0.00    -0.024 C 
HETATM   47  C   UNK N   1      18.871  13.857   2.231  0.00  0.00     0.019 C 
HETATM   48  C   UNK N   1      19.412  15.198   0.240  0.00  0.00     0.019 C 
HETATM   49  C   UNK N   1      18.655  12.895  -0.024  0.00  0.00     0.019 C 
ENDBRANCH  43  46
ENDBRANCH  39  40
ENDBRANCH  20  38
ENDBRANCH  18  19
BRANCH  18  50
HETATM   50  C   UNK N   1      23.587  11.479   7.516  0.00  0.00     0.073 C 
BRANCH  50  51
HETATM   51  C   UNK N   1      23.501  11.777   8.964  0.00  0.00    -0.056 A 
HETATM   52  C   UNK N   1      24.677  12.021   9.675  0.00  0.00     0.007 A 
HETATM   53  C   UNK N   1      24.632  12.218  11.056  0.00  0.00     0.001 A 
HETATM   54  C   UNK N   1      23.409  12.166  11.729  0.00  0.00     0.000 A 
HETATM   55  C   UNK N   1      22.232  11.899  11.022  0.00  0.00     0.001 A 
HETATM   56  C   UNK N   1      22.281  11.684   9.641  0.00  0.00     0.007 A 
ENDBRANCH  50  51
ENDBRANCH  18  50
ENDBRANCH  14  18
ENDBRANCH   9  10
ENDBRANCH   1   9
TORSDOF 12
ENDMDL
MODEL 8
REMARK VINA RESULT:      -8.0      2.730      9.218
REMARK  12 active torsions:
REMARK  status: ('A' for Active; 'I' for Inactive)
REMARK       I    between atoms: C_2  and  N_4 
REMARK    1  A    between atoms: N_7  and  C_10 
REMARK    2  A    between atoms: C_13  and  C_16 
REMARK    3  A    between atoms: C_16  and  N_17 
REMARK    4  A    between atoms: C_18  and  N_17 
REMARK       I    between atoms: N_17  and  C_43 
REMARK    5  A    between atoms: C_18  and  C_19 
REMARK    6  A    between atoms: C_18  and  C_26 
REMARK    7  A    between atoms: C_19  and  C_20 
REMARK       I    between atoms: C_26  and  N_28 
REMARK    8  A    between atoms: N_31  and  C_34 
REMARK    9  A    between atoms: C_34  and  C_35 
REMARK   10  A    between atoms: C_43  and  C_45 
REMARK   11  A    between atoms: C_46  and  C_47 
REMARK   12  A    between atoms: C_50  and  C_53 
ROOT
HETATM    1  C   UNK N   1      30.414  15.739   5.365  0.00  0.00    -0.030 A 
HETATM    2  C   UNK N   1      30.164  16.749   6.288  0.00  0.00     0.010 A 
HETATM    3  C   UNK N   1      31.217  17.419   6.903  0.00  0.00     0.023 A 
HETATM    4  C   UNK N   1      32.534  17.082   6.590  0.00  0.00     0.044 A 
HETATM    5  C   UNK N   1      32.796  16.054   5.676  0.00  0.00     0.023 A 
HETATM    6  C   UNK N   1      31.734  15.375   5.065  0.00  0.00     0.010 A 
HETATM    7  C   UNK N   1      33.624  17.802   7.185  0.00  0.00     0.099 C 
HETATM    8  N   UNK N   1      34.530  18.358   7.643  0.00  0.00    -0.191 NA
ENDROOT
BRANCH   1   9
HETATM    9  C   UNK N   1      29.254  15.119   4.662  0.00  0.00     0.311 C 
BRANCH   9  10
HETATM   10  N   UNK N   1      29.658  13.927   3.892  0.00  0.00     0.095 N 
HETATM   11  C   UNK N   1      29.738  14.289   2.470  0.00  0.00     0.292 C 
HETATM   12  C   UNK N   1      28.375  14.743   1.929  0.00  0.00     0.156 C 
HETATM   13  N   UNK N   1      27.328  14.194   2.753  0.00  0.00    -0.347 N 
HETATM   14  C   UNK N   1      26.269  14.956   3.152  0.00  0.00     0.243 C 
HETATM   15  C   UNK N   1      27.488  12.837   3.217  0.00  0.00     0.156 C 
HETATM   16  O   UNK N   1      26.161  16.114   2.781  0.00  0.00    -0.271 OA
HETATM   17  C   UNK N   1      28.741  12.778   4.097  0.00  0.00     0.292 C 
BRANCH  14  18
HETATM   18  C   UNK N   1      25.168  14.354   3.968  0.00  0.00     0.184 C 
BRANCH  18  19
HETATM   19  N   UNK N   1      25.287  14.582   5.399  0.00  0.00    -0.331 N 
HETATM   20  C   UNK N   1      25.361  13.505   6.263  0.00  0.00     0.244 C 
HETATM   21  O   UNK N   1      25.657  12.409   5.817  0.00  0.00    -0.268 OA
BRANCH  19  22
HETATM   22  C   UNK N   1      25.249  15.953   5.850  0.00  0.00     0.165 C 
BRANCH  22  23
HETATM   23  C   UNK N   1      23.843  16.484   5.760  0.00  0.00    -0.040 C 
HETATM   24  C   UNK N   1      22.801  15.815   6.418  0.00  0.00     0.011 C 
HETATM   25  C   UNK N   1      21.507  15.940   5.973  0.00  0.00     0.030 C 
HETATM   26  C   UNK N   1      21.231  16.781   4.889  0.00  0.00     0.030 C 
HETATM   27  C   UNK N   1      22.228  17.637   4.406  0.00  0.00     0.030 C 
HETATM   28  C   UNK N   1      23.544  17.469   4.824  0.00  0.00     0.011 C 
BRANCH  26  29
HETATM   29  N   UNK N   1      20.181  16.418   4.008  0.00  0.00    -0.378 N 
HETATM   30  C   UNK N   1      19.531  15.150   4.317  0.00  0.00     0.143 C 
HETATM   31  C   UNK N   1      20.313  14.053   3.584  0.00  0.00     0.145 C 
HETATM   32  N   UNK N   1      20.184  14.426   2.204  0.00  0.00    -0.349 N 
HETATM   33  C   UNK N   1      19.111  13.965   1.507  0.00  0.00     0.215 C 
HETATM   34  C   UNK N   1      20.872  15.624   1.783  0.00  0.00     0.145 C 
HETATM   35  C   UNK N   1      18.685  14.618   0.232  0.00  0.00     0.117 C 
HETATM   36  O   UNK N   1      18.415  13.074   1.973  0.00  0.00    -0.274 OA
HETATM   37  C   UNK N   1      20.274  16.788   2.597  0.00  0.00     0.143 C 
ENDBRANCH  26  29
ENDBRANCH  22  23
ENDBRANCH  19  22
BRANCH  20  38
HETATM   38  C   UNK N   1      25.097  13.589   7.735  0.00  0.00     0.075 C 
HETATM   39  C   UNK N   1      24.250  12.703   8.332  0.00  0.00     0.017 C 
BRANCH  39  40
HETATM   40  C   UNK N   1      23.353  11.805   7.540  0.00  0.00    -0.036 A 
HETATM   41  C   UNK N   1      23.690  10.461   7.364  0.00  0.00     0.012 A 
HETATM   42  C   UNK N   1      22.985   9.670   6.442  0.00  0.00     0.009 A 
HETATM   43  C   UNK N   1      21.944  10.221   5.673  0.00  0.00    -0.051 A 
HETATM   44  C   UNK N   1      21.585  11.560   5.885  0.00  0.00     0.009 A 
HETATM   45  C   UNK N   1      22.269  12.339   6.818  0.00  0.00     0.012 A 
BRANCH  43  46
HETATM   46  C   UNK N   1      21.261   9.422   4.572  0.00  0.00    -0.024 C 
HETATM   47  C   UNK N   1      22.260   8.510   3.880  0.00  0.00     0.019 C 
HETATM   48  C   UNK N   1      20.166   8.563   5.172  0.00  0.00     0.019 C 
HETATM   49  C   UNK N   1      20.606  10.296   3.515  0.00  0.00     0.019 C 
ENDBRANCH  43  46
ENDBRANCH  39  40
ENDBRANCH  20  38
ENDBRANCH  18  19
BRANCH  18  50
HETATM   50  C   UNK N   1      23.848  14.086   3.239  0.00  0.00     0.073 C 
BRANCH  50  51
HETATM   51  C   UNK N   1      23.756  13.072   2.164  0.00  0.00    -0.056 A 
HETATM   52  C   UNK N   1      23.930  11.726   2.489  0.00  0.00     0.007 A 
HETATM   53  C   UNK N   1      23.935  10.758   1.483  0.00  0.00     0.001 A 
HETATM   54  C   UNK N   1      23.770  11.137   0.149  0.00  0.00     0.000 A 
HETATM   55  C   UNK N   1      23.618  12.488  -0.180  0.00  0.00     0.001 A 
HETATM   56  C   UNK N   1      23.632  13.458   0.827  0.00  0.00     0.007 A 
ENDBRANCH  50  51
ENDBRANCH  18  50
ENDBRANCH  14  18
ENDBRANCH   9  10
ENDBRANCH   1   9
TORSDOF 12
ENDMDL
MODEL 9
REMARK VINA RESULT:      -8.0      3.126      7.076
REMARK  12 active torsions:
REMARK  status: ('A' for Active; 'I' for Inactive)
REMARK       I    between atoms: C_2  and  N_4 
REMARK    1  A    between atoms: N_7  and  C_10 
REMARK    2  A    between atoms: C_13  and  C_16 
REMARK    3  A    between atoms: C_16  and  N_17 
REMARK    4  A    between atoms: C_18  and  N_17 
REMARK       I    between atoms: N_17  and  C_43 
REMARK    5  A    between atoms: C_18  and  C_19 
REMARK    6  A    between atoms: C_18  and  C_26 
REMARK    7  A    between atoms: C_19  and  C_20 
REMARK       I    between atoms: C_26  and  N_28 
REMARK    8  A    between atoms: N_31  and  C_34 
REMARK    9  A    between atoms: C_34  and  C_35 
REMARK   10  A    between atoms: C_43  and  C_45 
REMARK   11  A    between atoms: C_46  and  C_47 
REMARK   12  A    between atoms: C_50  and  C_53 
ROOT
HETATM    1  C   UNK N   1      22.422  17.095   5.773  0.00  0.00    -0.030 A 
HETATM    2  C   UNK N   1      21.300  17.917   5.809  0.00  0.00     0.010 A 
HETATM    3  C   UNK N   1      21.136  18.928   4.867  0.00  0.00     0.023 A 
HETATM    4  C   UNK N   1      22.098  19.119   3.875  0.00  0.00     0.044 A 
HETATM    5  C   UNK N   1      23.240  18.309   3.842  0.00  0.00     0.023 A 
HETATM    6  C   UNK N   1      23.407  17.297   4.796  0.00  0.00     0.010 A 
HETATM    7  C   UNK N   1      21.911  20.128   2.873  0.00  0.00     0.099 C 
HETATM    8  N   UNK N   1      21.797  20.931   2.046  0.00  0.00    -0.191 NA
ENDROOT
BRANCH   1   9
HETATM    9  C   UNK N   1      22.504  15.966   6.743  0.00  0.00     0.311 C 
BRANCH   9  10
HETATM   10  N   UNK N   1      21.177  15.372   7.000  0.00  0.00     0.095 N 
HETATM   11  C   UNK N   1      21.222  14.656   8.282  0.00  0.00     0.292 C 
HETATM   12  C   UNK N   1      22.239  13.507   8.248  0.00  0.00     0.156 C 
HETATM   13  N   UNK N   1      22.459  13.104   6.882  0.00  0.00    -0.347 N 
HETATM   14  C   UNK N   1      23.714  12.861   6.408  0.00  0.00     0.243 C 
HETATM   15  C   UNK N   1      21.310  13.059   6.009  0.00  0.00     0.156 C 
HETATM   16  O   UNK N   1      24.683  12.936   7.149  0.00  0.00    -0.271 OA
HETATM   17  C   UNK N   1      20.732  14.474   5.906  0.00  0.00     0.292 C 
BRANCH  14  18
HETATM   18  C   UNK N   1      23.917  12.399   4.999  0.00  0.00     0.184 C 
BRANCH  18  19
HETATM   19  N   UNK N   1      24.502  13.395   4.118  0.00  0.00    -0.331 N 
HETATM   20  C   UNK N   1      23.709  14.042   3.188  0.00  0.00     0.244 C 
HETATM   21  O   UNK N   1      22.498  14.022   3.329  0.00  0.00    -0.268 OA
BRANCH  19  22
HETATM   22  C   UNK N   1      25.927  13.606   4.221  0.00  0.00     0.165 C 
BRANCH  22  23
HETATM   23  C   UNK N   1      26.208  15.039   4.590  0.00  0.00    -0.040 C 
HETATM   24  C   UNK N   1      26.700  15.925   3.622  0.00  0.00     0.011 C 
HETATM   25  C   UNK N   1      27.424  17.031   3.998  0.00  0.00     0.030 C 
HETATM   26  C   UNK N   1      27.623  17.292   5.359  0.00  0.00     0.030 C 
HETATM   27  C   UNK N   1      26.916  16.553   6.316  0.00  0.00     0.030 C 
HETATM   28  C   UNK N   1      26.228  15.407   5.932  0.00  0.00     0.011 C 
BRANCH  26  29
HETATM   29  N   UNK N   1      28.840  17.903   5.755  0.00  0.00    -0.378 N 
HETATM   30  C   UNK N   1      29.964  17.671   4.857  0.00  0.00     0.143 C 
HETATM   31  C   UNK N   1      30.647  16.376   5.316  0.00  0.00     0.145 C 
HETATM   32  N   UNK N   1      31.056  16.682   6.657  0.00  0.00    -0.349 N 
HETATM   33  C   UNK N   1      32.275  17.255   6.847  0.00  0.00     0.215 C 
HETATM   34  C   UNK N   1      30.010  16.840   7.641  0.00  0.00     0.145 C 
HETATM   35  C   UNK N   1      32.599  17.968   8.120  0.00  0.00     0.117 C 
HETATM   36  O   UNK N   1      33.086  17.287   5.932  0.00  0.00    -0.274 OA
HETATM   37  C   UNK N   1      29.144  18.028   7.179  0.00  0.00     0.143 C 
ENDBRANCH  26  29
ENDBRANCH  22  23
ENDBRANCH  19  22
BRANCH  20  38
HETATM   38  C   UNK N   1      24.240  14.775   1.995  0.00  0.00     0.075 C 
HETATM   39  C   UNK N   1      24.368  14.137   0.797  0.00  0.00     0.017 C 
BRANCH  39  40
HETATM   40  C   UNK N   1      24.255  12.650   0.674  0.00  0.00    -0.036 A 
HETATM   41  C   UNK N   1      25.304  11.833   1.102  0.00  0.00     0.012 A 
HETATM   42  C   UNK N   1      25.309  10.465   0.785  0.00  0.00     0.009 A 
HETATM   43  C   UNK N   1      24.270   9.901   0.021  0.00  0.00    -0.051 A 
HETATM   44  C   UNK N   1      23.201  10.720  -0.369  0.00  0.00     0.009 A 
HETATM   45  C   UNK N   1      23.184  12.074  -0.034  0.00  0.00     0.012 A 
BRANCH  43  46
HETATM   46  C   UNK N   1      24.325   8.455  -0.450  0.00  0.00    -0.024 C 
HETATM   47  C   UNK N   1      24.942   7.571   0.621  0.00  0.00     0.019 C 
HETATM   48  C   UNK N   1      22.922   7.958  -0.730  0.00  0.00     0.019 C 
HETATM   49  C   UNK N   1      25.122   8.272  -1.732  0.00  0.00     0.019 C 
ENDBRANCH  43  46
ENDBRANCH  39  40
ENDBRANCH  20  38
ENDBRANCH  18  19
BRANCH  18  50
HETATM   50  C   UNK N   1      24.020  10.885   4.788  0.00  0.00     0.073 C 
BRANCH  50  51
HETATM   51  C   UNK N   1      23.091  10.171   3.883  0.00  0.00    -0.056 A 
HETATM   52  C   UNK N   1      22.035  10.877   3.303  0.00  0.00     0.007 A 
HETATM   53  C   UNK N   1      21.095  10.210   2.517  0.00  0.00     0.001 A 
HETATM   54  C   UNK N   1      21.207   8.833   2.312  0.00  0.00     0.000 A 
HETATM   55  C   UNK N   1      22.252   8.120   2.909  0.00  0.00     0.001 A 
HETATM   56  C   UNK N   1      23.183   8.787   3.712  0.00  0.00     0.007 A 
ENDBRANCH  50  51
ENDBRANCH  18  50
ENDBRANCH  14  18
ENDBRANCH   9  10
ENDBRANCH   1   9
TORSDOF 12
ENDMDL
