MODEL 1
REMARK VINA RESULT:      -6.7      0.000      0.000
REMARK  0 active torsions:
REMARK  status: ('A' for Active; 'I' for Inactive)
ROOT
HETATM    1  C   UNK N   1      37.344   9.570  14.824  0.00  0.00     0.043 C 
HETATM    2  C   UNK N   1      35.910   9.230  15.080  0.00  0.00    -0.087 C 
HETATM    3  C   UNK N   1      34.948   9.495  14.184  0.00  0.00    -0.024 C 
HETATM    4  C   UNK N   1      35.233  10.195  12.890  0.00  0.00     0.030 C 
HETATM    5  C   UNK N   1      34.701  11.630  12.988  0.00  0.00     0.044 C 
HETATM    6  C   UNK N   1      35.357  12.366  14.156  0.00  0.00     0.087 A 
HETATM    7  C   UNK N   1      34.678  12.191  15.476  0.00  0.00     0.187 A 
HETATM    8  O   UNK N   1      34.555  13.375  14.713  0.00  0.00    -0.367 OA
HETATM    9  C   UNK N   1      35.649  12.337  16.653  0.00  0.00     0.172 A 
HETATM   10  C   UNK N   1      35.812  11.029  17.534  0.00  0.00     0.056 A 
HETATM   11  C   UNK N   1      34.832   9.886  17.210  0.00  0.00     0.016 C 
HETATM   12  C   UNK N   1      35.522   8.758  16.440  0.00  0.00     0.034 C 
HETATM   13  C   UNK N   1      35.510  11.559  18.890  0.00  0.00     0.015 A 
HETATM   14  C   UNK N   1      35.554  10.860  20.026  0.00  0.00     0.025 C 
HETATM   15  C   UNK N   1      35.175  12.944  18.773  0.00  0.00     0.289 A 
HETATM   16  O   UNK N   1      34.868  13.675  19.699  0.00  0.00    -0.260 OA
HETATM   17  O   UNK N   1      35.249  13.355  17.506  0.00  0.00    -0.309 OA
HETATM   18  C   UNK N   1      36.791  12.859  14.021  0.00  0.00     0.049 C 
ENDROOT
TORSDOF 0
ENDMDL
MODEL 2
REMARK VINA RESULT:      -6.3     24.296     26.821
REMARK  0 active torsions:
REMARK  status: ('A' for Active; 'I' for Inactive)
ROOT
HETATM    1  C   UNK N   1      26.356  26.016  -7.510  0.00  0.00     0.043 C 
HETATM    2  C   UNK N   1      25.720  25.325  -6.346  0.00  0.00    -0.087 C 
HETATM    3  C   UNK N   1      24.937  25.978  -5.475  0.00  0.00    -0.024 C 
HETATM    4  C   UNK N   1      24.686  27.452  -5.577  0.00  0.00     0.030 C 
HETATM    5  C   UNK N   1      25.478  28.156  -4.469  0.00  0.00     0.044 C 
HETATM    6  C   UNK N   1      26.970  27.852  -4.601  0.00  0.00     0.087 A 
HETATM    7  C   UNK N   1      27.425  26.604  -3.917  0.00  0.00     0.187 A 
HETATM    8  O   UNK N   1      27.667  27.890  -3.382  0.00  0.00    -0.367 OA
HETATM    9  C   UNK N   1      28.661  25.993  -4.584  0.00  0.00     0.172 A 
HETATM   10  C   UNK N   1      28.429  24.547  -5.195  0.00  0.00     0.056 A 
HETATM   11  C   UNK N   1      27.078  23.892  -4.851  0.00  0.00     0.016 C 
HETATM   12  C   UNK N   1      26.122  23.922  -6.046  0.00  0.00     0.034 C 
HETATM   13  C   UNK N   1      29.521  23.782  -4.538  0.00  0.00     0.015 A 
HETATM   14  C   UNK N   1      29.805  22.494  -4.748  0.00  0.00     0.025 C 
HETATM   15  C   UNK N   1      30.223  24.657  -3.652  0.00  0.00     0.289 A 
HETATM   16  O   UNK N   1      31.170  24.342  -2.954  0.00  0.00    -0.260 OA
HETATM   17  O   UNK N   1      29.714  25.890  -3.687  0.00  0.00    -0.309 OA
HETATM   18  C   UNK N   1      27.783  28.547  -5.685  0.00  0.00     0.049 C 
ENDROOT
TORSDOF 0
ENDMDL
MODEL 3
REMARK VINA RESULT:      -6.2      1.867      3.540
REMARK  0 active torsions:
REMARK  status: ('A' for Active; 'I' for Inactive)
ROOT
HETATM    1  C   UNK N   1      34.830  13.357  12.485  0.00  0.00     0.043 C 
HETATM    2  C   UNK N   1      36.243  13.453  12.966  0.00  0.00    -0.087 C 
HETATM    3  C   UNK N   1      37.195  12.610  12.540  0.00  0.00    -0.024 C 
HETATM    4  C   UNK N   1      36.901  11.486  11.594  0.00  0.00     0.030 C 
HETATM    5  C   UNK N   1      36.935  10.170  12.382  0.00  0.00     0.044 C 
HETATM    6  C   UNK N   1      35.914  10.200  13.519  0.00  0.00     0.087 A 
HETATM    7  C   UNK N   1      36.408  10.795  14.798  0.00  0.00     0.187 A 
HETATM    8  O   UNK N   1      36.266   9.400  14.619  0.00  0.00    -0.367 OA
HETATM    9  C   UNK N   1      35.276  11.409  15.628  0.00  0.00     0.172 A 
HETATM   10  C   UNK N   1      35.403  12.975  15.853  0.00  0.00     0.056 A 
HETATM   11  C   UNK N   1      36.729  13.605  15.389  0.00  0.00     0.016 C 
HETATM   12  C   UNK N   1      36.551  14.387  14.086  0.00  0.00     0.034 C 
HETATM   13  C   UNK N   1      35.316  13.058  17.335  0.00  0.00     0.015 A 
HETATM   14  C   UNK N   1      35.325  14.183  18.053  0.00  0.00     0.025 C 
HETATM   15  C   UNK N   1      35.213  11.733  17.860  0.00  0.00     0.289 A 
HETATM   16  O   UNK N   1      35.133  11.448  19.042  0.00  0.00    -0.260 OA
HETATM   17  O   UNK N   1      35.204  10.824  16.884  0.00  0.00    -0.309 OA
HETATM   18  C   UNK N   1      34.435  10.025  13.203  0.00  0.00     0.049 C 
ENDROOT
TORSDOF 0
ENDMDL
MODEL 4
REMARK VINA RESULT:      -6.0     25.373     28.360
REMARK  0 active torsions:
REMARK  status: ('A' for Active; 'I' for Inactive)
ROOT
HETATM    1  C   UNK N   1      29.141  26.611  -6.182  0.00  0.00     0.043 C 
HETATM    2  C   UNK N   1      27.855  27.341  -6.409  0.00  0.00    -0.087 C 
HETATM    3  C   UNK N   1      27.130  27.829  -5.393  0.00  0.00    -0.024 C 
HETATM    4  C   UNK N   1      27.528  27.637  -3.962  0.00  0.00     0.030 C 
HETATM    5  C   UNK N   1      26.593  26.595  -3.335  0.00  0.00     0.044 C 
HETATM    6  C   UNK N   1      26.674  25.274  -4.101  0.00  0.00     0.087 A 
HETATM    7  C   UNK N   1      25.753  25.165  -5.273  0.00  0.00     0.187 A 
HETATM    8  O   UNK N   1      25.494  24.513  -4.045  0.00  0.00    -0.367 OA
HETATM    9  C   UNK N   1      26.292  24.217  -6.349  0.00  0.00     0.172 A 
HETATM   10  C   UNK N   1      26.592  24.912  -7.743  0.00  0.00     0.056 A 
HETATM   11  C   UNK N   1      26.111  26.369  -7.874  0.00  0.00     0.016 C 
HETATM   12  C   UNK N   1      27.278  27.355  -7.783  0.00  0.00     0.034 C 
HETATM   13  C   UNK N   1      25.803  24.054  -8.665  0.00  0.00     0.015 A 
HETATM   14  C   UNK N   1      25.748  24.183  -9.993  0.00  0.00     0.025 C 
HETATM   15  C   UNK N   1      25.120  23.063  -7.894  0.00  0.00     0.289 A 
HETATM   16  O   UNK N   1      24.381  22.206  -8.343  0.00  0.00    -0.260 OA
HETATM   17  O   UNK N   1      25.402  23.183  -6.595  0.00  0.00    -0.309 OA
HETATM   18  C   UNK N   1      27.883  24.369  -3.910  0.00  0.00     0.049 C 
ENDROOT
TORSDOF 0
ENDMDL
MODEL 5
REMARK VINA RESULT:      -6.0      7.639     10.397
REMARK  0 active torsions:
REMARK  status: ('A' for Active; 'I' for Inactive)
ROOT
HETATM    1  C   UNK N   1      31.415  16.379   7.123  0.00  0.00     0.043 C 
HETATM    2  C   UNK N   1      32.507  17.362   6.843  0.00  0.00    -0.087 C 
HETATM    3  C   UNK N   1      33.057  17.483   5.627  0.00  0.00    -0.024 C 
HETATM    4  C   UNK N   1      32.652  16.612   4.477  0.00  0.00     0.030 C 
HETATM    5  C   UNK N   1      33.774  15.598   4.220  0.00  0.00     0.044 C 
HETATM    6  C   UNK N   1      34.032  14.757   5.471  0.00  0.00     0.087 A 
HETATM    7  C   UNK N   1      35.003  15.348   6.442  0.00  0.00     0.187 A 
HETATM    8  O   UNK N   1      35.352  14.287   5.575  0.00  0.00    -0.367 OA
HETATM    9  C   UNK N   1      34.742  14.886   7.879  0.00  0.00     0.172 A 
HETATM   10  C   UNK N   1      34.350  16.051   8.882  0.00  0.00     0.056 A 
HETATM   11  C   UNK N   1      34.489  17.480   8.323  0.00  0.00     0.016 C 
HETATM   12  C   UNK N   1      33.124  18.086   7.992  0.00  0.00     0.034 C 
HETATM   13  C   UNK N   1      35.355  15.850   9.959  0.00  0.00     0.015 A 
HETATM   14  C   UNK N   1      35.435  16.555  11.089  0.00  0.00     0.025 C 
HETATM   15  C   UNK N   1      36.213  14.769   9.586  0.00  0.00     0.289 A 
HETATM   16  O   UNK N   1      37.149  14.353  10.246  0.00  0.00    -0.260 OA
HETATM   17  O   UNK N   1      35.856  14.252   8.409  0.00  0.00    -0.309 OA
HETATM   18  C   UNK N   1      33.056  13.651   5.845  0.00  0.00     0.049 C 
ENDROOT
TORSDOF 0
ENDMDL
MODEL 6
REMARK VINA RESULT:      -6.0      2.067      5.185
REMARK  0 active torsions:
REMARK  status: ('A' for Active; 'I' for Inactive)
ROOT
HETATM    1  C   UNK N   1      35.971   8.981  13.645  0.00  0.00     0.043 C 
HETATM    2  C   UNK N   1      37.070   9.896  14.085  0.00  0.00    -0.087 C 
HETATM    3  C   UNK N   1      37.173  10.322  15.351  0.00  0.00    -0.024 C 
HETATM    4  C   UNK N   1      36.170   9.955  16.402  0.00  0.00     0.030 C 
HETATM    5  C   UNK N   1      35.302  11.185  16.694  0.00  0.00     0.044 C 
HETATM    6  C   UNK N   1      34.602  11.661  15.420  0.00  0.00     0.087 A 
HETATM    7  C   UNK N   1      35.391  12.613  14.582  0.00  0.00     0.187 A 
HETATM    8  O   UNK N   1      34.325  13.038  15.407  0.00  0.00    -0.367 OA
HETATM    9  C   UNK N   1      35.008  12.538  13.100  0.00  0.00     0.172 A 
HETATM   10  C   UNK N   1      36.181  12.066  12.142  0.00  0.00     0.056 A 
HETATM   11  C   UNK N   1      37.569  11.954  12.801  0.00  0.00     0.016 C 
HETATM   12  C   UNK N   1      37.956  10.494  13.045  0.00  0.00     0.034 C 
HETATM   13  C   UNK N   1      36.201  13.172  11.150  0.00  0.00     0.015 A 
HETATM   14  C   UNK N   1      36.995  13.243  10.079  0.00  0.00     0.025 C 
HETATM   15  C   UNK N   1      35.223  14.143  11.530  0.00  0.00     0.289 A 
HETATM   16  O   UNK N   1      34.989  15.179  10.932  0.00  0.00    -0.260 OA
HETATM   17  O   UNK N   1      34.574  13.770  12.634  0.00  0.00    -0.309 OA
HETATM   18  C   UNK N   1      33.403  10.886  14.890  0.00  0.00     0.049 C 
ENDROOT
TORSDOF 0
ENDMDL
MODEL 7
REMARK VINA RESULT:      -6.0      9.741     12.900
REMARK  0 active torsions:
REMARK  status: ('A' for Active; 'I' for Inactive)
ROOT
HETATM    1  C   UNK N   1      33.587  15.293   5.505  0.00  0.00     0.043 C 
HETATM    2  C   UNK N   1      33.383  16.749   5.230  0.00  0.00    -0.087 C 
HETATM    3  C   UNK N   1      33.746  17.694   6.109  0.00  0.00    -0.024 C 
HETATM    4  C   UNK N   1      34.334  17.357   7.446  0.00  0.00     0.030 C 
HETATM    5  C   UNK N   1      33.271  17.618   8.521  0.00  0.00     0.044 C 
HETATM    6  C   UNK N   1      32.021  16.779   8.253  0.00  0.00     0.087 A 
HETATM    7  C   UNK N   1      31.022  17.407   7.336  0.00  0.00     0.187 A 
HETATM    8  O   UNK N   1      30.836  17.358   8.737  0.00  0.00    -0.367 OA
HETATM    9  C   UNK N   1      30.187  16.366   6.585  0.00  0.00     0.172 A 
HETATM   10  C   UNK N   1      30.367  16.393   5.009  0.00  0.00     0.056 A 
HETATM   11  C   UNK N   1      31.182  17.577   4.456  0.00  0.00     0.016 C 
HETATM   12  C   UNK N   1      32.586  17.142   4.033  0.00  0.00     0.034 C 
HETATM   13  C   UNK N   1      28.956  16.522   4.563  0.00  0.00     0.015 A 
HETATM   14  C   UNK N   1      28.539  16.544   3.295  0.00  0.00     0.025 C 
HETATM   15  C   UNK N   1      28.118  16.610   5.718  0.00  0.00     0.289 A 
HETATM   16  O   UNK N   1      26.906  16.731   5.703  0.00  0.00    -0.260 OA
HETATM   17  O   UNK N   1      28.834  16.531   6.842  0.00  0.00    -0.309 OA
HETATM   18  C   UNK N   1      32.037  15.290   8.566  0.00  0.00     0.049 C 
ENDROOT
TORSDOF 0
ENDMDL
MODEL 8
REMARK VINA RESULT:      -6.0     25.903     27.618
REMARK  0 active torsions:
REMARK  status: ('A' for Active; 'I' for Inactive)
ROOT
HETATM    1  C   UNK N   1      27.270  27.847  -6.969  0.00  0.00     0.043 C 
HETATM    2  C   UNK N   1      26.052  26.984  -6.861  0.00  0.00    -0.087 C 
HETATM    3  C   UNK N   1      25.274  26.991  -5.770  0.00  0.00    -0.024 C 
HETATM    4  C   UNK N   1      25.594  27.823  -4.566  0.00  0.00     0.030 C 
HETATM    5  C   UNK N   1      26.105  26.894  -3.458  0.00  0.00     0.044 C 
HETATM    6  C   UNK N   1      27.340  26.126  -3.929  0.00  0.00     0.087 A 
HETATM    7  C   UNK N   1      27.056  24.850  -4.651  0.00  0.00     0.187 A 
HETATM    8  O   UNK N   1      27.501  24.876  -3.310  0.00  0.00    -0.367 OA
HETATM    9  C   UNK N   1      28.165  24.483  -5.643  0.00  0.00     0.172 A 
HETATM   10  C   UNK N   1      27.701  24.441  -7.159  0.00  0.00     0.056 A 
HETATM   11  C   UNK N   1      26.184  24.569  -7.392  0.00  0.00     0.016 C 
HETATM   12  C   UNK N   1      25.813  25.958  -7.915  0.00  0.00     0.034 C 
HETATM   13  C   UNK N   1      28.141  23.078  -7.554  0.00  0.00     0.015 A 
HETATM   14  C   UNK N   1      28.027  22.546  -8.773  0.00  0.00     0.025 C 
HETATM   15  C   UNK N   1      28.714  22.435  -6.413  0.00  0.00     0.289 A 
HETATM   16  O   UNK N   1      29.166  21.304  -6.394  0.00  0.00    -0.260 OA
HETATM   17  O   UNK N   1      28.706  23.240  -5.349  0.00  0.00    -0.309 OA
HETATM   18  C   UNK N   1      28.682  26.842  -4.008  0.00  0.00     0.049 C 
ENDROOT
TORSDOF 0
ENDMDL
MODEL 9
REMARK VINA RESULT:      -6.0     13.877     15.800
REMARK  0 active torsions:
REMARK  status: ('A' for Active; 'I' for Inactive)
ROOT
HETATM    1  C   UNK N   1      24.477  14.984   6.952  0.00  0.00     0.043 C 
HETATM    2  C   UNK N   1      24.347  13.513   6.711  0.00  0.00    -0.087 C 
HETATM    3  C   UNK N   1      23.707  13.025   5.640  0.00  0.00    -0.024 C 
HETATM    4  C   UNK N   1      23.036  13.912   4.636  0.00  0.00     0.030 C 
HETATM    5  C   UNK N   1      21.519  13.810   4.837  0.00  0.00     0.044 C 
HETATM    6  C   UNK N   1      21.139  14.218   6.261  0.00  0.00     0.087 A 
HETATM    7  C   UNK N   1      21.188  13.117   7.270  0.00  0.00     0.187 A 
HETATM    8  O   UNK N   1      19.971  13.598   6.735  0.00  0.00    -0.367 OA
HETATM    9  C   UNK N   1      21.467  13.637   8.684  0.00  0.00     0.172 A 
HETATM   10  C   UNK N   1      22.825  13.116   9.318  0.00  0.00     0.056 A 
HETATM   11  C   UNK N   1      23.551  12.019   8.518  0.00  0.00     0.016 C 
HETATM   12  C   UNK N   1      24.775  12.576   7.788  0.00  0.00     0.034 C 
HETATM   13  C   UNK N   1      22.338  12.542  10.600  0.00  0.00     0.015 A 
HETATM   14  C   UNK N   1      23.104  12.002  11.551  0.00  0.00     0.025 C 
HETATM   15  C   UNK N   1      20.916  12.674  10.648  0.00  0.00     0.289 A 
HETATM   16  O   UNK N   1      20.204  12.296  11.562  0.00  0.00    -0.260 OA
HETATM   17  O   UNK N   1      20.449  13.281   9.556  0.00  0.00    -0.309 OA
HETATM   18  C   UNK N   1      21.134  15.692   6.642  0.00  0.00     0.049 C 
ENDROOT
TORSDOF 0
ENDMDL
