MODEL 1
REMARK VINA RESULT:      -7.5      0.000      0.000
REMARK  3 active torsions:
REMARK  status: ('A' for Active; 'I' for Inactive)
REMARK    1  A    between atoms: C_2  and  C_3 
REMARK    2  A    between atoms: C_2  and  O_25 
REMARK    3  A    between atoms: C_5  and  C_3 
ROOT
HETATM    1  C   UNK N   1      26.493  25.593  -5.519  0.00  0.00     0.027 C 
HETATM    2  C   UNK N   1      25.773  24.753  -4.477  0.00  0.00     0.018 C 
HETATM    3  C   UNK N   1      26.821  24.531  -3.388  0.00  0.00     0.007 C 
HETATM    4  C   UNK N   1      28.186  24.577  -4.082  0.00  0.00     0.003 C 
HETATM    5  C   UNK N   1      27.878  24.888  -5.573  0.00  0.00    -0.025 C 
HETATM    6  C   UNK N   1      27.802  23.565  -6.389  0.00  0.00     0.015 C 
HETATM    7  C   UNK N   1      29.149  22.827  -6.402  0.00  0.00     0.036 C 
HETATM    8  C   UNK N   1      29.716  22.728  -5.011  0.00  0.00    -0.069 C 
HETATM    9  C   UNK N   1      30.937  22.199  -4.787  0.00  0.00    -0.049 C 
HETATM   10  C   UNK N   1      31.786  21.650  -5.905  0.00  0.00     0.047 C 
HETATM   11  C   UNK N   1      32.364  20.298  -5.495  0.00  0.00     0.087 C 
HETATM   12  C   UNK N   1      33.042  20.406  -4.154  0.00  0.00     0.150 C 
HETATM   13  O   UNK N   1      34.012  19.711  -3.905  0.00  0.00    -0.293 OA
HETATM   14  C   UNK N   1      32.491  21.308  -3.114  0.00  0.00     0.057 C 
HETATM   15  C   UNK N   1      31.473  22.134  -3.404  0.00  0.00    -0.048 C 
HETATM   16  C   UNK N   1      30.863  23.001  -2.348  0.00  0.00     0.040 C 
HETATM   17  C   UNK N   1      29.347  22.911  -2.442  0.00  0.00     0.014 C 
HETATM   18  C   UNK N   1      28.840  23.198  -3.866  0.00  0.00     0.020 C 
HETATM   19  C   UNK N   1      28.968  25.760  -6.199  0.00  0.00     0.016 C 
HETATM   20  C   UNK N   1      25.748  25.536  -6.850  0.00  0.00     0.024 C 
ENDROOT
BRANCH   1  21
HETATM   21  C   UNK N   1      26.549  27.063  -5.091  0.00  0.00     0.164 C 
HETATM   22  O   UNK N   1      26.577  27.939  -5.944  0.00  0.00    -0.294 OA
BRANCH  21  23
HETATM   23  C   UNK N   1      26.509  27.466  -3.641  0.00  0.00     0.184 C 
HETATM   24  C   UNK N   1      27.695  28.346  -3.298  0.00  0.00     0.047 C 
BRANCH  23  25
HETATM   25  O   UNK N   1      25.323  28.149  -3.370  0.00  0.00    -0.388 OA
HETATM   26  H   UNK N   1      25.087  28.936  -3.887  0.00  0.00     0.210 HD
ENDBRANCH  23  25
ENDBRANCH  21  23
ENDBRANCH   1  21
TORSDOF 3
ENDMDL
MODEL 2
REMARK VINA RESULT:      -7.0     13.527     17.636
REMARK  3 active torsions:
REMARK  status: ('A' for Active; 'I' for Inactive)
REMARK    1  A    between atoms: C_2  and  C_3 
REMARK    2  A    between atoms: C_2  and  O_25 
REMARK    3  A    between atoms: C_5  and  C_3 
ROOT
HETATM    1  C   UNK N   1      35.967  14.175  10.463  0.00  0.00     0.027 C 
HETATM    2  C   UNK N   1      36.516  15.590  10.563  0.00  0.00     0.018 C 
HETATM    3  C   UNK N   1      35.349  16.473  10.127  0.00  0.00     0.007 C 
HETATM    4  C   UNK N   1      34.504  15.635   9.162  0.00  0.00     0.003 C 
HETATM    5  C   UNK N   1      35.196  14.243   9.115  0.00  0.00    -0.025 C 
HETATM    6  C   UNK N   1      36.172  14.173   7.906  0.00  0.00     0.015 C 
HETATM    7  C   UNK N   1      35.429  14.299   6.567  0.00  0.00     0.036 C 
HETATM    8  C   UNK N   1      34.474  15.462   6.595  0.00  0.00    -0.069 C 
HETATM    9  C   UNK N   1      33.645  15.714   5.560  0.00  0.00    -0.049 C 
HETATM   10  C   UNK N   1      33.650  14.870   4.311  0.00  0.00     0.047 C 
HETATM   11  C   UNK N   1      33.635  15.773   3.080  0.00  0.00     0.087 C 
HETATM   12  C   UNK N   1      32.516  16.778   3.185  0.00  0.00     0.150 C 
HETATM   13  O   UNK N   1      31.954  17.169   2.176  0.00  0.00    -0.293 OA
HETATM   14  C   UNK N   1      32.145  17.340   4.506  0.00  0.00     0.057 C 
HETATM   15  C   UNK N   1      32.703  16.859   5.628  0.00  0.00    -0.048 C 
HETATM   16  C   UNK N   1      32.388  17.460   6.961  0.00  0.00     0.040 C 
HETATM   17  C   UNK N   1      33.681  17.661   7.737  0.00  0.00     0.014 C 
HETATM   18  C   UNK N   1      34.517  16.370   7.808  0.00  0.00     0.020 C 
HETATM   19  C   UNK N   1      34.174  13.116   8.955  0.00  0.00     0.016 C 
HETATM   20  C   UNK N   1      37.112  13.166  10.439  0.00  0.00     0.024 C 
ENDROOT
BRANCH   1  21
HETATM   21  C   UNK N   1      35.093  13.842  11.676  0.00  0.00     0.164 C 
HETATM   22  O   UNK N   1      34.158  14.576  11.965  0.00  0.00    -0.294 OA
BRANCH  21  23
HETATM   23  C   UNK N   1      35.314  12.597  12.493  0.00  0.00     0.184 C 
HETATM   24  C   UNK N   1      35.399  12.934  13.969  0.00  0.00     0.047 C 
BRANCH  23  25
HETATM   25  O   UNK N   1      34.272  11.695  12.276  0.00  0.00    -0.388 OA
HETATM   26  H   UNK N   1      34.295  11.102  11.507  0.00  0.00     0.210 HD
ENDBRANCH  23  25
ENDBRANCH  21  23
ENDBRANCH   1  21
TORSDOF 3
ENDMDL
MODEL 3
REMARK VINA RESULT:      -6.9      1.956      3.111
REMARK  3 active torsions:
REMARK  status: ('A' for Active; 'I' for Inactive)
REMARK    1  A    between atoms: C_2  and  C_3 
REMARK    2  A    between atoms: C_2  and  O_25 
REMARK    3  A    between atoms: C_5  and  C_3 
ROOT
HETATM    1  C   UNK N   1      27.794  25.375  -4.330  0.00  0.00     0.027 C 
HETATM    2  C   UNK N   1      28.602  26.526  -3.752  0.00  0.00     0.018 C 
HETATM    3  C   UNK N   1      29.903  26.506  -4.551  0.00  0.00     0.007 C 
HETATM    4  C   UNK N   1      30.124  25.055  -4.989  0.00  0.00     0.003 C 
HETATM    5  C   UNK N   1      28.885  24.276  -4.464  0.00  0.00    -0.025 C 
HETATM    6  C   UNK N   1      29.205  23.632  -3.085  0.00  0.00     0.015 C 
HETATM    7  C   UNK N   1      30.323  22.584  -3.191  0.00  0.00     0.036 C 
HETATM    8  C   UNK N   1      31.493  23.130  -3.966  0.00  0.00    -0.069 C 
HETATM    9  C   UNK N   1      32.557  22.358  -4.266  0.00  0.00    -0.049 C 
HETATM   10  C   UNK N   1      32.653  20.922  -3.817  0.00  0.00     0.047 C 
HETATM   11  C   UNK N   1      34.041  20.654  -3.242  0.00  0.00     0.087 C 
HETATM   12  C   UNK N   1      35.103  21.107  -4.211  0.00  0.00     0.150 C 
HETATM   13  O   UNK N   1      36.167  20.514  -4.267  0.00  0.00    -0.293 OA
HETATM   14  C   UNK N   1      34.880  22.312  -5.046  0.00  0.00     0.057 C 
HETATM   15  C   UNK N   1      33.686  22.923  -5.048  0.00  0.00    -0.048 C 
HETATM   16  C   UNK N   1      33.466  24.177  -5.834  0.00  0.00     0.040 C 
HETATM   17  C   UNK N   1      32.730  25.188  -4.967  0.00  0.00     0.014 C 
HETATM   18  C   UNK N   1      31.450  24.596  -4.352  0.00  0.00     0.020 C 
HETATM   19  C   UNK N   1      28.485  23.151  -5.421  0.00  0.00     0.016 C 
HETATM   20  C   UNK N   1      26.673  24.983  -3.371  0.00  0.00     0.024 C 
ENDROOT
BRANCH   1  21
HETATM   21  C   UNK N   1      27.139  25.780  -5.655  0.00  0.00     0.164 C 
HETATM   22  O   UNK N   1      27.835  26.200  -6.568  0.00  0.00    -0.294 OA
BRANCH  21  23
HETATM   23  C   UNK N   1      25.661  25.618  -5.887  0.00  0.00     0.184 C 
HETATM   24  C   UNK N   1      24.988  26.971  -6.015  0.00  0.00     0.047 C 
BRANCH  23  25
HETATM   25  O   UNK N   1      25.440  24.873  -7.046  0.00  0.00    -0.388 OA
HETATM   26  H   UNK N   1      26.185  24.444  -7.497  0.00  0.00     0.210 HD
ENDBRANCH  23  25
ENDBRANCH  21  23
ENDBRANCH   1  21
TORSDOF 3
ENDMDL
MODEL 4
REMARK VINA RESULT:      -6.8     25.795     29.086
REMARK  3 active torsions:
REMARK  status: ('A' for Active; 'I' for Inactive)
REMARK    1  A    between atoms: C_2  and  C_3 
REMARK    2  A    between atoms: C_2  and  O_25 
REMARK    3  A    between atoms: C_5  and  C_3 
ROOT
HETATM    1  C   UNK N   1      33.866   7.660  21.573  0.00  0.00     0.027 C 
HETATM    2  C   UNK N   1      35.209   8.075  22.152  0.00  0.00     0.018 C 
HETATM    3  C   UNK N   1      35.258   9.586  21.936  0.00  0.00     0.007 C 
HETATM    4  C   UNK N   1      34.402   9.877  20.700  0.00  0.00     0.003 C 
HETATM    5  C   UNK N   1      33.827   8.500  20.265  0.00  0.00    -0.025 C 
HETATM    6  C   UNK N   1      34.730   7.868  19.167  0.00  0.00     0.015 C 
HETATM    7  C   UNK N   1      34.749   8.717  17.887  0.00  0.00     0.036 C 
HETATM    8  C   UNK N   1      35.000  10.165  18.213  0.00  0.00    -0.069 C 
HETATM    9  C   UNK N   1      34.969  11.115  17.255  0.00  0.00    -0.049 C 
HETATM   10  C   UNK N   1      34.717  10.780  15.807  0.00  0.00     0.047 C 
HETATM   11  C   UNK N   1      35.722  11.517  14.926  0.00  0.00     0.087 C 
HETATM   12  C   UNK N   1      35.734  12.986  15.264  0.00  0.00     0.150 C 
HETATM   13  O   UNK N   1      35.963  13.808  14.393  0.00  0.00    -0.293 OA
HETATM   14  C   UNK N   1      35.532  13.427  16.665  0.00  0.00     0.057 C 
HETATM   15  C   UNK N   1      35.202  12.537  17.614  0.00  0.00    -0.048 C 
HETATM   16  C   UNK N   1      35.061  12.956  19.044  0.00  0.00     0.040 C 
HETATM   17  C   UNK N   1      35.783  11.954  19.932  0.00  0.00     0.014 C 
HETATM   18  C   UNK N   1      35.338  10.508  19.650  0.00  0.00     0.020 C 
HETATM   19  C   UNK N   1      32.418   8.639  19.686  0.00  0.00     0.016 C 
HETATM   20  C   UNK N   1      33.845   6.156  21.312  0.00  0.00     0.024 C 
ENDROOT
BRANCH   1  21
HETATM   21  C   UNK N   1      32.731   7.968  22.555  0.00  0.00     0.164 C 
HETATM   22  O   UNK N   1      31.585   7.647  22.272  0.00  0.00    -0.294 OA
BRANCH  21  23
HETATM   23  C   UNK N   1      32.994   8.605  23.893  0.00  0.00     0.184 C 
HETATM   24  C   UNK N   1      32.155   9.856  24.065  0.00  0.00     0.047 C 
BRANCH  23  25
HETATM   25  O   UNK N   1      32.703   7.701  24.916  0.00  0.00    -0.388 OA
HETATM   26  H   UNK N   1      33.424   7.281  25.412  0.00  0.00     0.210 HD
ENDBRANCH  23  25
ENDBRANCH  21  23
ENDBRANCH   1  21
TORSDOF 3
ENDMDL
MODEL 5
REMARK VINA RESULT:      -6.8     11.043     13.337
REMARK  3 active torsions:
REMARK  status: ('A' for Active; 'I' for Inactive)
REMARK    1  A    between atoms: C_2  and  C_3 
REMARK    2  A    between atoms: C_2  and  O_25 
REMARK    3  A    between atoms: C_5  and  C_3 
ROOT
HETATM    1  C   UNK N   1      27.983  18.589   5.456  0.00  0.00     0.027 C 
HETATM    2  C   UNK N   1      27.723  19.763   4.525  0.00  0.00     0.018 C 
HETATM    3  C   UNK N   1      26.222  20.015   4.654  0.00  0.00     0.007 C 
HETATM    4  C   UNK N   1      25.583  18.669   5.010  0.00  0.00     0.003 C 
HETATM    5  C   UNK N   1      26.770  17.672   5.134  0.00  0.00    -0.025 C 
HETATM    6  C   UNK N   1      26.977  16.920   3.788  0.00  0.00     0.015 C 
HETATM    7  C   UNK N   1      25.760  16.054   3.427  0.00  0.00     0.036 C 
HETATM    8  C   UNK N   1      24.485  16.842   3.568  0.00  0.00    -0.069 C 
HETATM    9  C   UNK N   1      23.280  16.262   3.391  0.00  0.00    -0.049 C 
HETATM   10  C   UNK N   1      23.141  14.810   3.012  0.00  0.00     0.047 C 
HETATM   11  C   UNK N   1      22.119  14.668   1.887  0.00  0.00     0.087 C 
HETATM   12  C   UNK N   1      20.838  15.372   2.253  0.00  0.00     0.150 C 
HETATM   13  O   UNK N   1      19.771  14.940   1.852  0.00  0.00    -0.293 OA
HETATM   14  C   UNK N   1      20.881  16.625   3.045  0.00  0.00     0.057 C 
HETATM   15  C   UNK N   1      22.041  17.064   3.556  0.00  0.00    -0.048 C 
HETATM   16  C   UNK N   1      22.111  18.360   4.300  0.00  0.00     0.040 C 
HETATM   17  C   UNK N   1      23.315  19.152   3.812  0.00  0.00     0.014 C 
HETATM   18  C   UNK N   1      24.611  18.323   3.866  0.00  0.00     0.020 C 
HETATM   19  C   UNK N   1      26.509  16.624   6.218  0.00  0.00     0.016 C 
HETATM   20  C   UNK N   1      29.323  17.938   5.122  0.00  0.00     0.024 C 
ENDROOT
BRANCH   1  21
HETATM   21  C   UNK N   1      28.054  19.054   6.914  0.00  0.00     0.164 C 
HETATM   22  O   UNK N   1      27.812  20.221   7.187  0.00  0.00    -0.294 OA
BRANCH  21  23
HETATM   23  C   UNK N   1      28.356  18.096   8.035  0.00  0.00     0.184 C 
HETATM   24  C   UNK N   1      29.763  18.312   8.559  0.00  0.00     0.047 C 
BRANCH  23  25
HETATM   25  O   UNK N   1      27.438  18.272   9.071  0.00  0.00    -0.388 OA
HETATM   26  H   UNK N   1      26.690  17.659   9.166  0.00  0.00     0.210 HD
ENDBRANCH  23  25
ENDBRANCH  21  23
ENDBRANCH   1  21
TORSDOF 3
ENDMDL
MODEL 6
REMARK VINA RESULT:      -6.7     13.112     15.841
REMARK  3 active torsions:
REMARK  status: ('A' for Active; 'I' for Inactive)
REMARK    1  A    between atoms: C_2  and  C_3 
REMARK    2  A    between atoms: C_2  and  O_25 
REMARK    3  A    between atoms: C_5  and  C_3 
ROOT
HETATM    1  C   UNK N   1      34.064  16.301   7.950  0.00  0.00     0.027 C 
HETATM    2  C   UNK N   1      33.938  17.780   7.620  0.00  0.00     0.018 C 
HETATM    3  C   UNK N   1      32.520  18.139   8.060  0.00  0.00     0.007 C 
HETATM    4  C   UNK N   1      31.687  16.860   7.936  0.00  0.00     0.003 C 
HETATM    5  C   UNK N   1      32.686  15.764   7.471  0.00  0.00    -0.025 C 
HETATM    6  C   UNK N   1      32.645  15.628   5.922  0.00  0.00     0.015 C 
HETATM    7  C   UNK N   1      31.270  15.154   5.428  0.00  0.00     0.036 C 
HETATM    8  C   UNK N   1      30.169  15.962   6.061  0.00  0.00    -0.069 C 
HETATM    9  C   UNK N   1      28.870  15.666   5.848  0.00  0.00    -0.049 C 
HETATM   10  C   UNK N   1      28.447  14.538   4.942  0.00  0.00     0.047 C 
HETATM   11  C   UNK N   1      27.327  15.011   4.020  0.00  0.00     0.087 C 
HETATM   12  C   UNK N   1      26.224  15.650   4.824  0.00  0.00     0.150 C 
HETATM   13  O   UNK N   1      25.068  15.565   4.447  0.00  0.00    -0.293 OA
HETATM   14  C   UNK N   1      26.552  16.438   6.037  0.00  0.00     0.057 C 
HETATM   15  C   UNK N   1      27.810  16.472   6.503  0.00  0.00    -0.048 C 
HETATM   16  C   UNK N   1      28.168  17.316   7.686  0.00  0.00     0.040 C 
HETATM   17  C   UNK N   1      29.447  18.082   7.385  0.00  0.00     0.014 C 
HETATM   18  C   UNK N   1      30.577  17.152   6.908  0.00  0.00     0.020 C 
HETATM   19  C   UNK N   1      32.337  14.400   8.068  0.00  0.00     0.016 C 
HETATM   20  C   UNK N   1      35.236  15.688   7.187  0.00  0.00     0.024 C 
ENDROOT
BRANCH   1  21
HETATM   21  C   UNK N   1      34.337  16.097   9.444  0.00  0.00     0.164 C 
HETATM   22  O   UNK N   1      34.687  17.048  10.128  0.00  0.00    -0.294 OA
BRANCH  21  23
HETATM   23  C   UNK N   1      34.126  14.764  10.111  0.00  0.00     0.184 C 
HETATM   24  C   UNK N   1      35.455  14.084  10.379  0.00  0.00     0.047 C 
BRANCH  23  25
HETATM   25  O   UNK N   1      33.437  14.937  11.312  0.00  0.00    -0.388 OA
HETATM   26  H   UNK N   1      33.306  15.829  11.673  0.00  0.00     0.210 HD
ENDBRANCH  23  25
ENDBRANCH  21  23
ENDBRANCH   1  21
TORSDOF 3
ENDMDL
MODEL 7
REMARK VINA RESULT:      -6.7      1.680      7.631
REMARK  3 active torsions:
REMARK  status: ('A' for Active; 'I' for Inactive)
REMARK    1  A    between atoms: C_2  and  C_3 
REMARK    2  A    between atoms: C_2  and  O_25 
REMARK    3  A    between atoms: C_5  and  C_3 
ROOT
HETATM    1  C   UNK N   1      33.132  21.016  -4.347  0.00  0.00     0.027 C 
HETATM    2  C   UNK N   1      32.330  19.768  -4.681  0.00  0.00     0.018 C 
HETATM    3  C   UNK N   1      31.442  20.198  -5.847  0.00  0.00     0.007 C 
HETATM    4  C   UNK N   1      31.209  21.703  -5.687  0.00  0.00     0.003 C 
HETATM    5  C   UNK N   1      32.036  22.115  -4.437  0.00  0.00    -0.025 C 
HETATM    6  C   UNK N   1      31.130  22.107  -3.172  0.00  0.00     0.015 C 
HETATM    7  C   UNK N   1      30.005  23.149  -3.271  0.00  0.00     0.036 C 
HETATM    8  C   UNK N   1      29.306  23.052  -4.601  0.00  0.00    -0.069 C 
HETATM    9  C   UNK N   1      28.342  23.929  -4.951  0.00  0.00    -0.049 C 
HETATM   10  C   UNK N   1      27.887  25.028  -4.024  0.00  0.00     0.047 C 
HETATM   11  C   UNK N   1      26.362  25.084  -4.002  0.00  0.00     0.087 C 
HETATM   12  C   UNK N   1      25.822  25.151  -5.408  0.00  0.00     0.150 C 
HETATM   13  O   UNK N   1      24.791  25.760  -5.635  0.00  0.00    -0.293 OA
HETATM   14  C   UNK N   1      26.509  24.422  -6.502  0.00  0.00     0.057 C 
HETATM   15  C   UNK N   1      27.685  23.816  -6.278  0.00  0.00    -0.048 C 
HETATM   16  C   UNK N   1      28.357  23.022  -7.354  0.00  0.00     0.040 C 
HETATM   17  C   UNK N   1      28.836  21.700  -6.773  0.00  0.00     0.014 C 
HETATM   18  C   UNK N   1      29.692  21.902  -5.510  0.00  0.00     0.020 C 
HETATM   19  C   UNK N   1      32.614  23.523  -4.587  0.00  0.00     0.016 C 
HETATM   20  C   UNK N   1      33.738  20.896  -2.951  0.00  0.00     0.024 C 
ENDROOT
BRANCH   1  21
HETATM   21  C   UNK N   1      34.291  21.198  -5.332  0.00  0.00     0.164 C 
HETATM   22  O   UNK N   1      35.160  22.026  -5.095  0.00  0.00    -0.294 OA
BRANCH  21  23
HETATM   23  C   UNK N   1      34.426  20.341  -6.562  0.00  0.00     0.184 C 
HETATM   24  C   UNK N   1      34.501  21.201  -7.809  0.00  0.00     0.047 C 
BRANCH  23  25
HETATM   25  O   UNK N   1      35.572  19.550  -6.468  0.00  0.00    -0.388 OA
HETATM   26  H   UNK N   1      36.193  19.682  -5.734  0.00  0.00     0.210 HD
ENDBRANCH  23  25
ENDBRANCH  21  23
ENDBRANCH   1  21
TORSDOF 3
ENDMDL
MODEL 8
REMARK VINA RESULT:      -6.6     23.917     27.430
REMARK  3 active torsions:
REMARK  status: ('A' for Active; 'I' for Inactive)
REMARK    1  A    between atoms: C_2  and  C_3 
REMARK    2  A    between atoms: C_2  and  O_25 
REMARK    3  A    between atoms: C_5  and  C_3 
ROOT
HETATM    1  C   UNK N   1      35.787   9.188  20.413  0.00  0.00     0.027 C 
HETATM    2  C   UNK N   1      36.465  10.491  20.807  0.00  0.00     0.018 C 
HETATM    3  C   UNK N   1      35.687  11.560  20.044  0.00  0.00     0.007 C 
HETATM    4  C   UNK N   1      35.141  10.886  18.781  0.00  0.00     0.003 C 
HETATM    5  C   UNK N   1      35.584   9.400  18.886  0.00  0.00    -0.025 C 
HETATM    6  C   UNK N   1      36.915   9.184  18.109  0.00  0.00     0.015 C 
HETATM    7  C   UNK N   1      36.744   9.448  16.605  0.00  0.00     0.036 C 
HETATM    8  C   UNK N   1      36.032  10.753  16.370  0.00  0.00    -0.069 C 
HETATM    9  C   UNK N   1      35.689  11.152  15.128  0.00  0.00    -0.049 C 
HETATM   10  C   UNK N   1      36.027  10.334  13.907  0.00  0.00     0.047 C 
HETATM   11  C   UNK N   1      36.601  11.243  12.822  0.00  0.00     0.087 C 
HETATM   12  C   UNK N   1      35.686  12.418  12.589  0.00  0.00     0.150 C 
HETATM   13  O   UNK N   1      35.600  12.910  11.477  0.00  0.00    -0.293 OA
HETATM   14  C   UNK N   1      34.944  13.017  13.724  0.00  0.00     0.057 C 
HETATM   15  C   UNK N   1      34.971  12.436  14.934  0.00  0.00    -0.048 C 
HETATM   16  C   UNK N   1      34.282  13.065  16.104  0.00  0.00     0.040 C 
HETATM   17  C   UNK N   1      35.213  13.038  17.306  0.00  0.00     0.014 C 
HETATM   18  C   UNK N   1      35.761  11.626  17.580  0.00  0.00     0.020 C 
HETATM   19  C   UNK N   1      34.537   8.460  18.287  0.00  0.00     0.016 C 
HETATM   20  C   UNK N   1      36.695   8.003  20.731  0.00  0.00     0.024 C 
ENDROOT
BRANCH   1  21
HETATM   21  C   UNK N   1      34.488   8.990  21.201  0.00  0.00     0.164 C 
HETATM   22  O   UNK N   1      33.987   7.876  21.268  0.00  0.00    -0.294 OA
BRANCH  21  23
HETATM   23  C   UNK N   1      33.838  10.122  21.950  0.00  0.00     0.184 C 
HETATM   24  C   UNK N   1      32.329  10.061  21.808  0.00  0.00     0.047 C 
BRANCH  23  25
HETATM   25  O   UNK N   1      34.185  10.061  23.300  0.00  0.00    -0.388 OA
HETATM   26  H   UNK N   1      33.494   9.977  23.976  0.00  0.00     0.210 HD
ENDBRANCH  23  25
ENDBRANCH  21  23
ENDBRANCH   1  21
TORSDOF 3
ENDMDL
MODEL 9
REMARK VINA RESULT:      -6.5     19.713     23.517
REMARK  3 active torsions:
REMARK  status: ('A' for Active; 'I' for Inactive)
REMARK    1  A    between atoms: C_2  and  C_3 
REMARK    2  A    between atoms: C_2  and  O_25 
REMARK    3  A    between atoms: C_5  and  C_3 
ROOT
HETATM    1  C   UNK N   1      36.798  13.167  10.710  0.00  0.00     0.027 C 
HETATM    2  C   UNK N   1      38.238  12.787  11.014  0.00  0.00     0.018 C 
HETATM    3  C   UNK N   1      38.116  11.567  11.924  0.00  0.00     0.007 C 
HETATM    4  C   UNK N   1      36.785  11.709  12.668  0.00  0.00     0.003 C 
HETATM    5  C   UNK N   1      36.139  13.007  12.109  0.00  0.00    -0.025 C 
HETATM    6  C   UNK N   1      36.482  14.212  13.031  0.00  0.00     0.015 C 
HETATM    7  C   UNK N   1      35.887  14.041  14.437  0.00  0.00     0.036 C 
HETATM    8  C   UNK N   1      36.191  12.670  14.980  0.00  0.00    -0.069 C 
HETATM    9  C   UNK N   1      35.692  12.258  16.164  0.00  0.00    -0.049 C 
HETATM   10  C   UNK N   1      34.833  13.153  17.022  0.00  0.00     0.047 C 
HETATM   11  C   UNK N   1      35.303  13.079  18.473  0.00  0.00     0.087 C 
HETATM   12  C   UNK N   1      35.398  11.643  18.918  0.00  0.00     0.150 C 
HETATM   13  O   UNK N   1      35.176  11.351  20.081  0.00  0.00    -0.293 OA
HETATM   14  C   UNK N   1      35.826  10.595  17.959  0.00  0.00     0.057 C 
HETATM   15  C   UNK N   1      35.997  10.894  16.662  0.00  0.00    -0.048 C 
HETATM   16  C   UNK N   1      36.492   9.864  15.696  0.00  0.00     0.040 C 
HETATM   17  C   UNK N   1      37.581  10.476  14.827  0.00  0.00     0.014 C 
HETATM   18  C   UNK N   1      37.122  11.790  14.170  0.00  0.00     0.020 C 
HETATM   19  C   UNK N   1      34.616  12.890  12.042  0.00  0.00     0.016 C 
HETATM   20  C   UNK N   1      36.730  14.599  10.184  0.00  0.00     0.024 C 
ENDROOT
BRANCH   1  21
HETATM   21  C   UNK N   1      36.210  12.256   9.627  0.00  0.00     0.164 C 
HETATM   22  O   UNK N   1      35.125  12.528   9.134  0.00  0.00    -0.294 OA
BRANCH  21  23
HETATM   23  C   UNK N   1      36.962  11.060   9.107  0.00  0.00     0.184 C 
HETATM   24  C   UNK N   1      36.133   9.799   9.259  0.00  0.00     0.047 C 
BRANCH  23  25
HETATM   25  O   UNK N   1      37.287  11.250   7.763  0.00  0.00    -0.388 OA
HETATM   26  H   UNK N   1      37.336  10.489   7.163  0.00  0.00     0.210 HD
ENDBRANCH  23  25
ENDBRANCH  21  23
ENDBRANCH   1  21
TORSDOF 3
ENDMDL
