MODEL 1
REMARK VINA RESULT:      -4.5      0.000      0.000
REMARK  6 active torsions:
REMARK  status: ('A' for Active; 'I' for Inactive)
REMARK    1  A    between atoms: N_2  and  C_3 
REMARK       I    between atoms: N_2  and  C_10 
REMARK    2  A    between atoms: C_3  and  C_4 
REMARK    3  A    between atoms: C_4  and  O_5 
REMARK    4  A    between atoms: O_5  and  P_6 
REMARK    5  A    between atoms: P_6  and  O_8 
REMARK    6  A    between atoms: P_6  and  O_9 
REMARK       I    between atoms: C_10  and  N_13 
ROOT
HETATM    1  C   UNK N   1      25.040  13.137   9.707  0.00  0.00     0.168 C 
HETATM    2  N   UNK N   1      23.764  12.479   9.839  0.00  0.00    -0.221 N 
HETATM    3  C   UNK N   1      23.256  12.145  11.132  0.00  0.00     0.667 C 
HETATM    4  N   UNK N   1      23.935  12.409  12.185  0.00  0.00    -0.235 N 
ATOM      5  HN  UNK N   1      24.920  12.656  12.082  1.00  0.00     0.174 HD
HETATM    6  N   UNK N   1      22.007  11.490  11.260  0.00  0.00    -0.235 N 
HETATM    7  H   UNK N   1      23.548  12.385  13.090  0.00  0.00     0.174 HD
HETATM    8  H   UNK N   1      21.425  11.328  10.483  0.00  0.00     0.174 HD
HETATM    9  H   UNK N   1      21.713  11.189  12.151  0.00  0.00     0.174 HD
ENDROOT
BRANCH   2  10
HETATM   10  C   UNK N   1      23.085  12.058   8.637  0.00  0.00     0.167 C 
BRANCH  10  11
HETATM   11  C   UNK N   1      22.186  13.148   8.072  0.00  0.00     0.201 C 
BRANCH  11  12
HETATM   12  O   UNK N   1      20.912  13.000   8.635  0.00  0.00    -0.295 OA
BRANCH  12  13
HETATM   13  P   UNK N   1      20.533  14.528   9.382  0.00  0.00     0.390 P 
HETATM   14  O   UNK N   1      19.000  14.737   9.491  0.00  0.00    -0.632 OA
BRANCH  13  15
HETATM   15  O   UNK N   1      19.986  13.233  10.403  0.00  0.00    -0.307 OA
HETATM   16  H   UNK N   1      19.686  13.356  11.316  0.00  0.00     0.222 HD
ENDBRANCH  13  15
BRANCH  13  17
HETATM   17  O   UNK N   1      19.978  14.609   7.736  0.00  0.00    -0.307 OA
HETATM   18  H   UNK N   1      20.060  14.049   6.949  0.00  0.00     0.222 HD
ENDBRANCH  13  17
ENDBRANCH  12  13
ENDBRANCH  11  12
ENDBRANCH  10  11
ENDBRANCH   2  10
TORSDOF 6
ENDMDL
MODEL 2
REMARK VINA RESULT:      -4.4     10.772     11.677
REMARK  6 active torsions:
REMARK  status: ('A' for Active; 'I' for Inactive)
REMARK    1  A    between atoms: N_2  and  C_3 
REMARK       I    between atoms: N_2  and  C_10 
REMARK    2  A    between atoms: C_3  and  C_4 
REMARK    3  A    between atoms: C_4  and  O_5 
REMARK    4  A    between atoms: O_5  and  P_6 
REMARK    5  A    between atoms: P_6  and  O_8 
REMARK    6  A    between atoms: P_6  and  O_9 
REMARK       I    between atoms: C_10  and  N_13 
ROOT
HETATM    1  C   UNK N   1      30.164  17.158   6.461  0.00  0.00     0.168 C 
HETATM    2  N   UNK N   1      29.665  17.700   7.701  0.00  0.00    -0.221 N 
HETATM    3  C   UNK N   1      28.260  17.843   7.911  0.00  0.00     0.667 C 
HETATM    4  N   UNK N   1      27.428  17.509   6.996  0.00  0.00    -0.235 N 
ATOM      5  HN  UNK N   1      27.780  17.350   6.051  1.00  0.00     0.174 HD
HETATM    6  N   UNK N   1      27.771  18.384   9.125  0.00  0.00    -0.235 N 
HETATM    7  H   UNK N   1      26.465  17.400   7.164  0.00  0.00     0.174 HD
HETATM    8  H   UNK N   1      28.370  18.593   9.877  0.00  0.00     0.174 HD
HETATM    9  H   UNK N   1      26.806  18.557   9.219  0.00  0.00     0.174 HD
ENDROOT
BRANCH   2  10
HETATM   10  C   UNK N   1      30.620  18.207   8.657  0.00  0.00     0.167 C 
BRANCH  10  11
HETATM   11  C   UNK N   1      31.949  17.469   8.590  0.00  0.00     0.201 C 
BRANCH  11  12
HETATM   12  O   UNK N   1      32.961  18.411   8.365  0.00  0.00    -0.295 OA
BRANCH  12  13
HETATM   13  P   UNK N   1      34.453  17.513   8.309  0.00  0.00     0.390 P 
HETATM   14  O   UNK N   1      35.265  17.689   9.620  0.00  0.00    -0.632 OA
BRANCH  13  15
HETATM   15  O   UNK N   1      33.429  16.858   9.550  0.00  0.00    -0.307 OA
HETATM   16  H   UNK N   1      33.583  16.984  10.499  0.00  0.00     0.222 HD
ENDBRANCH  13  15
BRANCH  13  17
HETATM   17  O   UNK N   1      34.870  19.201   8.352  0.00  0.00    -0.307 OA
HETATM   18  H   UNK N   1      35.076  19.881   7.692  0.00  0.00     0.222 HD
ENDBRANCH  13  17
ENDBRANCH  12  13
ENDBRANCH  11  12
ENDBRANCH  10  11
ENDBRANCH   2  10
TORSDOF 6
ENDMDL
MODEL 3
REMARK VINA RESULT:      -4.3     24.356     25.223
REMARK  6 active torsions:
REMARK  status: ('A' for Active; 'I' for Inactive)
REMARK    1  A    between atoms: N_2  and  C_3 
REMARK       I    between atoms: N_2  and  C_10 
REMARK    2  A    between atoms: C_3  and  C_4 
REMARK    3  A    between atoms: C_4  and  O_5 
REMARK    4  A    between atoms: O_5  and  P_6 
REMARK    5  A    between atoms: P_6  and  O_8 
REMARK    6  A    between atoms: P_6  and  O_9 
REMARK       I    between atoms: C_10  and  N_13 
ROOT
HETATM    1  C   UNK N   1      43.557  19.347   2.854  0.00  0.00     0.168 C 
HETATM    2  N   UNK N   1      43.938  20.636   3.376  0.00  0.00    -0.221 N 
HETATM    3  C   UNK N   1      45.306  20.912   3.685  0.00  0.00     0.667 C 
HETATM    4  N   UNK N   1      46.204  20.013   3.520  0.00  0.00    -0.235 N 
ATOM      5  HN  UNK N   1      45.907  19.047   3.377  1.00  0.00     0.174 HD
HETATM    6  N   UNK N   1      45.678  22.174   4.206  0.00  0.00    -0.235 N 
HETATM    7  H   UNK N   1      47.167  20.215   3.524  0.00  0.00     0.174 HD
HETATM    8  H   UNK N   1      45.032  22.913   4.287  0.00  0.00     0.174 HD
HETATM    9  H   UNK N   1      46.609  22.318   4.495  0.00  0.00     0.174 HD
ENDROOT
BRANCH   2  10
HETATM   10  C   UNK N   1      42.895  21.580   3.694  0.00  0.00     0.167 C 
BRANCH  10  11
HETATM   11  C   UNK N   1      42.615  22.537   2.543  0.00  0.00     0.201 C 
BRANCH  11  12
HETATM   12  O   UNK N   1      43.308  23.729   2.787  0.00  0.00    -0.295 OA
BRANCH  12  13
HETATM   13  P   UNK N   1      44.282  24.020   1.372  0.00  0.00     0.390 P 
HETATM   14  O   UNK N   1      44.350  25.534   1.037  0.00  0.00    -0.632 OA
BRANCH  13  15
HETATM   15  O   UNK N   1      45.043  24.742   2.757  0.00  0.00    -0.307 OA
HETATM   16  H   UNK N   1      45.638  24.265   3.356  0.00  0.00     0.222 HD
ENDBRANCH  13  15
BRANCH  13  17
HETATM   17  O   UNK N   1      42.649  24.461   0.972  0.00  0.00    -0.307 OA
HETATM   18  H   UNK N   1      42.056  25.197   1.189  0.00  0.00     0.222 HD
ENDBRANCH  13  17
ENDBRANCH  12  13
ENDBRANCH  11  12
ENDBRANCH  10  11
ENDBRANCH   2  10
TORSDOF 6
ENDMDL
MODEL 4
REMARK VINA RESULT:      -4.1     13.109     13.756
REMARK  6 active torsions:
REMARK  status: ('A' for Active; 'I' for Inactive)
REMARK    1  A    between atoms: N_2  and  C_3 
REMARK       I    between atoms: N_2  and  C_10 
REMARK    2  A    between atoms: C_3  and  C_4 
REMARK    3  A    between atoms: C_4  and  O_5 
REMARK    4  A    between atoms: O_5  and  P_6 
REMARK    5  A    between atoms: P_6  and  O_8 
REMARK    6  A    between atoms: P_6  and  O_9 
REMARK       I    between atoms: C_10  and  N_13 
ROOT
HETATM    1  C   UNK N   1      35.108  12.316  10.642  0.00  0.00     0.168 C 
HETATM    2  N   UNK N   1      35.261  13.750  10.668  0.00  0.00    -0.221 N 
HETATM    3  C   UNK N   1      36.413  14.340  11.272  0.00  0.00     0.667 C 
HETATM    4  N   UNK N   1      37.312  13.606  11.814  0.00  0.00    -0.235 N 
ATOM      5  HN  UNK N   1      37.094  12.627  12.001  1.00  0.00     0.174 HD
HETATM    6  N   UNK N   1      36.558  15.749  11.304  0.00  0.00    -0.235 N 
HETATM    7  H   UNK N   1      38.202  13.946  12.058  0.00  0.00     0.174 HD
HETATM    8  H   UNK N   1      35.926  16.346  10.844  0.00  0.00     0.174 HD
HETATM    9  H   UNK N   1      37.313  16.141  11.801  0.00  0.00     0.174 HD
ENDROOT
BRANCH   2  10
HETATM   10  C   UNK N   1      34.170  14.562  10.185  0.00  0.00     0.167 C 
BRANCH  10  11
HETATM   11  C   UNK N   1      34.310  14.893   8.706  0.00  0.00     0.201 C 
BRANCH  11  12
HETATM   12  O   UNK N   1      35.147  16.009   8.585  0.00  0.00    -0.295 OA
BRANCH  12  13
HETATM   13  P   UNK N   1      34.096  17.381   8.360  0.00  0.00     0.390 P 
HETATM   14  O   UNK N   1      34.872  18.596   7.785  0.00  0.00    -0.632 OA
BRANCH  13  15
HETATM   15  O   UNK N   1      34.680  16.839   6.816  0.00  0.00    -0.307 OA
HETATM   16  H   UNK N   1      34.901  15.916   6.616  0.00  0.00     0.222 HD
ENDBRANCH  13  15
BRANCH  13  17
HETATM   17  O   UNK N   1      35.238  17.806   9.600  0.00  0.00    -0.307 OA
HETATM   18  H   UNK N   1      36.159  17.580   9.802  0.00  0.00     0.222 HD
ENDBRANCH  13  17
ENDBRANCH  12  13
ENDBRANCH  11  12
ENDBRANCH  10  11
ENDBRANCH   2  10
TORSDOF 6
ENDMDL
MODEL 5
REMARK VINA RESULT:      -4.1     13.243     14.299
REMARK  6 active torsions:
REMARK  status: ('A' for Active; 'I' for Inactive)
REMARK    1  A    between atoms: N_2  and  C_3 
REMARK       I    between atoms: N_2  and  C_10 
REMARK    2  A    between atoms: C_3  and  C_4 
REMARK    3  A    between atoms: C_4  and  O_5 
REMARK    4  A    between atoms: O_5  and  P_6 
REMARK    5  A    between atoms: P_6  and  O_8 
REMARK    6  A    between atoms: P_6  and  O_9 
REMARK       I    between atoms: C_10  and  N_13 
ROOT
HETATM    1  C   UNK N   1      34.898  14.231   8.398  0.00  0.00     0.168 C 
HETATM    2  N   UNK N   1      35.391  15.056   9.473  0.00  0.00    -0.221 N 
HETATM    3  C   UNK N   1      34.641  16.189   9.913  0.00  0.00     0.667 C 
HETATM    4  N   UNK N   1      33.533  16.496   9.347  0.00  0.00    -0.235 N 
ATOM      5  HN  UNK N   1      33.306  16.061   8.452  1.00  0.00     0.174 HD
HETATM    6  N   UNK N   1      35.130  17.004  10.963  0.00  0.00    -0.235 N 
HETATM    7  H   UNK N   1      32.893  17.132   9.738  0.00  0.00     0.174 HD
HETATM    8  H   UNK N   1      35.941  16.768  11.467  0.00  0.00     0.174 HD
HETATM    9  H   UNK N   1      34.645  17.829  11.195  0.00  0.00     0.174 HD
ENDROOT
BRANCH   2  10
HETATM   10  C   UNK N   1      36.707  14.781   9.997  0.00  0.00     0.167 C 
BRANCH  10  11
HETATM   11  C   UNK N   1      36.688  13.690  11.058  0.00  0.00     0.201 C 
BRANCH  11  12
HETATM   12  O   UNK N   1      36.344  14.276  12.282  0.00  0.00    -0.295 OA
BRANCH  12  13
HETATM   13  P   UNK N   1      35.866  12.967  13.328  0.00  0.00     0.390 P 
HETATM   14  O   UNK N   1      34.954  13.470  14.478  0.00  0.00    -0.632 OA
BRANCH  13  15
HETATM   15  O   UNK N   1      34.465  13.610  12.528  0.00  0.00    -0.307 OA
HETATM   16  H   UNK N   1      33.701  13.075  12.263  0.00  0.00     0.222 HD
ENDBRANCH  13  15
BRANCH  13  17
HETATM   17  O   UNK N   1      36.876  14.030  14.263  0.00  0.00    -0.307 OA
HETATM   18  H   UNK N   1      37.643  13.923  14.846  0.00  0.00     0.222 HD
ENDBRANCH  13  17
ENDBRANCH  12  13
ENDBRANCH  11  12
ENDBRANCH  10  11
ENDBRANCH   2  10
TORSDOF 6
ENDMDL
MODEL 6
REMARK VINA RESULT:      -4.0     26.370     27.369
REMARK  6 active torsions:
REMARK  status: ('A' for Active; 'I' for Inactive)
REMARK    1  A    between atoms: N_2  and  C_3 
REMARK       I    between atoms: N_2  and  C_10 
REMARK    2  A    between atoms: C_3  and  C_4 
REMARK    3  A    between atoms: C_4  and  O_5 
REMARK    4  A    between atoms: O_5  and  P_6 
REMARK    5  A    between atoms: P_6  and  O_8 
REMARK    6  A    between atoms: P_6  and  O_9 
REMARK       I    between atoms: C_10  and  N_13 
ROOT
HETATM    1  C   UNK N   1      45.560  24.677  -1.341  0.00  0.00     0.168 C 
HETATM    2  N   UNK N   1      45.859  24.976   0.038  0.00  0.00    -0.221 N 
HETATM    3  C   UNK N   1      47.213  25.139   0.462  0.00  0.00     0.667 C 
HETATM    4  N   UNK N   1      48.177  25.004  -0.371  0.00  0.00    -0.235 N 
ATOM      5  HN  UNK N   1      47.984  24.570  -1.274  1.00  0.00     0.174 HD
HETATM    6  N   UNK N   1      47.506  25.423   1.818  0.00  0.00    -0.235 N 
HETATM    7  H   UNK N   1      49.095  25.300  -0.177  0.00  0.00     0.174 HD
HETATM    8  H   UNK N   1      46.795  25.599   2.476  0.00  0.00     0.174 HD
HETATM    9  H   UNK N   1      48.446  25.446   2.111  0.00  0.00     0.174 HD
ENDROOT
BRANCH   2  10
HETATM   10  C   UNK N   1      44.772  24.977   0.987  0.00  0.00     0.167 C 
BRANCH  10  11
HETATM   11  C   UNK N   1      44.534  23.601   1.592  0.00  0.00     0.201 C 
BRANCH  11  12
HETATM   12  O   UNK N   1      45.030  23.608   2.903  0.00  0.00    -0.295 OA
BRANCH  12  13
HETATM   13  P   UNK N   1      44.140  22.381   3.763  0.00  0.00     0.390 P 
HETATM   14  O   UNK N   1      44.187  22.622   5.295  0.00  0.00    -0.632 OA
BRANCH  13  15
HETATM   15  O   UNK N   1      43.369  23.921   3.988  0.00  0.00    -0.307 OA
HETATM   16  H   UNK N   1      43.148  24.526   3.263  0.00  0.00     0.222 HD
ENDBRANCH  13  15
BRANCH  13  17
HETATM   17  O   UNK N   1      45.816  22.198   4.191  0.00  0.00    -0.307 OA
HETATM   18  H   UNK N   1      46.654  22.151   3.706  0.00  0.00     0.222 HD
ENDBRANCH  13  17
ENDBRANCH  12  13
ENDBRANCH  11  12
ENDBRANCH  10  11
ENDBRANCH   2  10
TORSDOF 6
ENDMDL
MODEL 7
REMARK VINA RESULT:      -4.0     13.057     14.172
REMARK  6 active torsions:
REMARK  status: ('A' for Active; 'I' for Inactive)
REMARK    1  A    between atoms: N_2  and  C_3 
REMARK       I    between atoms: N_2  and  C_10 
REMARK    2  A    between atoms: C_3  and  C_4 
REMARK    3  A    between atoms: C_4  and  O_5 
REMARK    4  A    between atoms: O_5  and  P_6 
REMARK    5  A    between atoms: P_6  and  O_8 
REMARK    6  A    between atoms: P_6  and  O_9 
REMARK       I    between atoms: C_10  and  N_13 
ROOT
HETATM    1  C   UNK N   1      33.492  15.587   9.136  0.00  0.00     0.168 C 
HETATM    2  N   UNK N   1      34.296  16.773   9.296  0.00  0.00    -0.221 N 
HETATM    3  C   UNK N   1      34.202  17.840   8.351  0.00  0.00     0.667 C 
HETATM    4  N   UNK N   1      33.418  17.748   7.342  0.00  0.00    -0.235 N 
ATOM      5  HN  UNK N   1      33.034  16.833   7.104  1.00  0.00     0.174 HD
HETATM    6  N   UNK N   1      34.998  19.001   8.504  0.00  0.00    -0.235 N 
HETATM    7  H   UNK N   1      33.171  18.521   6.785  0.00  0.00     0.174 HD
HETATM    8  H   UNK N   1      35.563  19.140   9.297  0.00  0.00     0.174 HD
HETATM    9  H   UNK N   1      34.986  19.687   7.798  0.00  0.00     0.174 HD
ENDROOT
BRANCH   2  10
HETATM   10  C   UNK N   1      35.277  16.795  10.354  0.00  0.00     0.167 C 
BRANCH  10  11
HETATM   11  C   UNK N   1      35.680  15.396  10.795  0.00  0.00     0.201 C 
BRANCH  11  12
HETATM   12  O   UNK N   1      35.785  15.390  12.192  0.00  0.00    -0.295 OA
BRANCH  12  13
HETATM   13  P   UNK N   1      35.959  13.720  12.657  0.00  0.00     0.390 P 
HETATM   14  O   UNK N   1      35.169  13.414  13.957  0.00  0.00    -0.632 OA
BRANCH  13  15
HETATM   15  O   UNK N   1      34.300  14.038  12.249  0.00  0.00    -0.307 OA
HETATM   16  H   UNK N   1      33.788  14.778  12.608  0.00  0.00     0.222 HD
ENDBRANCH  13  15
BRANCH  13  17
HETATM   17  O   UNK N   1      36.732  14.680  13.884  0.00  0.00    -0.307 OA
HETATM   18  H   UNK N   1      36.500  15.471  14.394  0.00  0.00     0.222 HD
ENDBRANCH  13  17
ENDBRANCH  12  13
ENDBRANCH  11  12
ENDBRANCH  10  11
ENDBRANCH   2  10
TORSDOF 6
ENDMDL
MODEL 8
REMARK VINA RESULT:      -4.0     23.595     24.444
REMARK  6 active torsions:
REMARK  status: ('A' for Active; 'I' for Inactive)
REMARK    1  A    between atoms: N_2  and  C_3 
REMARK       I    between atoms: N_2  and  C_10 
REMARK    2  A    between atoms: C_3  and  C_4 
REMARK    3  A    between atoms: C_4  and  O_5 
REMARK    4  A    between atoms: O_5  and  P_6 
REMARK    5  A    between atoms: P_6  and  O_8 
REMARK    6  A    between atoms: P_6  and  O_9 
REMARK       I    between atoms: C_10  and  N_13 
ROOT
HETATM    1  C   UNK N   1      44.410  19.995   2.993  0.00  0.00     0.168 C 
HETATM    2  N   UNK N   1      43.692  21.215   3.272  0.00  0.00    -0.221 N 
HETATM    3  C   UNK N   1      44.358  22.318   3.888  0.00  0.00     0.667 C 
HETATM    4  N   UNK N   1      45.594  22.231   4.216  0.00  0.00    -0.235 N 
ATOM      5  HN  UNK N   1      46.030  21.309   4.233  1.00  0.00     0.174 HD
HETATM    6  N   UNK N   1      43.651  23.512   4.170  0.00  0.00    -0.235 N 
HETATM    7  H   UNK N   1      46.140  23.015   4.451  0.00  0.00     0.174 HD
HETATM    8  H   UNK N   1      42.720  23.644   3.877  0.00  0.00     0.174 HD
HETATM    9  H   UNK N   1      44.101  24.229   4.673  0.00  0.00     0.174 HD
ENDROOT
BRANCH   2  10
HETATM   10  C   UNK N   1      42.269  21.240   3.032  0.00  0.00     0.167 C 
BRANCH  10  11
HETATM   11  C   UNK N   1      41.924  21.859   1.685  0.00  0.00     0.201 C 
BRANCH  11  12
HETATM   12  O   UNK N   1      41.803  23.244   1.859  0.00  0.00    -0.295 OA
BRANCH  12  13
HETATM   13  P   UNK N   1      41.936  23.944   0.269  0.00  0.00     0.390 P 
HETATM   14  O   UNK N   1      42.536  25.374   0.332  0.00  0.00    -0.632 OA
BRANCH  13  15
HETATM   15  O   UNK N   1      43.523  23.725   0.940  0.00  0.00    -0.307 OA
HETATM   16  H   UNK N   1      44.166  23.080   0.606  0.00  0.00     0.222 HD
ENDBRANCH  13  15
BRANCH  13  17
HETATM   17  O   UNK N   1      40.762  24.880   1.147  0.00  0.00    -0.307 OA
HETATM   18  H   UNK N   1      39.817  25.074   1.050  0.00  0.00     0.222 HD
ENDBRANCH  13  17
ENDBRANCH  12  13
ENDBRANCH  11  12
ENDBRANCH  10  11
ENDBRANCH   2  10
TORSDOF 6
ENDMDL
MODEL 9
REMARK VINA RESULT:      -3.9     13.950     14.864
REMARK  6 active torsions:
REMARK  status: ('A' for Active; 'I' for Inactive)
REMARK    1  A    between atoms: N_2  and  C_3 
REMARK       I    between atoms: N_2  and  C_10 
REMARK    2  A    between atoms: C_3  and  C_4 
REMARK    3  A    between atoms: C_4  and  O_5 
REMARK    4  A    between atoms: O_5  and  P_6 
REMARK    5  A    between atoms: P_6  and  O_8 
REMARK    6  A    between atoms: P_6  and  O_9 
REMARK       I    between atoms: C_10  and  N_13 
ROOT
HETATM    1  C   UNK N   1      36.674  12.245   9.605  0.00  0.00     0.168 C 
HETATM    2  N   UNK N   1      36.210  13.435  10.274  0.00  0.00    -0.221 N 
HETATM    3  C   UNK N   1      37.079  14.557  10.434  0.00  0.00     0.667 C 
HETATM    4  N   UNK N   1      38.284  14.514  10.001  0.00  0.00    -0.235 N 
ATOM      5  HN  UNK N   1      38.677  13.608   9.744  1.00  0.00     0.174 HD
HETATM    6  N   UNK N   1      36.625  15.722  11.099  0.00  0.00    -0.235 N 
HETATM    7  H   UNK N   1      38.846  15.315   9.907  0.00  0.00     0.174 HD
HETATM    8  H   UNK N   1      35.689  15.822  11.389  0.00  0.00     0.174 HD
HETATM    9  H   UNK N   1      37.262  16.451  11.278  0.00  0.00     0.174 HD
ENDROOT
BRANCH   2  10
HETATM   10  C   UNK N   1      34.902  13.410  10.883  0.00  0.00     0.167 C 
BRANCH  10  11
HETATM   11  C   UNK N   1      34.924  12.780  12.269  0.00  0.00     0.201 C 
BRANCH  11  12
HETATM   12  O   UNK N   1      35.129  13.799  13.208  0.00  0.00    -0.295 OA
BRANCH  12  13
HETATM   13  P   UNK N   1      36.206  13.139  14.409  0.00  0.00     0.390 P 
HETATM   14  O   UNK N   1      36.203  13.998  15.700  0.00  0.00    -0.632 OA
BRANCH  13  15
HETATM   15  O   UNK N   1      34.571  13.053  14.989  0.00  0.00    -0.307 OA
HETATM   16  H   UNK N   1      33.845  13.592  14.638  0.00  0.00     0.222 HD
ENDBRANCH  13  15
BRANCH  13  17
HETATM   17  O   UNK N   1      36.858  14.676  13.922  0.00  0.00    -0.307 OA
HETATM   18  H   UNK N   1      36.899  15.565  14.307  0.00  0.00     0.222 HD
ENDBRANCH  13  17
ENDBRANCH  12  13
ENDBRANCH  11  12
ENDBRANCH  10  11
ENDBRANCH   2  10
TORSDOF 6
ENDMDL
