REMARK  4 active torsions:
REMARK  status: ('A' for Active; 'I' for Inactive)
REMARK    1  A    between atoms: C_24  and  C_13 
REMARK    2  A    between atoms: N_33  and  C_16 
REMARK    3  A    between atoms: C_23  and  C_21 
REMARK    4  A    between atoms: O_36  and  C_24 
REMARK       I    between atoms: N_33  and  C_25 
ROOT
HETATM    1  C   UNK N   1       5.814  -2.648  -0.354  0.00  0.00     0.025 A 
HETATM    2  C   UNK N   1       4.446  -2.583  -0.168  0.00  0.00     0.016 A 
HETATM    3  C   UNK N   1       5.914  -0.270  -0.104  0.00  0.00     0.038 A 
HETATM    4  C   UNK N   1       1.830   0.669   1.264  0.00  0.00     0.162 C 
HETATM    5  C   UNK N   1       0.039  -0.760   0.421  0.00  0.00     0.117 A 
HETATM    6  C   UNK N   1       1.406  -0.514   0.506  0.00  0.00     0.004 A 
HETATM    7  C   UNK N   1       6.548  -1.482  -0.342  0.00  0.00     0.035 A 
HETATM    8  C   UNK N   1       3.769  -1.368   0.071  0.00  0.00     0.004 A 
HETATM    9  C   UNK N   1       4.536  -0.151   0.154  0.00  0.00     0.005 A 
HETATM   10  C   UNK N   1       2.295  -1.499   0.065  0.00  0.00     0.069 A 
HETATM   11  C   UNK N   1       3.996   1.273   0.312  0.00  0.00     0.056 C 
HETATM   12  C   UNK N   1       0.456  -2.908  -0.471  0.00  0.00     0.683 A 
HETATM   13 Cl   UNK N   1       8.266  -1.529  -0.656  0.00  0.00    -0.084 Cl
HETATM   14  N   UNK N   1       2.789   1.553   0.675  0.00  0.00    -0.384 N 
ATOM     15  HN  UNK N   1       2.484   2.515   0.524  1.00  0.00     0.160 HD
HETATM   16  N   UNK N   1      -0.410  -1.937  -0.065  0.00  0.00    -0.201 N 
ATOM     17  HN  UNK N   1      -1.415  -2.102  -0.130  1.00  0.00     0.183 HD
HETATM   18  N   UNK N   1      -0.026  -4.186  -0.851  0.00  0.00    -0.192 N 
HETATM   19  N   UNK N   1       1.783  -2.673  -0.406  0.00  0.00    -0.190 N 
ATOM     20  HN  UNK N   1       2.427  -3.399  -0.721  1.00  0.00     0.184 HD
HETATM   21  H   UNK N   1       0.584  -4.881  -1.189  0.00  0.00     0.184 HD
ENDROOT
BRANCH  18  22
HETATM   22  C   UNK N   1      -1.407  -4.425  -0.726  0.00  0.00     0.049 A 
HETATM   23  C   UNK N   1      -1.865  -5.146   0.380  0.00  0.00     0.031 A 
HETATM   24  C   UNK N   1      -3.203  -5.050   0.766  0.00  0.00     0.020 A 
HETATM   25  C   UNK N   1      -4.078  -4.213   0.059  0.00  0.00     0.037 A 
HETATM   26  C   UNK N   1      -3.626  -3.539  -1.080  0.00  0.00     0.020 A 
HETATM   27  C   UNK N   1      -2.294  -3.634  -1.462  0.00  0.00     0.031 A 
BRANCH  25  28
HETATM   28  C   UNK N   1      -5.436  -3.963   0.563  0.00  0.00     0.176 C 
HETATM   29  O   UNK N   1      -6.162  -3.160  -0.002  0.00  0.00    -0.646 OA
BRANCH  28  30
HETATM   30  O   UNK N   1      -5.858  -4.558   1.695  0.00  0.00    -0.773 OA
HETATM   31  H   UNK N   1      -6.363  -4.511   2.483  0.00  0.00     0.167 HD
ENDBRANCH  28  30
ENDBRANCH  25  28
ENDBRANCH  18  22
BRANCH  11  32
HETATM   32  C   UNK N   1       4.897   2.475   0.127  0.00  0.00     0.068 A 
HETATM   33  C   UNK N   1       4.399   3.629  -0.525  0.00  0.00     0.132 A 
HETATM   34  C   UNK N   1       5.205   4.759  -0.685  0.00  0.00     0.043 A 
HETATM   35  F   UNK N   1       3.137   3.658  -1.023  0.00  0.00    -0.205 F 
HETATM   36  C   UNK N   1       6.505   4.777  -0.186  0.00  0.00     0.006 A 
HETATM   37  C   UNK N   1       6.996   3.676   0.506  0.00  0.00     0.043 A 
HETATM   38  C   UNK N   1       6.211   2.534   0.672  0.00  0.00     0.132 A 
HETATM   39  F   UNK N   1       6.711   1.547   1.455  0.00  0.00    -0.205 F 
ENDBRANCH  11  32
TORSDOF 4
