MODEL 1
REMARK VINA RESULT:      -7.1      0.000      0.000
REMARK  9 active torsions:
REMARK  status: ('A' for Active; 'I' for Inactive)
REMARK    1  A    between atoms: C_3  and  C_23 
REMARK    2  A    between atoms: N_4  and  S_8 
REMARK    3  A    between atoms: S_8  and  C_11 
REMARK    4  A    between atoms: C_14  and  O_17 
REMARK    5  A    between atoms: O_17  and  C_18 
REMARK    6  A    between atoms: C_18  and  C_19 
REMARK    7  A    between atoms: C_20  and  C_21 
REMARK    8  A    between atoms: C_21  and  O_22 
REMARK       I    between atoms: C_23  and  N_25 
REMARK    9  A    between atoms: N_25  and  O_26 
ROOT
HETATM    1  S   UNK N   1      33.442  16.803   7.829  0.00  0.00     0.244 S 
HETATM    2  O   UNK N   1      33.561  17.919   8.880  0.00  0.00    -0.206 OA
HETATM    3  O   UNK N   1      34.622  17.168   6.911  0.00  0.00    -0.206 OA
ENDROOT
BRANCH   1   4
HETATM    4  N   UNK N   1      33.896  15.284   8.647  0.00  0.00    -0.191 NA
HETATM    5  C   UNK N   1      35.346  15.275   8.970  0.00  0.00     0.186 C 
HETATM    6  C   UNK N   1      36.023  13.874   8.757  0.00  0.00     0.026 C 
HETATM    7  C   UNK N   1      37.524  13.934   8.941  0.00  0.00     0.029 C 
HETATM    8  S   UNK N   1      35.809  13.219   7.051  0.00  0.00    -0.156 SA
HETATM    9  C   UNK N   1      35.486  12.853   9.747  0.00  0.00     0.029 C 
HETATM   10  C   UNK N   1      34.158  13.870   6.663  0.00  0.00     0.090 C 
HETATM   11  C   UNK N   1      33.374  14.116   7.931  0.00  0.00     0.118 C 
BRANCH   5  12
HETATM   12  C   UNK N   1      35.508  15.855  10.383  0.00  0.00     0.261 C 
HETATM   13  O   UNK N   1      36.556  16.417  10.670  0.00  0.00    -0.270 OA
HETATM   14  N   UNK N   1      34.559  15.735  11.351  0.00  0.00    -0.236 N 
HETATM   15  H   UNK N   1      34.715  16.176  12.217  0.00  0.00     0.197 HD
BRANCH  14  16
HETATM   16  O   UNK N   1      33.423  15.045  11.182  0.00  0.00    -0.287 OA
HETATM   17  H   UNK N   1      32.471  15.015  11.370  0.00  0.00     0.244 HD
ENDBRANCH  14  16
ENDBRANCH   5  12
ENDBRANCH   1   4
BRANCH   1  18
HETATM   18  C   UNK N   1      31.919  16.929   6.907  0.00  0.00     0.074 A 
HETATM   19  C   UNK N   1      30.697  16.908   7.583  0.00  0.00     0.027 A 
HETATM   20  C   UNK N   1      29.515  17.210   6.899  0.00  0.00     0.038 A 
HETATM   21  C   UNK N   1      29.557  17.540   5.537  0.00  0.00     0.070 A 
HETATM   22  C   UNK N   1      30.776  17.514   4.852  0.00  0.00     0.038 A 
HETATM   23  C   UNK N   1      31.957  17.219   5.539  0.00  0.00     0.027 A 
BRANCH  21  24
HETATM   24  O   UNK N   1      28.444  17.959   4.904  0.00  0.00    -0.340 OA
BRANCH  24  25
HETATM   25  C   UNK N   1      28.368  19.255   4.447  0.00  0.00     0.269 C 
BRANCH  25  26
HETATM   26  C   UNK N   1      27.622  20.089   5.399  0.00  0.00    -0.078 C 
HETATM   27  C   UNK N   1      27.007  20.791   6.166  0.00  0.00    -0.079 C 
BRANCH  27  28
HETATM   28  C   UNK N   1      26.290  21.672   7.085  0.00  0.00     0.257 C 
BRANCH  28  29
HETATM   29  O   UNK N   1      25.877  20.935   8.190  0.00  0.00    -0.389 OA
HETATM   30  H   UNK N   1      25.931  20.174   8.789  0.00  0.00     0.210 HD
ENDBRANCH  28  29
ENDBRANCH  27  28
ENDBRANCH  25  26
ENDBRANCH  24  25
ENDBRANCH  21  24
ENDBRANCH   1  18
TORSDOF 9
ENDMDL
MODEL 2
REMARK VINA RESULT:      -7.0      1.191      1.820
REMARK  9 active torsions:
REMARK  status: ('A' for Active; 'I' for Inactive)
REMARK    1  A    between atoms: C_3  and  C_23 
REMARK    2  A    between atoms: N_4  and  S_8 
REMARK    3  A    between atoms: S_8  and  C_11 
REMARK    4  A    between atoms: C_14  and  O_17 
REMARK    5  A    between atoms: O_17  and  C_18 
REMARK    6  A    between atoms: C_18  and  C_19 
REMARK    7  A    between atoms: C_20  and  C_21 
REMARK    8  A    between atoms: C_21  and  O_22 
REMARK       I    between atoms: C_23  and  N_25 
REMARK    9  A    between atoms: N_25  and  O_26 
ROOT
HETATM    1  S   UNK N   1      33.752  16.127   8.754  0.00  0.00     0.244 S 
HETATM    2  O   UNK N   1      34.260  17.122   9.812  0.00  0.00    -0.206 OA
HETATM    3  O   UNK N   1      34.950  16.122   7.788  0.00  0.00    -0.206 OA
ENDROOT
BRANCH   1   4
HETATM    4  N   UNK N   1      33.732  14.522   9.534  0.00  0.00    -0.191 NA
HETATM    5  C   UNK N   1      35.104  14.114   9.928  0.00  0.00     0.186 C 
HETATM    6  C   UNK N   1      35.390  12.586   9.695  0.00  0.00     0.026 C 
HETATM    7  C   UNK N   1      36.839  12.234   9.955  0.00  0.00     0.029 C 
HETATM    8  S   UNK N   1      35.107  12.055   7.956  0.00  0.00    -0.156 SA
HETATM    9  C   UNK N   1      34.541  11.726  10.617  0.00  0.00     0.029 C 
HETATM   10  C   UNK N   1      33.718  13.138   7.513  0.00  0.00     0.090 C 
HETATM   11  C   UNK N   1      32.957  13.557   8.749  0.00  0.00     0.118 C 
BRANCH   5  12
HETATM   12  C   UNK N   1      35.335  14.594  11.369  0.00  0.00     0.261 C 
HETATM   13  O   UNK N   1      34.607  14.164  12.254  0.00  0.00    -0.270 OA
HETATM   14  N   UNK N   1      36.281  15.512  11.705  0.00  0.00    -0.236 N 
HETATM   15  H   UNK N   1      36.401  15.733  12.657  0.00  0.00     0.197 HD
BRANCH  14  16
HETATM   16  O   UNK N   1      37.056  16.130  10.804  0.00  0.00    -0.287 OA
HETATM   17  H   UNK N   1      37.945  16.184  10.419  0.00  0.00     0.244 HD
ENDBRANCH  14  16
ENDBRANCH   5  12
ENDBRANCH   1   4
BRANCH   1  18
HETATM   18  C   UNK N   1      32.313  16.752   7.904  0.00  0.00     0.074 A 
HETATM   19  C   UNK N   1      32.281  16.755   6.507  0.00  0.00     0.027 A 
HETATM   20  C   UNK N   1      31.090  17.048   5.836  0.00  0.00     0.038 A 
HETATM   21  C   UNK N   1      29.925  17.333   6.564  0.00  0.00     0.070 A 
HETATM   22  C   UNK N   1      29.972  17.376   7.961  0.00  0.00     0.038 A 
HETATM   23  C   UNK N   1      31.162  17.075   8.631  0.00  0.00     0.027 A 
BRANCH  21  24
HETATM   24  O   UNK N   1      28.747  17.487   5.930  0.00  0.00    -0.340 OA
BRANCH  24  25
HETATM   25  C   UNK N   1      28.570  18.549   5.073  0.00  0.00     0.269 C 
BRANCH  25  26
HETATM   26  C   UNK N   1      27.809  19.618   5.733  0.00  0.00    -0.078 C 
HETATM   27  C   UNK N   1      27.174  20.482   6.288  0.00  0.00    -0.079 C 
BRANCH  27  28
HETATM   28  C   UNK N   1      26.369  21.504   6.954  0.00  0.00     0.257 C 
BRANCH  28  29
HETATM   29  O   UNK N   1      25.877  20.988   8.148  0.00  0.00    -0.389 OA
HETATM   30  H   UNK N   1      25.234  20.951   8.873  0.00  0.00     0.210 HD
ENDBRANCH  28  29
ENDBRANCH  27  28
ENDBRANCH  25  26
ENDBRANCH  24  25
ENDBRANCH  21  24
ENDBRANCH   1  18
TORSDOF 9
ENDMDL
MODEL 3
REMARK VINA RESULT:      -7.0      1.410      1.607
REMARK  9 active torsions:
REMARK  status: ('A' for Active; 'I' for Inactive)
REMARK    1  A    between atoms: C_3  and  C_23 
REMARK    2  A    between atoms: N_4  and  S_8 
REMARK    3  A    between atoms: S_8  and  C_11 
REMARK    4  A    between atoms: C_14  and  O_17 
REMARK    5  A    between atoms: O_17  and  C_18 
REMARK    6  A    between atoms: C_18  and  C_19 
REMARK    7  A    between atoms: C_20  and  C_21 
REMARK    8  A    between atoms: C_21  and  O_22 
REMARK       I    between atoms: C_23  and  N_25 
REMARK    9  A    between atoms: N_25  and  O_26 
ROOT
HETATM    1  S   UNK N   1      33.421  16.826   7.834  0.00  0.00     0.244 S 
HETATM    2  O   UNK N   1      33.559  17.917   8.910  0.00  0.00    -0.206 OA
HETATM    3  O   UNK N   1      34.606  17.192   6.923  0.00  0.00    -0.206 OA
ENDROOT
BRANCH   1   4
HETATM    4  N   UNK N   1      33.849  15.282   8.617  0.00  0.00    -0.191 NA
HETATM    5  C   UNK N   1      35.300  15.238   8.932  0.00  0.00     0.186 C 
HETATM    6  C   UNK N   1      35.948  13.828   8.686  0.00  0.00     0.026 C 
HETATM    7  C   UNK N   1      37.451  13.855   8.861  0.00  0.00     0.029 C 
HETATM    8  S   UNK N   1      35.712  13.213   6.967  0.00  0.00    -0.156 SA
HETATM    9  C   UNK N   1      35.396  12.797   9.657  0.00  0.00     0.029 C 
HETATM   10  C   UNK N   1      34.072  13.905   6.603  0.00  0.00     0.090 C 
HETATM   11  C   UNK N   1      33.300  14.139   7.880  0.00  0.00     0.118 C 
BRANCH   5  12
HETATM   12  C   UNK N   1      35.482  15.785  10.355  0.00  0.00     0.261 C 
HETATM   13  O   UNK N   1      36.549  16.303  10.653  0.00  0.00    -0.270 OA
HETATM   14  N   UNK N   1      34.528  15.680  11.320  0.00  0.00    -0.236 N 
HETATM   15  H   UNK N   1      34.699  16.099  12.195  0.00  0.00     0.197 HD
BRANCH  14  16
HETATM   16  O   UNK N   1      33.368  15.034  11.138  0.00  0.00    -0.287 OA
HETATM   17  H   UNK N   1      32.950  14.223  10.810  0.00  0.00     0.244 HD
ENDBRANCH  14  16
ENDBRANCH   5  12
ENDBRANCH   1   4
BRANCH   1  18
HETATM   18  C   UNK N   1      31.900  16.999   6.916  0.00  0.00     0.074 A 
HETATM   19  C   UNK N   1      30.691  17.149   7.601  0.00  0.00     0.027 A 
HETATM   20  C   UNK N   1      29.529  17.488   6.901  0.00  0.00     0.038 A 
HETATM   21  C   UNK N   1      29.577  17.685   5.514  0.00  0.00     0.070 A 
HETATM   22  C   UNK N   1      30.778  17.488   4.825  0.00  0.00     0.038 A 
HETATM   23  C   UNK N   1      31.941  17.156   5.526  0.00  0.00     0.027 A 
BRANCH  21  24
HETATM   24  O   UNK N   1      28.495  18.138   4.852  0.00  0.00    -0.340 OA
BRANCH  24  25
HETATM   25  C   UNK N   1      28.283  19.494   4.743  0.00  0.00     0.269 C 
BRANCH  25  26
HETATM   26  C   UNK N   1      26.929  19.761   4.241  0.00  0.00    -0.078 C 
HETATM   27  C   UNK N   1      25.822  19.975   3.809  0.00  0.00    -0.079 C 
BRANCH  27  28
HETATM   28  C   UNK N   1      24.499  20.261   3.256  0.00  0.00     0.257 C 
BRANCH  28  29
HETATM   29  O   UNK N   1      24.649  20.839   2.000  0.00  0.00    -0.389 OA
HETATM   30  H   UNK N   1      24.536  21.563   1.363  0.00  0.00     0.210 HD
ENDBRANCH  28  29
ENDBRANCH  27  28
ENDBRANCH  25  26
ENDBRANCH  24  25
ENDBRANCH  21  24
ENDBRANCH   1  18
TORSDOF 9
ENDMDL
MODEL 4
REMARK VINA RESULT:      -6.7     15.700     17.546
REMARK  9 active torsions:
REMARK  status: ('A' for Active; 'I' for Inactive)
REMARK    1  A    between atoms: C_3  and  C_23 
REMARK    2  A    between atoms: N_4  and  S_8 
REMARK    3  A    between atoms: S_8  and  C_11 
REMARK    4  A    between atoms: C_14  and  O_17 
REMARK    5  A    between atoms: O_17  and  C_18 
REMARK    6  A    between atoms: C_18  and  C_19 
REMARK    7  A    between atoms: C_20  and  C_21 
REMARK    8  A    between atoms: C_21  and  O_22 
REMARK       I    between atoms: C_23  and  N_25 
REMARK    9  A    between atoms: N_25  and  O_26 
ROOT
HETATM    1  S   UNK N   1      25.993  24.032  -6.847  0.00  0.00     0.244 S 
HETATM    2  O   UNK N   1      24.991  24.202  -8.002  0.00  0.00    -0.206 OA
HETATM    3  O   UNK N   1      25.490  22.708  -6.244  0.00  0.00    -0.206 OA
ENDROOT
BRANCH   1   4
HETATM    4  N   UNK N   1      27.573  23.672  -7.593  0.00  0.00    -0.191 NA
HETATM    5  C   UNK N   1      27.640  22.252  -8.021  0.00  0.00     0.186 C 
HETATM    6  C   UNK N   1      29.042  21.590  -7.766  0.00  0.00     0.026 C 
HETATM    7  C   UNK N   1      29.032  20.106  -8.064  0.00  0.00     0.029 C 
HETATM    8  S   UNK N   1      29.579  21.688  -6.009  0.00  0.00    -0.156 SA
HETATM    9  C   UNK N   1      30.110  22.222  -8.643  0.00  0.00     0.029 C 
HETATM   10  C   UNK N   1      28.862  23.292  -5.545  0.00  0.00     0.090 C 
HETATM   11  C   UNK N   1      28.678  24.164  -6.764  0.00  0.00     0.118 C 
BRANCH   5  12
HETATM   12  C   UNK N   1      27.157  22.185  -9.478  0.00  0.00     0.261 C 
HETATM   13  O   UNK N   1      27.889  22.616 -10.359  0.00  0.00    -0.270 OA
HETATM   14  N   UNK N   1      25.934  21.709  -9.835  0.00  0.00    -0.236 N 
HETATM   15  H   UNK N   1      25.715  21.652 -10.794  0.00  0.00     0.197 HD
BRANCH  14  16
HETATM   16  O   UNK N   1      25.012  21.316  -8.946  0.00  0.00    -0.287 OA
HETATM   17  H   UNK N   1      24.544  20.557  -8.565  0.00  0.00     0.244 HD
ENDBRANCH  14  16
ENDBRANCH   5  12
ENDBRANCH   1   4
BRANCH   1  18
HETATM   18  C   UNK N   1      25.824  25.331  -5.635  0.00  0.00     0.074 A 
HETATM   19  C   UNK N   1      26.259  25.118  -4.325  0.00  0.00     0.027 A 
HETATM   20  C   UNK N   1      26.320  26.187  -3.426  0.00  0.00     0.038 A 
HETATM   21  C   UNK N   1      25.952  27.475  -3.841  0.00  0.00     0.070 A 
HETATM   22  C   UNK N   1      25.471  27.677  -5.139  0.00  0.00     0.038 A 
HETATM   23  C   UNK N   1      25.417  26.608  -6.038  0.00  0.00     0.027 A 
BRANCH  21  24
HETATM   24  O   UNK N   1      26.131  28.530  -3.024  0.00  0.00    -0.340 OA
BRANCH  24  25
HETATM   25  C   UNK N   1      27.188  29.386  -3.239  0.00  0.00     0.269 C 
BRANCH  25  26
HETATM   26  C   UNK N   1      27.821  29.748  -1.964  0.00  0.00    -0.078 C 
HETATM   27  C   UNK N   1      28.350  30.064  -0.926  0.00  0.00    -0.079 C 
BRANCH  27  28
HETATM   28  C   UNK N   1      29.028  30.449   0.310  0.00  0.00     0.257 C 
BRANCH  28  29
HETATM   29  O   UNK N   1      28.429  29.793   1.379  0.00  0.00    -0.389 OA
HETATM   30  H   UNK N   1      27.724  29.677   2.037  0.00  0.00     0.210 HD
ENDBRANCH  28  29
ENDBRANCH  27  28
ENDBRANCH  25  26
ENDBRANCH  24  25
ENDBRANCH  21  24
ENDBRANCH   1  18
TORSDOF 9
ENDMDL
MODEL 5
REMARK VINA RESULT:      -6.5      4.009      6.186
REMARK  9 active torsions:
REMARK  status: ('A' for Active; 'I' for Inactive)
REMARK    1  A    between atoms: C_3  and  C_23 
REMARK    2  A    between atoms: N_4  and  S_8 
REMARK    3  A    between atoms: S_8  and  C_11 
REMARK    4  A    between atoms: C_14  and  O_17 
REMARK    5  A    between atoms: O_17  and  C_18 
REMARK    6  A    between atoms: C_18  and  C_19 
REMARK    7  A    between atoms: C_20  and  C_21 
REMARK    8  A    between atoms: C_21  and  O_22 
REMARK       I    between atoms: C_23  and  N_25 
REMARK    9  A    between atoms: N_25  and  O_26 
ROOT
HETATM    1  S   UNK N   1      35.913  13.995  11.913  0.00  0.00     0.244 S 
HETATM    2  O   UNK N   1      36.150  15.167  12.882  0.00  0.00    -0.206 OA
HETATM    3  O   UNK N   1      37.341  13.429  11.817  0.00  0.00    -0.206 OA
ENDROOT
BRANCH   1   4
HETATM    4  N   UNK N   1      34.955  12.784  12.806  0.00  0.00    -0.191 NA
HETATM    5  C   UNK N   1      35.723  12.254  13.961  0.00  0.00     0.186 C 
HETATM    6  C   UNK N   1      35.522  10.713  14.189  0.00  0.00     0.026 C 
HETATM    7  C   UNK N   1      36.436  10.174  15.268  0.00  0.00     0.029 C 
HETATM    8  S   UNK N   1      35.938   9.703  12.708  0.00  0.00    -0.156 SA
HETATM    9  C   UNK N   1      34.094  10.406  14.608  0.00  0.00     0.029 C 
HETATM   10  C   UNK N   1      35.419  10.840  11.390  0.00  0.00     0.090 C 
HETATM   11  C   UNK N   1      34.365  11.795  11.898  0.00  0.00     0.118 C 
BRANCH   5  12
HETATM   12  C   UNK N   1      35.389  13.129  15.179  0.00  0.00     0.261 C 
HETATM   13  O   UNK N   1      34.245  13.121  15.611  0.00  0.00    -0.270 OA
HETATM   14  N   UNK N   1      36.295  13.950  15.777  0.00  0.00    -0.236 N 
HETATM   15  H   UNK N   1      36.019  14.442  16.584  0.00  0.00     0.197 HD
BRANCH  14  16
HETATM   16  O   UNK N   1      37.543  14.120  15.320  0.00  0.00    -0.287 OA
HETATM   17  H   UNK N   1      38.213  13.807  14.692  0.00  0.00     0.244 HD
ENDBRANCH  14  16
ENDBRANCH   5  12
ENDBRANCH   1   4
BRANCH   1  18
HETATM   18  C   UNK N   1      35.399  14.568  10.304  0.00  0.00     0.074 A 
HETATM   19  C   UNK N   1      34.580  15.695  10.198  0.00  0.00     0.027 A 
HETATM   20  C   UNK N   1      34.340  16.270   8.947  0.00  0.00     0.038 A 
HETATM   21  C   UNK N   1      34.926  15.720   7.797  0.00  0.00     0.070 A 
HETATM   22  C   UNK N   1      35.706  14.564   7.900  0.00  0.00     0.038 A 
HETATM   23  C   UNK N   1      35.951  13.994   9.152  0.00  0.00     0.027 A 
BRANCH  21  24
HETATM   24  O   UNK N   1      34.807  16.343   6.609  0.00  0.00    -0.340 OA
BRANCH  24  25
HETATM   25  C   UNK N   1      33.872  17.341   6.454  0.00  0.00     0.269 C 
BRANCH  25  26
HETATM   26  C   UNK N   1      33.210  17.223   5.148  0.00  0.00    -0.078 C 
HETATM   27  C   UNK N   1      32.667  17.149   4.072  0.00  0.00    -0.079 C 
BRANCH  27  28
HETATM   28  C   UNK N   1      31.978  17.086   2.784  0.00  0.00     0.257 C 
BRANCH  28  29
HETATM   29  O   UNK N   1      30.609  16.988   3.008  0.00  0.00    -0.389 OA
HETATM   30  H   UNK N   1      29.683  17.191   2.799  0.00  0.00     0.210 HD
ENDBRANCH  28  29
ENDBRANCH  27  28
ENDBRANCH  25  26
ENDBRANCH  24  25
ENDBRANCH  21  24
ENDBRANCH   1  18
TORSDOF 9
ENDMDL
MODEL 6
REMARK VINA RESULT:      -6.5      1.537      2.295
REMARK  9 active torsions:
REMARK  status: ('A' for Active; 'I' for Inactive)
REMARK    1  A    between atoms: C_3  and  C_23 
REMARK    2  A    between atoms: N_4  and  S_8 
REMARK    3  A    between atoms: S_8  and  C_11 
REMARK    4  A    between atoms: C_14  and  O_17 
REMARK    5  A    between atoms: O_17  and  C_18 
REMARK    6  A    between atoms: C_18  and  C_19 
REMARK    7  A    between atoms: C_20  and  C_21 
REMARK    8  A    between atoms: C_21  and  O_22 
REMARK       I    between atoms: C_23  and  N_25 
REMARK    9  A    between atoms: N_25  and  O_26 
ROOT
HETATM    1  S   UNK N   1      33.741  15.862   7.001  0.00  0.00     0.244 S 
HETATM    2  O   UNK N   1      34.885  16.891   6.974  0.00  0.00    -0.206 OA
HETATM    3  O   UNK N   1      33.837  15.313   5.567  0.00  0.00    -0.206 OA
ENDROOT
BRANCH   1   4
HETATM    4  N   UNK N   1      34.270  14.542   8.078  0.00  0.00    -0.191 NA
HETATM    5  C   UNK N   1      35.368  14.999   8.968  0.00  0.00     0.186 C 
HETATM    6  C   UNK N   1      36.481  13.913   9.191  0.00  0.00     0.026 C 
HETATM    7  C   UNK N   1      37.660  14.459   9.968  0.00  0.00     0.029 C 
HETATM    8  S   UNK N   1      37.225  13.307   7.622  0.00  0.00    -0.156 SA
HETATM    9  C   UNK N   1      35.936  12.726   9.969  0.00  0.00     0.029 C 
HETATM   10  C   UNK N   1      35.777  13.391   6.528  0.00  0.00     0.090 C 
HETATM   11  C   UNK N   1      34.500  13.302   7.330  0.00  0.00     0.118 C 
BRANCH   5  12
HETATM   12  C   UNK N   1      34.727  15.532  10.258  0.00  0.00     0.261 C 
HETATM   13  O   UNK N   1      34.051  14.770  10.936  0.00  0.00    -0.270 OA
HETATM   14  N   UNK N   1      34.836  16.826  10.663  0.00  0.00    -0.236 N 
HETATM   15  H   UNK N   1      34.438  17.081  11.528  0.00  0.00     0.197 HD
BRANCH  14  16
HETATM   16  O   UNK N   1      35.457  17.771   9.943  0.00  0.00    -0.287 OA
HETATM   17  H   UNK N   1      35.661  18.717   9.875  0.00  0.00     0.244 HD
ENDBRANCH  14  16
ENDBRANCH   5  12
ENDBRANCH   1   4
BRANCH   1  18
HETATM   18  C   UNK N   1      32.156  16.650   7.224  0.00  0.00     0.074 A 
HETATM   19  C   UNK N   1      31.072  16.264   6.431  0.00  0.00     0.027 A 
HETATM   20  C   UNK N   1      29.787  16.724   6.732  0.00  0.00     0.038 A 
HETATM   21  C   UNK N   1      29.583  17.567   7.833  0.00  0.00     0.070 A 
HETATM   22  C   UNK N   1      30.675  17.990   8.597  0.00  0.00     0.038 A 
HETATM   23  C   UNK N   1      31.959  17.524   8.299  0.00  0.00     0.027 A 
BRANCH  21  24
HETATM   24  O   UNK N   1      28.335  17.908   8.207  0.00  0.00    -0.340 OA
BRANCH  24  25
HETATM   25  C   UNK N   1      27.974  19.235   8.242  0.00  0.00     0.269 C 
BRANCH  25  26
HETATM   26  C   UNK N   1      27.610  19.702   6.897  0.00  0.00    -0.078 C 
HETATM   27  C   UNK N   1      27.329  20.098   5.791  0.00  0.00    -0.079 C 
BRANCH  27  28
HETATM   28  C   UNK N   1      26.990  20.619   4.468  0.00  0.00     0.257 C 
BRANCH  28  29
HETATM   29  O   UNK N   1      27.676  19.888   3.505  0.00  0.00    -0.389 OA
HETATM   30  H   UNK N   1      27.745  19.442   2.646  0.00  0.00     0.210 HD
ENDBRANCH  28  29
ENDBRANCH  27  28
ENDBRANCH  25  26
ENDBRANCH  24  25
ENDBRANCH  21  24
ENDBRANCH   1  18
TORSDOF 9
ENDMDL
MODEL 7
REMARK VINA RESULT:      -6.4      2.483      4.262
REMARK  9 active torsions:
REMARK  status: ('A' for Active; 'I' for Inactive)
REMARK    1  A    between atoms: C_3  and  C_23 
REMARK    2  A    between atoms: N_4  and  S_8 
REMARK    3  A    between atoms: S_8  and  C_11 
REMARK    4  A    between atoms: C_14  and  O_17 
REMARK    5  A    between atoms: O_17  and  C_18 
REMARK    6  A    between atoms: C_18  and  C_19 
REMARK    7  A    between atoms: C_20  and  C_21 
REMARK    8  A    between atoms: C_21  and  O_22 
REMARK       I    between atoms: C_23  and  N_25 
REMARK    9  A    between atoms: N_25  and  O_26 
ROOT
HETATM    1  S   UNK N   1      33.210  16.857   7.553  0.00  0.00     0.244 S 
HETATM    2  O   UNK N   1      32.925  17.893   8.654  0.00  0.00    -0.206 OA
HETATM    3  O   UNK N   1      34.624  17.291   7.131  0.00  0.00    -0.206 OA
ENDROOT
BRANCH   1   4
HETATM    4  N   UNK N   1      33.393  15.283   8.373  0.00  0.00    -0.191 NA
HETATM    5  C   UNK N   1      34.728  15.178   9.015  0.00  0.00     0.186 C 
HETATM    6  C   UNK N   1      35.369  13.749   8.888  0.00  0.00     0.026 C 
HETATM    7  C   UNK N   1      36.791  13.716   9.409  0.00  0.00     0.029 C 
HETATM    8  S   UNK N   1      35.520  13.176   7.146  0.00  0.00    -0.156 SA
HETATM    9  C   UNK N   1      34.573  12.723   9.677  0.00  0.00     0.029 C 
HETATM   10  C   UNK N   1      34.034  13.936   6.430  0.00  0.00     0.090 C 
HETATM   11  C   UNK N   1      32.994  14.176   7.498  0.00  0.00     0.118 C 
BRANCH   5  12
HETATM   12  C   UNK N   1      34.591  15.691  10.456  0.00  0.00     0.261 C 
HETATM   13  O   UNK N   1      34.021  14.987  11.277  0.00  0.00    -0.270 OA
HETATM   14  N   UNK N   1      35.033  16.914  10.856  0.00  0.00    -0.236 N 
HETATM   15  H   UNK N   1      34.953  17.153  11.808  0.00  0.00     0.197 HD
BRANCH  14  16
HETATM   16  O   UNK N   1      35.571  17.810  10.016  0.00  0.00    -0.287 OA
HETATM   17  H   UNK N   1      35.687  18.754   9.824  0.00  0.00     0.244 HD
ENDBRANCH  14  16
ENDBRANCH   5  12
ENDBRANCH   1   4
BRANCH   1  18
HETATM   18  C   UNK N   1      32.099  17.047   6.170  0.00  0.00     0.074 A 
HETATM   19  C   UNK N   1      32.610  17.078   4.870  0.00  0.00     0.027 A 
HETATM   20  C   UNK N   1      31.741  17.021   3.776  0.00  0.00     0.038 A 
HETATM   21  C   UNK N   1      30.358  16.926   3.982  0.00  0.00     0.070 A 
HETATM   22  C   UNK N   1      29.846  16.943   5.284  0.00  0.00     0.038 A 
HETATM   23  C   UNK N   1      30.716  16.993   6.376  0.00  0.00     0.027 A 
BRANCH  21  24
HETATM   24  O   UNK N   1      29.525  16.739   2.940  0.00  0.00    -0.340 OA
BRANCH  24  25
HETATM   25  C   UNK N   1      28.702  15.637   2.916  0.00  0.00     0.269 C 
BRANCH  25  26
HETATM   26  C   UNK N   1      29.468  14.432   2.571  0.00  0.00    -0.078 C 
HETATM   27  C   UNK N   1      30.117  13.453   2.290  0.00  0.00    -0.079 C 
BRANCH  27  28
HETATM   28  C   UNK N   1      30.924  12.292   1.920  0.00  0.00     0.257 C 
BRANCH  28  29
HETATM   29  O   UNK N   1      32.269  12.605   2.081  0.00  0.00    -0.389 OA
HETATM   30  H   UNK N   1      33.072  13.104   1.862  0.00  0.00     0.210 HD
ENDBRANCH  28  29
ENDBRANCH  27  28
ENDBRANCH  25  26
ENDBRANCH  24  25
ENDBRANCH  21  24
ENDBRANCH   1  18
TORSDOF 9
ENDMDL
MODEL 8
REMARK VINA RESULT:      -6.3      3.798      8.852
REMARK  9 active torsions:
REMARK  status: ('A' for Active; 'I' for Inactive)
REMARK    1  A    between atoms: C_3  and  C_23 
REMARK    2  A    between atoms: N_4  and  S_8 
REMARK    3  A    between atoms: S_8  and  C_11 
REMARK    4  A    between atoms: C_14  and  O_17 
REMARK    5  A    between atoms: O_17  and  C_18 
REMARK    6  A    between atoms: C_18  and  C_19 
REMARK    7  A    between atoms: C_20  and  C_21 
REMARK    8  A    between atoms: C_21  and  O_22 
REMARK       I    between atoms: C_23  and  N_25 
REMARK    9  A    between atoms: N_25  and  O_26 
ROOT
HETATM    1  S   UNK N   1      34.430  15.347  10.049  0.00  0.00     0.244 S 
HETATM    2  O   UNK N   1      34.560  16.799  10.540  0.00  0.00    -0.206 OA
HETATM    3  O   UNK N   1      32.903  15.171  10.123  0.00  0.00    -0.206 OA
ENDROOT
BRANCH   1   4
HETATM    4  N   UNK N   1      34.849  15.357   8.315  0.00  0.00    -0.191 NA
HETATM    5  C   UNK N   1      33.685  15.779   7.496  0.00  0.00     0.186 C 
HETATM    6  C   UNK N   1      33.545  14.977   6.153  0.00  0.00     0.026 C 
HETATM    7  C   UNK N   1      32.265  15.316   5.419  0.00  0.00     0.029 C 
HETATM    8  S   UNK N   1      33.443  13.157   6.405  0.00  0.00    -0.156 SA
HETATM    9  C   UNK N   1      34.701  15.280   5.214  0.00  0.00     0.029 C 
HETATM   10  C   UNK N   1      34.527  12.974   7.851  0.00  0.00     0.090 C 
HETATM   11  C   UNK N   1      35.517  14.113   7.921  0.00  0.00     0.118 C 
BRANCH   5  12
HETATM   12  C   UNK N   1      33.767  17.304   7.325  0.00  0.00     0.261 C 
HETATM   13  O   UNK N   1      34.618  17.764   6.576  0.00  0.00    -0.270 OA
HETATM   14  N   UNK N   1      32.969  18.173   8.001  0.00  0.00    -0.236 N 
HETATM   15  H   UNK N   1      33.048  19.134   7.800  0.00  0.00     0.197 HD
BRANCH  14  16
HETATM   16  O   UNK N   1      32.081  17.785   8.927  0.00  0.00    -0.287 OA
HETATM   17  H   UNK N   1      31.849  17.808   9.868  0.00  0.00     0.244 HD
ENDBRANCH  14  16
ENDBRANCH   5  12
ENDBRANCH   1   4
BRANCH   1  18
HETATM   18  C   UNK N   1      35.208  14.202  11.175  0.00  0.00     0.074 A 
HETATM   19  C   UNK N   1      36.083  14.679  12.154  0.00  0.00     0.027 A 
HETATM   20  C   UNK N   1      36.536  13.824  13.163  0.00  0.00     0.038 A 
HETATM   21  C   UNK N   1      36.107  12.490  13.198  0.00  0.00     0.070 A 
HETATM   22  C   UNK N   1      35.269  12.002  12.190  0.00  0.00     0.038 A 
HETATM   23  C   UNK N   1      34.812  12.860  11.186  0.00  0.00     0.027 A 
BRANCH  21  24
HETATM   24  O   UNK N   1      36.433  11.697  14.237  0.00  0.00    -0.340 OA
BRANCH  24  25
HETATM   25  C   UNK N   1      35.471  11.354  15.159  0.00  0.00     0.269 C 
BRANCH  25  26
HETATM   26  C   UNK N   1      35.429  12.341  16.246  0.00  0.00    -0.078 C 
HETATM   27  C   UNK N   1      35.372  13.150  17.141  0.00  0.00    -0.079 C 
BRANCH  27  28
HETATM   28  C   UNK N   1      35.276  14.153  18.200  0.00  0.00     0.257 C 
BRANCH  28  29
HETATM   29  O   UNK N   1      35.004  13.514  19.405  0.00  0.00    -0.389 OA
HETATM   30  H   UNK N   1      34.424  13.030  20.015  0.00  0.00     0.210 HD
ENDBRANCH  28  29
ENDBRANCH  27  28
ENDBRANCH  25  26
ENDBRANCH  24  25
ENDBRANCH  21  24
ENDBRANCH   1  18
TORSDOF 9
ENDMDL
MODEL 9
REMARK VINA RESULT:      -6.3      3.026      8.330
REMARK  9 active torsions:
REMARK  status: ('A' for Active; 'I' for Inactive)
REMARK    1  A    between atoms: C_3  and  C_23 
REMARK    2  A    between atoms: N_4  and  S_8 
REMARK    3  A    between atoms: S_8  and  C_11 
REMARK    4  A    between atoms: C_14  and  O_17 
REMARK    5  A    between atoms: O_17  and  C_18 
REMARK    6  A    between atoms: C_18  and  C_19 
REMARK    7  A    between atoms: C_20  and  C_21 
REMARK    8  A    between atoms: C_21  and  O_22 
REMARK       I    between atoms: C_23  and  N_25 
REMARK    9  A    between atoms: N_25  and  O_26 
ROOT
HETATM    1  S   UNK N   1      30.259  17.401   7.374  0.00  0.00     0.244 S 
HETATM    2  O   UNK N   1      30.183  18.333   8.595  0.00  0.00    -0.206 OA
HETATM    3  O   UNK N   1      29.292  16.290   7.819  0.00  0.00    -0.206 OA
ENDROOT
BRANCH   1   4
HETATM    4  N   UNK N   1      29.455  18.256   6.031  0.00  0.00    -0.191 NA
HETATM    5  C   UNK N   1      27.981  18.251   6.213  0.00  0.00     0.186 C 
HETATM    6  C   UNK N   1      27.188  18.045   4.873  0.00  0.00     0.026 C 
HETATM    7  C   UNK N   1      25.702  17.884   5.110  0.00  0.00     0.029 C 
HETATM    8  S   UNK N   1      27.665  16.508   3.980  0.00  0.00    -0.156 SA
HETATM    9  C   UNK N   1      27.373  19.232   3.942  0.00  0.00     0.029 C 
HETATM   10  C   UNK N   1      29.430  16.428   4.401  0.00  0.00     0.090 C 
HETATM   11  C   UNK N   1      29.960  17.803   4.731  0.00  0.00     0.118 C 
BRANCH   5  12
HETATM   12  C   UNK N   1      27.605  19.522   6.989  0.00  0.00     0.261 C 
HETATM   13  O   UNK N   1      27.618  20.594   6.399  0.00  0.00    -0.270 OA
HETATM   14  N   UNK N   1      27.302  19.523   8.315  0.00  0.00    -0.236 N 
HETATM   15  H   UNK N   1      27.023  20.371   8.731  0.00  0.00     0.197 HD
BRANCH  14  16
HETATM   16  O   UNK N   1      27.365  18.426   9.082  0.00  0.00    -0.287 OA
HETATM   17  H   UNK N   1      27.863  17.617   9.278  0.00  0.00     0.244 HD
ENDBRANCH  14  16
ENDBRANCH   5  12
ENDBRANCH   1   4
BRANCH   1  18
HETATM   18  C   UNK N   1      31.894  16.713   7.176  0.00  0.00     0.074 A 
HETATM   19  C   UNK N   1      32.042  15.376   6.798  0.00  0.00     0.027 A 
HETATM   20  C   UNK N   1      33.302  14.886   6.443  0.00  0.00     0.038 A 
HETATM   21  C   UNK N   1      34.417  15.736   6.459  0.00  0.00     0.070 A 
HETATM   22  C   UNK N   1      34.274  17.061   6.883  0.00  0.00     0.038 A 
HETATM   23  C   UNK N   1      33.013  17.552   7.231  0.00  0.00     0.027 A 
BRANCH  21  24
HETATM   24  O   UNK N   1      35.606  15.308   5.995  0.00  0.00    -0.340 OA
BRANCH  24  25
HETATM   25  C   UNK N   1      36.174  14.171   6.524  0.00  0.00     0.269 C 
BRANCH  25  26
HETATM   26  C   UNK N   1      36.334  14.309   7.978  0.00  0.00    -0.078 C 
HETATM   27  C   UNK N   1      36.468  14.443   9.170  0.00  0.00    -0.079 C 
BRANCH  27  28
HETATM   28  C   UNK N   1      36.669  14.626  10.607  0.00  0.00     0.257 C 
BRANCH  28  29
HETATM   29  O   UNK N   1      37.091  15.930  10.842  0.00  0.00    -0.389 OA
HETATM   30  H   UNK N   1      37.116  16.880  10.642  0.00  0.00     0.210 HD
ENDBRANCH  28  29
ENDBRANCH  27  28
ENDBRANCH  25  26
ENDBRANCH  24  25
ENDBRANCH  21  24
ENDBRANCH   1  18
TORSDOF 9
ENDMDL
