MODEL 1
REMARK VINA RESULT:      -6.4      0.000      0.000
REMARK  16 active torsions:
REMARK  status: ('A' for Active; 'I' for Inactive)
REMARK    1  A    between atoms: C_3  and  C_4 
REMARK    2  A    between atoms: C_4  and  C_5 
REMARK    3  A    between atoms: C_5  and  C_6 
REMARK    4  A    between atoms: C_5  and  O_38 
REMARK    5  A    between atoms: C_6  and  C_7 
REMARK    6  A    between atoms: C_8  and  N_9 
REMARK       I    between atoms: N_9  and  C_10 
REMARK    7  A    between atoms: C_10  and  C_12 
REMARK    8  A    between atoms: C_12  and  C_13 
REMARK    9  A    between atoms: C_12  and  N_17 
REMARK       I    between atoms: N_17  and  C_18 
REMARK   10  A    between atoms: C_18  and  C_20 
REMARK   11  A    between atoms: C_21  and  C_22 
REMARK   12  A    between atoms: C_23  and  C_24 
REMARK   13  A    between atoms: C_25  and  C_26 
REMARK   14  A    between atoms: C_28  and  C_26 
REMARK   15  A    between atoms: C_31  and  O_35 
REMARK   16  A    between atoms: O_38  and  C_39 
REMARK       I    between atoms: C_39  and  N_41 
ROOT
HETATM    1  C   UNK N   1      20.118  14.768   2.766  0.00  0.00     0.184 C 
ENDROOT
BRANCH   1   2
HETATM    2  C   UNK N   1      20.286  15.973   3.657  0.00  0.00     0.245 C 
HETATM    3  N   UNK N   1      21.435  16.152   4.362  0.00  0.00    -0.336 N 
HETATM    4  H   UNK N   1      22.187  15.550   4.159  0.00  0.00     0.168 HD
HETATM    5  O   UNK N   1      19.329  16.714   3.818  0.00  0.00    -0.271 OA
BRANCH   3   6
HETATM    6  C   UNK N   1      21.642  17.141   5.376  0.00  0.00     0.087 C 
HETATM    7  C   UNK N   1      21.118  17.128   6.616  0.00  0.00    -0.007 C 
BRANCH   7   8
HETATM    8  C   UNK N   1      20.128  16.128   7.129  0.00  0.00     0.061 C 
BRANCH   8   9
HETATM    9  C   UNK N   1      20.025  16.185   8.643  0.00  0.00     0.140 C 
BRANCH   9  10
HETATM   10  C   UNK N   1      20.985  15.156   9.217  0.00  0.00     0.059 C 
BRANCH  10  11
HETATM   11  C   UNK N   1      20.241  14.030   9.864  0.00  0.00    -0.028 C 
HETATM   12  C   UNK N   1      20.863  12.982  10.412  0.00  0.00    -0.035 C 
HETATM   13  C   UNK N   1      22.352  12.852  10.440  0.00  0.00     0.036 C 
ENDBRANCH  10  11
ENDBRANCH   9  10
BRANCH   9  14
HETATM   14  O   UNK N   1      20.374  17.445   9.086  0.00  0.00    -0.298 OA
BRANCH  14  15
HETATM   15  C   UNK N   1      19.469  18.355   9.523  0.00  0.00     0.358 C 
HETATM   16  O   UNK N   1      19.838  19.412  10.025  0.00  0.00    -0.239 OA
HETATM   17  N   UNK N   1      18.156  18.089   9.435  0.00  0.00    -0.346 N 
HETATM   18  H   UNK N   1      17.722  17.824   8.591  0.00  0.00     0.161 HD
HETATM   19  H   UNK N   1      17.604  18.160  10.246  0.00  0.00     0.161 HD
ENDBRANCH  14  15
ENDBRANCH   9  14
ENDBRANCH   8   9
ENDBRANCH   7   8
ENDBRANCH   3   6
ENDBRANCH   1   2
BRANCH   1  20
HETATM   20  C   UNK N   1      20.361  15.034   1.265  0.00  0.00    -0.022 C 
HETATM   21  C   UNK N   1      20.476  16.525   1.014  0.00  0.00     0.017 C 
HETATM   22  C   UNK N   1      19.187  14.524   0.444  0.00  0.00     0.017 C 
HETATM   23  C   UNK N   1      21.633  14.365   0.775  0.00  0.00     0.017 C 
ENDBRANCH   1  20
BRANCH   1  24
HETATM   24  N   UNK N   1      18.886  14.046   3.021  0.00  0.00    -0.344 N 
HETATM   25  C   UNK N   1      18.854  12.710   3.290  0.00  0.00     0.241 C 
HETATM   26  O   UNK N   1      17.788  12.184   3.563  0.00  0.00    -0.269 OA
HETATM   27  H   UNK N   1      18.036  14.542   2.998  0.00  0.00     0.163 HD
BRANCH  25  28
HETATM   28  C   UNK N   1      20.091  11.879   3.323  0.00  0.00     0.074 C 
HETATM   29  C   UNK N   1      20.659  11.416   4.449  0.00  0.00     0.005 C 
BRANCH  29  30
HETATM   30  C   UNK N   1      20.237  11.907   5.771  0.00  0.00     0.001 C 
HETATM   31  C   UNK N   1      21.072  12.516   6.627  0.00  0.00     0.006 C 
BRANCH  31  32
HETATM   32  C   UNK N   1      22.549  12.538   6.527  0.00  0.00    -0.065 C 
HETATM   33  C   UNK N   1      23.141  13.737   6.460  0.00  0.00    -0.013 C 
HETATM   34  C   UNK N   1      23.360  11.293   6.763  0.00  0.00     0.048 C 
BRANCH  33  35
HETATM   35  C   UNK N   1      24.614  13.971   6.691  0.00  0.00     0.034 C 
HETATM   36  C   UNK N   1      25.028  13.747   8.139  0.00  0.00     0.017 C 
BRANCH  35  37
HETATM   37  C   UNK N   1      24.949  15.393   6.201  0.00  0.00     0.143 C 
HETATM   38  C   UNK N   1      26.445  15.717   6.319  0.00  0.00     0.063 C 
HETATM   39  C   UNK N   1      27.239  15.104   5.190  0.00  0.00     0.019 C 
HETATM   40  C   UNK N   1      26.658  14.786   4.015  0.00  0.00     0.140 C 
HETATM   41  C   UNK N   1      25.215  15.048   3.850  0.00  0.00     0.316 C 
HETATM   42  O   UNK N   1      24.660  14.835   2.783  0.00  0.00    -0.257 OA
HETATM   43  O   UNK N   1      24.512  15.551   4.892  0.00  0.00    -0.310 OA
BRANCH  40  44
HETATM   44  O   UNK N   1      27.368  14.263   2.983  0.00  0.00    -0.350 OA
HETATM   45  C   UNK N   1      27.516  12.910   2.775  0.00  0.00     0.210 C 
ENDBRANCH  40  44
ENDBRANCH  35  37
ENDBRANCH  33  35
ENDBRANCH  31  32
ENDBRANCH  29  30
ENDBRANCH  25  28
ENDBRANCH   1  24
TORSDOF 16
ENDMDL
MODEL 2
REMARK VINA RESULT:      -6.4      4.600      7.131
REMARK  16 active torsions:
REMARK  status: ('A' for Active; 'I' for Inactive)
REMARK    1  A    between atoms: C_3  and  C_4 
REMARK    2  A    between atoms: C_4  and  C_5 
REMARK    3  A    between atoms: C_5  and  C_6 
REMARK    4  A    between atoms: C_5  and  O_38 
REMARK    5  A    between atoms: C_6  and  C_7 
REMARK    6  A    between atoms: C_8  and  N_9 
REMARK       I    between atoms: N_9  and  C_10 
REMARK    7  A    between atoms: C_10  and  C_12 
REMARK    8  A    between atoms: C_12  and  C_13 
REMARK    9  A    between atoms: C_12  and  N_17 
REMARK       I    between atoms: N_17  and  C_18 
REMARK   10  A    between atoms: C_18  and  C_20 
REMARK   11  A    between atoms: C_21  and  C_22 
REMARK   12  A    between atoms: C_23  and  C_24 
REMARK   13  A    between atoms: C_25  and  C_26 
REMARK   14  A    between atoms: C_28  and  C_26 
REMARK   15  A    between atoms: C_31  and  O_35 
REMARK   16  A    between atoms: O_38  and  C_39 
REMARK       I    between atoms: C_39  and  N_41 
ROOT
HETATM    1  C   UNK N   1      25.520  18.235   4.393  0.00  0.00     0.184 C 
ENDROOT
BRANCH   1   2
HETATM    2  C   UNK N   1      24.100  18.690   4.617  0.00  0.00     0.245 C 
HETATM    3  N   UNK N   1      23.326  18.087   5.559  0.00  0.00    -0.336 N 
HETATM    4  H   UNK N   1      23.768  17.453   6.169  0.00  0.00     0.168 HD
HETATM    5  O   UNK N   1      23.631  19.525   3.861  0.00  0.00    -0.271 OA
BRANCH   3   6
HETATM    6  C   UNK N   1      21.921  18.296   5.737  0.00  0.00     0.087 C 
HETATM    7  C   UNK N   1      21.102  17.560   6.511  0.00  0.00    -0.007 C 
BRANCH   7   8
HETATM    8  C   UNK N   1      21.490  16.313   7.245  0.00  0.00     0.061 C 
BRANCH   8   9
HETATM    9  C   UNK N   1      20.385  15.863   8.184  0.00  0.00     0.140 C 
BRANCH   9  10
HETATM   10  C   UNK N   1      20.996  14.927   9.213  0.00  0.00     0.059 C 
BRANCH  10  11
HETATM   11  C   UNK N   1      22.081  14.096   8.605  0.00  0.00    -0.028 C 
HETATM   12  C   UNK N   1      22.634  13.060   9.244  0.00  0.00    -0.035 C 
HETATM   13  C   UNK N   1      22.206  12.634  10.612  0.00  0.00     0.036 C 
ENDBRANCH  10  11
ENDBRANCH   9  10
BRANCH   9  14
HETATM   14  O   UNK N   1      19.838  16.960   8.819  0.00  0.00    -0.298 OA
BRANCH  14  15
HETATM   15  C   UNK N   1      18.503  17.171   8.921  0.00  0.00     0.358 C 
HETATM   16  O   UNK N   1      17.719  16.584   8.181  0.00  0.00    -0.239 OA
HETATM   17  N   UNK N   1      18.031  18.052   9.817  0.00  0.00    -0.346 N 
HETATM   18  H   UNK N   1      18.260  18.011  10.775  0.00  0.00     0.161 HD
HETATM   19  H   UNK N   1      17.432  18.768   9.506  0.00  0.00     0.161 HD
ENDBRANCH  14  15
ENDBRANCH   9  14
ENDBRANCH   8   9
ENDBRANCH   7   8
ENDBRANCH   3   6
ENDBRANCH   1   2
BRANCH   1  20
HETATM   20  C   UNK N   1      26.596  19.306   4.672  0.00  0.00    -0.022 C 
HETATM   21  C   UNK N   1      26.834  20.140   3.428  0.00  0.00     0.017 C 
HETATM   22  C   UNK N   1      27.915  18.644   5.036  0.00  0.00     0.017 C 
HETATM   23  C   UNK N   1      26.182  20.235   5.800  0.00  0.00     0.017 C 
ENDBRANCH   1  20
BRANCH   1  24
HETATM   24  N   UNK N   1      25.703  17.568   3.117  0.00  0.00    -0.344 N 
HETATM   25  C   UNK N   1      26.267  16.333   3.003  0.00  0.00     0.241 C 
HETATM   26  O   UNK N   1      26.326  15.806   1.904  0.00  0.00    -0.269 OA
HETATM   27  H   UNK N   1      25.407  18.028   2.299  0.00  0.00     0.163 HD
BRANCH  25  28
HETATM   28  C   UNK N   1      26.763  15.575   4.187  0.00  0.00     0.074 C 
HETATM   29  C   UNK N   1      28.052  15.256   4.393  0.00  0.00     0.005 C 
BRANCH  29  30
HETATM   30  C   UNK N   1      29.055  15.420   3.328  0.00  0.00     0.001 C 
HETATM   31  C   UNK N   1      30.376  15.326   3.545  0.00  0.00     0.006 C 
BRANCH  31  32
HETATM   32  C   UNK N   1      31.038  15.337   4.870  0.00  0.00    -0.065 C 
HETATM   33  C   UNK N   1      31.144  16.518   5.492  0.00  0.00    -0.013 C 
HETATM   34  C   UNK N   1      31.331  14.055   5.599  0.00  0.00     0.048 C 
BRANCH  33  35
HETATM   35  C   UNK N   1      31.471  16.680   6.957  0.00  0.00     0.034 C 
HETATM   36  C   UNK N   1      30.261  17.076   7.792  0.00  0.00     0.017 C 
BRANCH  35  37
HETATM   37  C   UNK N   1      32.621  17.699   7.075  0.00  0.00     0.143 C 
HETATM   38  C   UNK N   1      33.072  17.908   8.527  0.00  0.00     0.063 C 
HETATM   39  C   UNK N   1      33.969  16.790   9.000  0.00  0.00     0.019 C 
HETATM   40  C   UNK N   1      34.667  16.033   8.128  0.00  0.00     0.140 C 
HETATM   41  C   UNK N   1      34.534  16.319   6.686  0.00  0.00     0.316 C 
HETATM   42  O   UNK N   1      35.195  15.702   5.864  0.00  0.00    -0.257 OA
HETATM   43  O   UNK N   1      33.686  17.293   6.281  0.00  0.00    -0.310 OA
BRANCH  40  44
HETATM   44  O   UNK N   1      35.500  15.045   8.543  0.00  0.00    -0.350 OA
HETATM   45  C   UNK N   1      35.092  13.746   8.743  0.00  0.00     0.210 C 
ENDBRANCH  40  44
ENDBRANCH  35  37
ENDBRANCH  33  35
ENDBRANCH  31  32
ENDBRANCH  29  30
ENDBRANCH  25  28
ENDBRANCH   1  24
TORSDOF 16
ENDMDL
MODEL 3
REMARK VINA RESULT:      -6.3      2.894      6.419
REMARK  16 active torsions:
REMARK  status: ('A' for Active; 'I' for Inactive)
REMARK    1  A    between atoms: C_3  and  C_4 
REMARK    2  A    between atoms: C_4  and  C_5 
REMARK    3  A    between atoms: C_5  and  C_6 
REMARK    4  A    between atoms: C_5  and  O_38 
REMARK    5  A    between atoms: C_6  and  C_7 
REMARK    6  A    between atoms: C_8  and  N_9 
REMARK       I    between atoms: N_9  and  C_10 
REMARK    7  A    between atoms: C_10  and  C_12 
REMARK    8  A    between atoms: C_12  and  C_13 
REMARK    9  A    between atoms: C_12  and  N_17 
REMARK       I    between atoms: N_17  and  C_18 
REMARK   10  A    between atoms: C_18  and  C_20 
REMARK   11  A    between atoms: C_21  and  C_22 
REMARK   12  A    between atoms: C_23  and  C_24 
REMARK   13  A    between atoms: C_25  and  C_26 
REMARK   14  A    between atoms: C_28  and  C_26 
REMARK   15  A    between atoms: C_31  and  O_35 
REMARK   16  A    between atoms: O_38  and  C_39 
REMARK       I    between atoms: C_39  and  N_41 
ROOT
HETATM    1  C   UNK N   1      21.512  14.437   1.945  0.00  0.00     0.184 C 
ENDROOT
BRANCH   1   2
HETATM    2  C   UNK N   1      22.936  14.424   1.450  0.00  0.00     0.245 C 
HETATM    3  N   UNK N   1      23.952  14.803   2.272  0.00  0.00    -0.336 N 
HETATM    4  H   UNK N   1      23.736  14.945   3.222  0.00  0.00     0.168 HD
HETATM    5  O   UNK N   1      23.140  14.181   0.272  0.00  0.00    -0.271 OA
BRANCH   3   6
HETATM    6  C   UNK N   1      25.309  15.014   1.871  0.00  0.00     0.087 C 
HETATM    7  C   UNK N   1      26.314  15.435   2.662  0.00  0.00    -0.007 C 
BRANCH   7   8
HETATM    8  C   UNK N   1      26.171  15.870   4.088  0.00  0.00     0.061 C 
BRANCH   8   9
HETATM    9  C   UNK N   1      26.878  17.192   4.332  0.00  0.00     0.140 C 
BRANCH   9  10
HETATM   10  C   UNK N   1      26.130  18.272   3.571  0.00  0.00     0.059 C 
BRANCH  10  11
HETATM   11  C   UNK N   1      24.741  18.439   4.104  0.00  0.00    -0.028 C 
HETATM   12  C   UNK N   1      23.968  19.480   3.776  0.00  0.00    -0.035 C 
HETATM   13  C   UNK N   1      24.417  20.555   2.839  0.00  0.00     0.036 C 
ENDBRANCH  10  11
ENDBRANCH   9  10
BRANCH   9  14
HETATM   14  O   UNK N   1      26.870  17.481   5.682  0.00  0.00    -0.298 OA
BRANCH  14  15
HETATM   15  C   UNK N   1      27.813  18.248   6.283  0.00  0.00     0.358 C 
HETATM   16  O   UNK N   1      29.006  17.990   6.151  0.00  0.00    -0.239 OA
HETATM   17  N   UNK N   1      27.443  19.281   7.056  0.00  0.00    -0.346 N 
HETATM   18  H   UNK N   1      26.837  19.991   6.740  0.00  0.00     0.161 HD
HETATM   19  H   UNK N   1      27.790  19.332   7.975  0.00  0.00     0.161 HD
ENDBRANCH  14  15
ENDBRANCH   9  14
ENDBRANCH   8   9
ENDBRANCH   7   8
ENDBRANCH   3   6
ENDBRANCH   1   2
BRANCH   1  20
HETATM   20  C   UNK N   1      20.877  13.042   2.128  0.00  0.00    -0.022 C 
HETATM   21  C   UNK N   1      21.791  12.161   2.958  0.00  0.00     0.017 C 
HETATM   22  C   UNK N   1      20.696  12.365   0.779  0.00  0.00     0.017 C 
HETATM   23  C   UNK N   1      19.530  13.125   2.823  0.00  0.00     0.017 C 
ENDBRANCH   1  20
BRANCH   1  24
HETATM   24  N   UNK N   1      20.665  15.350   1.200  0.00  0.00    -0.344 N 
HETATM   25  C   UNK N   1      20.505  16.659   1.546  0.00  0.00     0.241 C 
HETATM   26  O   UNK N   1      19.831  17.384   0.833  0.00  0.00    -0.269 OA
HETATM   27  H   UNK N   1      20.185  15.010   0.411  0.00  0.00     0.163 HD
BRANCH  25  28
HETATM   28  C   UNK N   1      21.177  17.251   2.737  0.00  0.00     0.074 C 
HETATM   29  C   UNK N   1      20.719  17.140   3.995  0.00  0.00     0.005 C 
BRANCH  29  30
HETATM   30  C   UNK N   1      19.366  16.626   4.269  0.00  0.00     0.001 C 
HETATM   31  C   UNK N   1      19.055  15.936   5.377  0.00  0.00     0.006 C 
BRANCH  31  32
HETATM   32  C   UNK N   1      20.024  15.345   6.329  0.00  0.00    -0.065 C 
HETATM   33  C   UNK N   1      20.814  14.366   5.870  0.00  0.00    -0.013 C 
HETATM   34  C   UNK N   1      20.295  15.992   7.659  0.00  0.00     0.048 C 
BRANCH  33  35
HETATM   35  C   UNK N   1      22.062  13.885   6.568  0.00  0.00     0.034 C 
HETATM   36  C   UNK N   1      23.321  14.087   5.735  0.00  0.00     0.017 C 
BRANCH  35  37
HETATM   37  C   UNK N   1      21.849  12.409   6.954  0.00  0.00     0.143 C 
HETATM   38  C   UNK N   1      23.165  11.694   7.291  0.00  0.00     0.063 C 
HETATM   39  C   UNK N   1      23.639  12.026   8.686  0.00  0.00     0.019 C 
HETATM   40  C   UNK N   1      22.781  12.448   9.637  0.00  0.00     0.140 C 
HETATM   41  C   UNK N   1      21.354  12.584   9.287  0.00  0.00     0.316 C 
HETATM   42  O   UNK N   1      20.532  12.901  10.133  0.00  0.00    -0.257 OA
HETATM   43  O   UNK N   1      20.959  12.329   8.018  0.00  0.00    -0.310 OA
BRANCH  40  44
HETATM   44  O   UNK N   1      23.192  12.720  10.902  0.00  0.00    -0.350 OA
HETATM   45  C   UNK N   1      24.224  12.053  11.522  0.00  0.00     0.210 C 
ENDBRANCH  40  44
ENDBRANCH  35  37
ENDBRANCH  33  35
ENDBRANCH  31  32
ENDBRANCH  29  30
ENDBRANCH  25  28
ENDBRANCH   1  24
TORSDOF 16
ENDMDL
MODEL 4
REMARK VINA RESULT:      -6.3      4.877      8.164
REMARK  16 active torsions:
REMARK  status: ('A' for Active; 'I' for Inactive)
REMARK    1  A    between atoms: C_3  and  C_4 
REMARK    2  A    between atoms: C_4  and  C_5 
REMARK    3  A    between atoms: C_5  and  C_6 
REMARK    4  A    between atoms: C_5  and  O_38 
REMARK    5  A    between atoms: C_6  and  C_7 
REMARK    6  A    between atoms: C_8  and  N_9 
REMARK       I    between atoms: N_9  and  C_10 
REMARK    7  A    between atoms: C_10  and  C_12 
REMARK    8  A    between atoms: C_12  and  C_13 
REMARK    9  A    between atoms: C_12  and  N_17 
REMARK       I    between atoms: N_17  and  C_18 
REMARK   10  A    between atoms: C_18  and  C_20 
REMARK   11  A    between atoms: C_21  and  C_22 
REMARK   12  A    between atoms: C_23  and  C_24 
REMARK   13  A    between atoms: C_25  and  C_26 
REMARK   14  A    between atoms: C_28  and  C_26 
REMARK   15  A    between atoms: C_31  and  O_35 
REMARK   16  A    between atoms: O_38  and  C_39 
REMARK       I    between atoms: C_39  and  N_41 
ROOT
HETATM    1  C   UNK N   1      25.506  18.368   4.236  0.00  0.00     0.184 C 
ENDROOT
BRANCH   1   2
HETATM    2  C   UNK N   1      24.061  18.510   4.645  0.00  0.00     0.245 C 
HETATM    3  N   UNK N   1      23.571  17.796   5.694  0.00  0.00    -0.336 N 
HETATM    4  H   UNK N   1      24.219  17.305   6.249  0.00  0.00     0.168 HD
HETATM    5  O   UNK N   1      23.323  19.184   3.945  0.00  0.00    -0.271 OA
BRANCH   3   6
HETATM    6  C   UNK N   1      22.191  17.699   6.059  0.00  0.00     0.087 C 
HETATM    7  C   UNK N   1      21.289  16.850   5.531  0.00  0.00    -0.007 C 
BRANCH   7   8
HETATM    8  C   UNK N   1      21.538  15.924   4.381  0.00  0.00     0.061 C 
BRANCH   8   9
HETATM    9  C   UNK N   1      21.075  16.538   3.071  0.00  0.00     0.140 C 
BRANCH   9  10
HETATM   10  C   UNK N   1      20.234  15.505   2.340  0.00  0.00     0.059 C 
BRANCH  10  11
HETATM   11  C   UNK N   1      21.086  14.644   1.462  0.00  0.00    -0.028 C 
HETATM   12  C   UNK N   1      20.569  13.712   0.654  0.00  0.00    -0.035 C 
HETATM   13  C   UNK N   1      19.100  13.462   0.548  0.00  0.00     0.036 C 
ENDBRANCH  10  11
ENDBRANCH   9  10
BRANCH   9  14
HETATM   14  O   UNK N   1      20.314  17.661   3.327  0.00  0.00    -0.298 OA
BRANCH  14  15
HETATM   15  C   UNK N   1      19.843  18.477   2.352  0.00  0.00     0.358 C 
HETATM   16  O   UNK N   1      20.611  19.016   1.562  0.00  0.00    -0.239 OA
HETATM   17  N   UNK N   1      18.526  18.725   2.267  0.00  0.00    -0.346 N 
HETATM   18  H   UNK N   1      17.852  18.008   2.216  0.00  0.00     0.161 HD
HETATM   19  H   UNK N   1      18.221  19.661   2.255  0.00  0.00     0.161 HD
ENDBRANCH  14  15
ENDBRANCH   9  14
ENDBRANCH   8   9
ENDBRANCH   7   8
ENDBRANCH   3   6
ENDBRANCH   1   2
BRANCH   1  20
HETATM   20  C   UNK N   1      26.314  19.683   4.249  0.00  0.00    -0.022 C 
HETATM   21  C   UNK N   1      26.046  20.471   2.982  0.00  0.00     0.017 C 
HETATM   22  C   UNK N   1      27.804  19.384   4.292  0.00  0.00     0.017 C 
HETATM   23  C   UNK N   1      25.952  20.553   5.440  0.00  0.00     0.017 C 
ENDBRANCH   1  20
BRANCH   1  24
HETATM   24  N   UNK N   1      25.673  17.613   3.009  0.00  0.00    -0.344 N 
HETATM   25  C   UNK N   1      26.341  16.427   2.956  0.00  0.00     0.241 C 
HETATM   26  O   UNK N   1      26.383  15.814   1.901  0.00  0.00    -0.269 OA
HETATM   27  H   UNK N   1      25.287  17.974   2.178  0.00  0.00     0.163 HD
BRANCH  25  28
HETATM   28  C   UNK N   1      26.975  15.819   4.160  0.00  0.00     0.074 C 
HETATM   29  C   UNK N   1      28.300  15.780   4.378  0.00  0.00     0.005 C 
BRANCH  29  30
HETATM   30  C   UNK N   1      29.255  16.121   3.310  0.00  0.00     0.001 C 
HETATM   31  C   UNK N   1      30.585  16.036   3.464  0.00  0.00     0.006 C 
BRANCH  31  32
HETATM   32  C   UNK N   1      31.300  15.880   4.752  0.00  0.00    -0.065 C 
HETATM   33  C   UNK N   1      31.480  16.984   5.489  0.00  0.00    -0.013 C 
HETATM   34  C   UNK N   1      31.568  14.518   5.328  0.00  0.00     0.048 C 
BRANCH  33  35
HETATM   35  C   UNK N   1      31.872  16.976   6.947  0.00  0.00     0.034 C 
HETATM   36  C   UNK N   1      30.777  17.518   7.856  0.00  0.00     0.017 C 
BRANCH  35  37
HETATM   37  C   UNK N   1      33.189  17.762   7.086  0.00  0.00     0.143 C 
HETATM   38  C   UNK N   1      33.714  17.775   8.529  0.00  0.00     0.063 C 
HETATM   39  C   UNK N   1      34.409  16.482   8.882  0.00  0.00     0.019 C 
HETATM   40  C   UNK N   1      34.932  15.683   7.930  0.00  0.00     0.140 C 
HETATM   41  C   UNK N   1      34.810  16.098   6.519  0.00  0.00     0.316 C 
HETATM   42  O   UNK N   1      35.324  15.439   5.628  0.00  0.00    -0.257 OA
HETATM   43  O   UNK N   1      34.139  17.236   6.221  0.00  0.00    -0.310 OA
BRANCH  40  44
HETATM   44  O   UNK N   1      35.585  14.533   8.238  0.00  0.00    -0.350 OA
HETATM   45  C   UNK N   1      35.476  13.906   9.459  0.00  0.00     0.210 C 
ENDBRANCH  40  44
ENDBRANCH  35  37
ENDBRANCH  33  35
ENDBRANCH  31  32
ENDBRANCH  29  30
ENDBRANCH  25  28
ENDBRANCH   1  24
TORSDOF 16
ENDMDL
MODEL 5
REMARK VINA RESULT:      -6.3      2.696      5.999
REMARK  16 active torsions:
REMARK  status: ('A' for Active; 'I' for Inactive)
REMARK    1  A    between atoms: C_3  and  C_4 
REMARK    2  A    between atoms: C_4  and  C_5 
REMARK    3  A    between atoms: C_5  and  C_6 
REMARK    4  A    between atoms: C_5  and  O_38 
REMARK    5  A    between atoms: C_6  and  C_7 
REMARK    6  A    between atoms: C_8  and  N_9 
REMARK       I    between atoms: N_9  and  C_10 
REMARK    7  A    between atoms: C_10  and  C_12 
REMARK    8  A    between atoms: C_12  and  C_13 
REMARK    9  A    between atoms: C_12  and  N_17 
REMARK       I    between atoms: N_17  and  C_18 
REMARK   10  A    between atoms: C_18  and  C_20 
REMARK   11  A    between atoms: C_21  and  C_22 
REMARK   12  A    between atoms: C_23  and  C_24 
REMARK   13  A    between atoms: C_25  and  C_26 
REMARK   14  A    between atoms: C_28  and  C_26 
REMARK   15  A    between atoms: C_31  and  O_35 
REMARK   16  A    between atoms: O_38  and  C_39 
REMARK       I    between atoms: C_39  and  N_41 
ROOT
HETATM    1  C   UNK N   1      21.558  15.016   2.757  0.00  0.00     0.184 C 
ENDROOT
BRANCH   1   2
HETATM    2  C   UNK N   1      22.871  14.685   2.094  0.00  0.00     0.245 C 
HETATM    3  N   UNK N   1      23.961  14.373   2.846  0.00  0.00    -0.336 N 
HETATM    4  H   UNK N   1      23.820  14.236   3.811  0.00  0.00     0.168 HD
HETATM    5  O   UNK N   1      22.961  14.819   0.884  0.00  0.00    -0.271 OA
BRANCH   3   6
HETATM    6  C   UNK N   1      25.296  14.226   2.352  0.00  0.00     0.087 C 
HETATM    7  C   UNK N   1      26.242  15.184   2.327  0.00  0.00    -0.007 C 
BRANCH   7   8
HETATM    8  C   UNK N   1      26.036  16.617   2.711  0.00  0.00     0.061 C 
BRANCH   8   9
HETATM    9  C   UNK N   1      26.759  16.948   4.005  0.00  0.00     0.140 C 
BRANCH   9  10
HETATM   10  C   UNK N   1      26.198  18.256   4.535  0.00  0.00     0.059 C 
BRANCH  10  11
HETATM   11  C   UNK N   1      26.885  19.428   3.906  0.00  0.00    -0.028 C 
HETATM   12  C   UNK N   1      26.223  20.360   3.214  0.00  0.00    -0.035 C 
HETATM   13  C   UNK N   1      24.741  20.321   3.021  0.00  0.00     0.036 C 
ENDBRANCH  10  11
ENDBRANCH   9  10
BRANCH   9  14
HETATM   14  O   UNK N   1      26.545  15.943   4.927  0.00  0.00    -0.298 OA
BRANCH  14  15
HETATM   15  C   UNK N   1      26.970  16.011   6.213  0.00  0.00     0.358 C 
HETATM   16  O   UNK N   1      28.148  16.241   6.470  0.00  0.00    -0.239 OA
HETATM   17  N   UNK N   1      26.105  15.796   7.217  0.00  0.00    -0.346 N 
HETATM   18  H   UNK N   1      25.256  16.289   7.302  0.00  0.00     0.161 HD
HETATM   19  H   UNK N   1      26.326  15.118   7.895  0.00  0.00     0.161 HD
ENDBRANCH  14  15
ENDBRANCH   9  14
ENDBRANCH   8   9
ENDBRANCH   7   8
ENDBRANCH   3   6
ENDBRANCH   1   2
BRANCH   1  20
HETATM   20  C   UNK N   1      20.414  14.023   2.459  0.00  0.00    -0.022 C 
HETATM   21  C   UNK N   1      19.238  14.295   3.377  0.00  0.00     0.017 C 
HETATM   22  C   UNK N   1      20.875  12.598   2.719  0.00  0.00     0.017 C 
HETATM   23  C   UNK N   1      19.936  14.132   1.022  0.00  0.00     0.017 C 
ENDBRANCH   1  20
BRANCH   1  24
HETATM   24  N   UNK N   1      21.167  16.401   2.574  0.00  0.00    -0.344 N 
HETATM   25  C   UNK N   1      21.682  17.420   3.318  0.00  0.00     0.241 C 
HETATM   26  O   UNK N   1      21.357  18.567   3.061  0.00  0.00    -0.269 OA
HETATM   27  H   UNK N   1      20.500  16.614   1.881  0.00  0.00     0.163 HD
BRANCH  25  28
HETATM   28  C   UNK N   1      22.679  17.185   4.401  0.00  0.00     0.074 C 
HETATM   29  C   UNK N   1      22.357  16.911   5.676  0.00  0.00     0.005 C 
BRANCH  29  30
HETATM   30  C   UNK N   1      20.976  17.068   6.162  0.00  0.00     0.001 C 
HETATM   31  C   UNK N   1      20.378  16.178   6.968  0.00  0.00     0.006 C 
BRANCH  31  32
HETATM   32  C   UNK N   1      20.864  14.809   7.258  0.00  0.00    -0.065 C 
HETATM   33  C   UNK N   1      21.498  14.619   8.422  0.00  0.00    -0.013 C 
HETATM   34  C   UNK N   1      20.431  13.640   6.418  0.00  0.00     0.048 C 
BRANCH  33  35
HETATM   35  C   UNK N   1      21.760  13.264   9.034  0.00  0.00     0.034 C 
HETATM   36  C   UNK N   1      21.018  13.057  10.348  0.00  0.00     0.017 C 
BRANCH  35  37
HETATM   37  C   UNK N   1      23.284  13.103   9.192  0.00  0.00     0.143 C 
HETATM   38  C   UNK N   1      23.701  11.638   9.384  0.00  0.00     0.063 C 
HETATM   39  C   UNK N   1      23.724  10.888   8.074  0.00  0.00     0.019 C 
HETATM   40  C   UNK N   1      23.866  11.533   6.898  0.00  0.00     0.140 C 
HETATM   41  C   UNK N   1      24.000  13.003   6.914  0.00  0.00     0.316 C 
HETATM   42  O   UNK N   1      24.195  13.623   5.879  0.00  0.00    -0.257 OA
HETATM   43  O   UNK N   1      23.927  13.660   8.095  0.00  0.00    -0.310 OA
BRANCH  40  44
HETATM   44  O   UNK N   1      23.918  10.866   5.716  0.00  0.00    -0.350 OA
HETATM   45  C   UNK N   1      24.991  10.095   5.330  0.00  0.00     0.210 C 
ENDBRANCH  40  44
ENDBRANCH  35  37
ENDBRANCH  33  35
ENDBRANCH  31  32
ENDBRANCH  29  30
ENDBRANCH  25  28
ENDBRANCH   1  24
TORSDOF 16
ENDMDL
MODEL 6
REMARK VINA RESULT:      -6.2      3.317      5.324
REMARK  16 active torsions:
REMARK  status: ('A' for Active; 'I' for Inactive)
REMARK    1  A    between atoms: C_3  and  C_4 
REMARK    2  A    between atoms: C_4  and  C_5 
REMARK    3  A    between atoms: C_5  and  C_6 
REMARK    4  A    between atoms: C_5  and  O_38 
REMARK    5  A    between atoms: C_6  and  C_7 
REMARK    6  A    between atoms: C_8  and  N_9 
REMARK       I    between atoms: N_9  and  C_10 
REMARK    7  A    between atoms: C_10  and  C_12 
REMARK    8  A    between atoms: C_12  and  C_13 
REMARK    9  A    between atoms: C_12  and  N_17 
REMARK       I    between atoms: N_17  and  C_18 
REMARK   10  A    between atoms: C_18  and  C_20 
REMARK   11  A    between atoms: C_21  and  C_22 
REMARK   12  A    between atoms: C_23  and  C_24 
REMARK   13  A    between atoms: C_25  and  C_26 
REMARK   14  A    between atoms: C_28  and  C_26 
REMARK   15  A    between atoms: C_31  and  O_35 
REMARK   16  A    between atoms: O_38  and  C_39 
REMARK       I    between atoms: C_39  and  N_41 
ROOT
HETATM    1  C   UNK N   1      21.571  15.888   5.276  0.00  0.00     0.184 C 
ENDROOT
BRANCH   1   2
HETATM    2  C   UNK N   1      20.603  15.602   6.396  0.00  0.00     0.245 C 
HETATM    3  N   UNK N   1      21.061  15.345   7.651  0.00  0.00    -0.336 N 
HETATM    4  H   UNK N   1      22.020  15.491   7.820  0.00  0.00     0.168 HD
HETATM    5  O   UNK N   1      19.418  15.493   6.126  0.00  0.00    -0.271 OA
BRANCH   3   6
HETATM    6  C   UNK N   1      20.266  14.879   8.745  0.00  0.00     0.087 C 
HETATM    7  C   UNK N   1      20.699  14.136   9.781  0.00  0.00    -0.007 C 
BRANCH   7   8
HETATM    8  C   UNK N   1      22.076  13.565   9.922  0.00  0.00     0.061 C 
BRANCH   8   9
HETATM    9  C   UNK N   1      22.104  12.097   9.531  0.00  0.00     0.140 C 
BRANCH   9  10
HETATM   10  C   UNK N   1      22.306  12.016   8.027  0.00  0.00     0.059 C 
BRANCH  10  11
HETATM   11  C   UNK N   1      23.715  11.640   7.694  0.00  0.00    -0.028 C 
HETATM   12  C   UNK N   1      24.641  12.547   7.366  0.00  0.00    -0.035 C 
HETATM   13  C   UNK N   1      24.353  14.013   7.320  0.00  0.00     0.036 C 
ENDBRANCH  10  11
ENDBRANCH   9  10
BRANCH   9  14
HETATM   14  O   UNK N   1      23.147  11.464  10.175  0.00  0.00    -0.298 OA
BRANCH  14  15
HETATM   15  C   UNK N   1      23.731  11.948  11.299  0.00  0.00     0.358 C 
HETATM   16  O   UNK N   1      23.143  11.908  12.375  0.00  0.00    -0.239 OA
HETATM   17  N   UNK N   1      24.950  12.506  11.233  0.00  0.00    -0.346 N 
HETATM   18  H   UNK N   1      25.725  12.045  10.836  0.00  0.00     0.161 HD
HETATM   19  H   UNK N   1      25.076  13.413  11.595  0.00  0.00     0.161 HD
ENDBRANCH  14  15
ENDBRANCH   9  14
ENDBRANCH   8   9
ENDBRANCH   7   8
ENDBRANCH   3   6
ENDBRANCH   1   2
BRANCH   1  20
HETATM   20  C   UNK N   1      22.021  17.361   5.167  0.00  0.00    -0.022 C 
HETATM   21  C   UNK N   1      21.359  18.186   6.254  0.00  0.00     0.017 C 
HETATM   22  C   UNK N   1      21.594  17.943   3.829  0.00  0.00     0.017 C 
HETATM   23  C   UNK N   1      23.526  17.500   5.309  0.00  0.00     0.017 C 
ENDBRANCH   1  20
BRANCH   1  24
HETATM   24  N   UNK N   1      21.144  15.332   4.006  0.00  0.00    -0.344 N 
HETATM   25  C   UNK N   1      21.813  14.325   3.376  0.00  0.00     0.241 C 
HETATM   26  O   UNK N   1      21.356  13.861   2.345  0.00  0.00    -0.269 OA
HETATM   27  H   UNK N   1      20.335  15.698   3.580  0.00  0.00     0.163 HD
BRANCH  25  28
HETATM   28  C   UNK N   1      23.057  13.728   3.938  0.00  0.00     0.074 C 
HETATM   29  C   UNK N   1      24.296  14.178   3.675  0.00  0.00     0.005 C 
BRANCH  29  30
HETATM   30  C   UNK N   1      24.537  15.156   2.601  0.00  0.00     0.001 C 
HETATM   31  C   UNK N   1      25.732  15.726   2.385  0.00  0.00     0.006 C 
BRANCH  31  32
HETATM   32  C   UNK N   1      26.884  15.701   3.315  0.00  0.00    -0.065 C 
HETATM   33  C   UNK N   1      26.879  16.587   4.319  0.00  0.00    -0.013 C 
HETATM   34  C   UNK N   1      27.871  14.567   3.295  0.00  0.00     0.048 C 
BRANCH  33  35
HETATM   35  C   UNK N   1      27.769  16.497   5.535  0.00  0.00     0.034 C 
HETATM   36  C   UNK N   1      27.007  16.121   6.799  0.00  0.00     0.017 C 
BRANCH  35  37
HETATM   37  C   UNK N   1      28.510  17.840   5.679  0.00  0.00     0.143 C 
HETATM   38  C   UNK N   1      29.149  18.012   7.064  0.00  0.00     0.063 C 
HETATM   39  C   UNK N   1      30.445  17.245   7.179  0.00  0.00     0.019 C 
HETATM   40  C   UNK N   1      31.163  16.912   6.087  0.00  0.00     0.140 C 
HETATM   41  C   UNK N   1      30.653  17.313   4.761  0.00  0.00     0.316 C 
HETATM   42  O   UNK N   1      31.301  17.089   3.750  0.00  0.00    -0.257 OA
HETATM   43  O   UNK N   1      29.465  17.955   4.678  0.00  0.00    -0.310 OA
BRANCH  40  44
HETATM   44  O   UNK N   1      32.345  16.250   6.180  0.00  0.00    -0.350 OA
HETATM   45  C   UNK N   1      33.240  16.443   7.208  0.00  0.00     0.210 C 
ENDBRANCH  40  44
ENDBRANCH  35  37
ENDBRANCH  33  35
ENDBRANCH  31  32
ENDBRANCH  29  30
ENDBRANCH  25  28
ENDBRANCH   1  24
TORSDOF 16
ENDMDL
MODEL 7
REMARK VINA RESULT:      -6.2     14.646     17.165
REMARK  16 active torsions:
REMARK  status: ('A' for Active; 'I' for Inactive)
REMARK    1  A    between atoms: C_3  and  C_4 
REMARK    2  A    between atoms: C_4  and  C_5 
REMARK    3  A    between atoms: C_5  and  C_6 
REMARK    4  A    between atoms: C_5  and  O_38 
REMARK    5  A    between atoms: C_6  and  C_7 
REMARK    6  A    between atoms: C_8  and  N_9 
REMARK       I    between atoms: N_9  and  C_10 
REMARK    7  A    between atoms: C_10  and  C_12 
REMARK    8  A    between atoms: C_12  and  C_13 
REMARK    9  A    between atoms: C_12  and  N_17 
REMARK       I    between atoms: N_17  and  C_18 
REMARK   10  A    between atoms: C_18  and  C_20 
REMARK   11  A    between atoms: C_21  and  C_22 
REMARK   12  A    between atoms: C_23  and  C_24 
REMARK   13  A    between atoms: C_25  and  C_26 
REMARK   14  A    between atoms: C_28  and  C_26 
REMARK   15  A    between atoms: C_31  and  O_35 
REMARK   16  A    between atoms: O_38  and  C_39 
REMARK       I    between atoms: C_39  and  N_41 
ROOT
HETATM    1  C   UNK N   1      26.502  26.589  -4.494  0.00  0.00     0.184 C 
ENDROOT
BRANCH   1   2
HETATM    2  C   UNK N   1      26.142  27.852  -3.753  0.00  0.00     0.245 C 
HETATM    3  N   UNK N   1      26.606  29.057  -4.182  0.00  0.00    -0.336 N 
HETATM    4  H   UNK N   1      27.056  29.081  -5.057  0.00  0.00     0.168 HD
HETATM    5  O   UNK N   1      25.528  27.754  -2.703  0.00  0.00    -0.271 OA
BRANCH   3   6
HETATM    6  C   UNK N   1      26.494  30.291  -3.467  0.00  0.00     0.087 C 
HETATM    7  C   UNK N   1      27.515  31.022  -2.981  0.00  0.00    -0.007 C 
BRANCH   7   8
HETATM    8  C   UNK N   1      28.957  30.618  -3.001  0.00  0.00     0.061 C 
BRANCH   8   9
HETATM    9  C   UNK N   1      29.340  29.890  -1.724  0.00  0.00     0.140 C 
BRANCH   9  10
HETATM   10  C   UNK N   1      30.781  29.428  -1.862  0.00  0.00     0.059 C 
BRANCH  10  11
HETATM   11  C   UNK N   1      30.864  28.157  -2.647  0.00  0.00    -0.028 C 
HETATM   12  C   UNK N   1      31.760  27.975  -3.623  0.00  0.00    -0.035 C 
HETATM   13  C   UNK N   1      32.763  29.017  -4.002  0.00  0.00     0.036 C 
ENDBRANCH  10  11
ENDBRANCH   9  10
BRANCH   9  14
HETATM   14  O   UNK N   1      29.228  30.748  -0.648  0.00  0.00    -0.298 OA
BRANCH  14  15
HETATM   15  C   UNK N   1      28.678  30.385   0.537  0.00  0.00     0.358 C 
HETATM   16  O   UNK N   1      28.992  30.961   1.574  0.00  0.00    -0.239 OA
HETATM   17  N   UNK N   1      27.805  29.366   0.585  0.00  0.00    -0.346 N 
HETATM   18  H   UNK N   1      27.001  29.327   0.017  0.00  0.00     0.161 HD
HETATM   19  H   UNK N   1      27.975  28.627   1.214  0.00  0.00     0.161 HD
ENDBRANCH  14  15
ENDBRANCH   9  14
ENDBRANCH   8   9
ENDBRANCH   7   8
ENDBRANCH   3   6
ENDBRANCH   1   2
BRANCH   1  20
HETATM   20  C   UNK N   1      25.884  26.468  -5.904  0.00  0.00    -0.022 C 
HETATM   21  C   UNK N   1      25.718  25.007  -6.273  0.00  0.00     0.017 C 
HETATM   22  C   UNK N   1      26.805  27.097  -6.937  0.00  0.00     0.017 C 
HETATM   23  C   UNK N   1      24.524  27.140  -5.981  0.00  0.00     0.017 C 
ENDBRANCH   1  20
BRANCH   1  24
HETATM   24  N   UNK N   1      26.322  25.394  -3.692  0.00  0.00    -0.344 N 
HETATM   25  C   UNK N   1      27.365  24.648  -3.232  0.00  0.00     0.241 C 
HETATM   26  O   UNK N   1      27.139  23.694  -2.506  0.00  0.00    -0.269 OA
HETATM   27  H   UNK N   1      25.405  25.109  -3.471  0.00  0.00     0.163 HD
BRANCH  25  28
HETATM   28  C   UNK N   1      28.782  24.993  -3.538  0.00  0.00     0.074 C 
HETATM   29  C   UNK N   1      29.493  24.447  -4.538  0.00  0.00     0.005 C 
BRANCH  29  30
HETATM   30  C   UNK N   1      28.998  23.267  -5.267  0.00  0.00     0.001 C 
HETATM   31  C   UNK N   1      29.680  22.115  -5.345  0.00  0.00     0.006 C 
BRANCH  31  32
HETATM   32  C   UNK N   1      31.104  21.926  -4.985  0.00  0.00    -0.065 C 
HETATM   33  C   UNK N   1      32.013  22.576  -5.723  0.00  0.00    -0.013 C 
HETATM   34  C   UNK N   1      31.495  21.259  -3.696  0.00  0.00     0.048 C 
BRANCH  33  35
HETATM   35  C   UNK N   1      33.452  22.777  -5.313  0.00  0.00     0.034 C 
HETATM   36  C   UNK N   1      33.837  24.247  -5.207  0.00  0.00     0.017 C 
BRANCH  35  37
HETATM   37  C   UNK N   1      34.339  22.013  -6.314  0.00  0.00     0.143 C 
HETATM   38  C   UNK N   1      35.695  22.698  -6.539  0.00  0.00     0.063 C 
HETATM   39  C   UNK N   1      36.659  22.410  -5.413  0.00  0.00     0.019 C 
HETATM   40  C   UNK N   1      36.520  21.320  -4.631  0.00  0.00     0.140 C 
HETATM   41  C   UNK N   1      35.395  20.403  -4.897  0.00  0.00     0.316 C 
HETATM   42  O   UNK N   1      35.267  19.370  -4.256  0.00  0.00    -0.257 OA
HETATM   43  O   UNK N   1      34.514  20.706  -5.879  0.00  0.00    -0.310 OA
BRANCH  40  44
HETATM   44  O   UNK N   1      37.398  21.036  -3.635  0.00  0.00    -0.350 OA
HETATM   45  C   UNK N   1      38.761  21.176  -3.766  0.00  0.00     0.210 C 
ENDBRANCH  40  44
ENDBRANCH  35  37
ENDBRANCH  33  35
ENDBRANCH  31  32
ENDBRANCH  29  30
ENDBRANCH  25  28
ENDBRANCH   1  24
TORSDOF 16
ENDMDL
MODEL 8
REMARK VINA RESULT:      -6.1     14.899     17.098
REMARK  16 active torsions:
REMARK  status: ('A' for Active; 'I' for Inactive)
REMARK    1  A    between atoms: C_3  and  C_4 
REMARK    2  A    between atoms: C_4  and  C_5 
REMARK    3  A    between atoms: C_5  and  C_6 
REMARK    4  A    between atoms: C_5  and  O_38 
REMARK    5  A    between atoms: C_6  and  C_7 
REMARK    6  A    between atoms: C_8  and  N_9 
REMARK       I    between atoms: N_9  and  C_10 
REMARK    7  A    between atoms: C_10  and  C_12 
REMARK    8  A    between atoms: C_12  and  C_13 
REMARK    9  A    between atoms: C_12  and  N_17 
REMARK       I    between atoms: N_17  and  C_18 
REMARK   10  A    between atoms: C_18  and  C_20 
REMARK   11  A    between atoms: C_21  and  C_22 
REMARK   12  A    between atoms: C_23  and  C_24 
REMARK   13  A    between atoms: C_25  and  C_26 
REMARK   14  A    between atoms: C_28  and  C_26 
REMARK   15  A    between atoms: C_31  and  O_35 
REMARK   16  A    between atoms: O_38  and  C_39 
REMARK       I    between atoms: C_39  and  N_41 
ROOT
HETATM    1  C   UNK N   1      27.087  26.555  -5.843  0.00  0.00     0.184 C 
ENDROOT
BRANCH   1   2
HETATM    2  C   UNK N   1      26.689  26.466  -7.295  0.00  0.00     0.245 C 
HETATM    3  N   UNK N   1      25.913  25.439  -7.733  0.00  0.00    -0.336 N 
HETATM    4  H   UNK N   1      25.515  24.850  -7.051  0.00  0.00     0.168 HD
HETATM    5  O   UNK N   1      27.173  27.266  -8.080  0.00  0.00    -0.271 OA
BRANCH   3   6
HETATM    6  C   UNK N   1      25.625  25.140  -9.103  0.00  0.00     0.087 C 
HETATM    7  C   UNK N   1      25.956  24.010  -9.754  0.00  0.00    -0.007 C 
BRANCH   7   8
HETATM    8  C   UNK N   1      26.788  22.897  -9.194  0.00  0.00     0.061 C 
BRANCH   8   9
HETATM    9  C   UNK N   1      25.977  21.620  -9.062  0.00  0.00     0.140 C 
BRANCH   9  10
HETATM   10  C   UNK N   1      26.777  20.642  -8.217  0.00  0.00     0.059 C 
BRANCH  10  11
HETATM   11  C   UNK N   1      28.123  21.201  -7.879  0.00  0.00    -0.028 C 
HETATM   12  C   UNK N   1      29.188  20.423  -7.660  0.00  0.00    -0.035 C 
HETATM   13  C   UNK N   1      29.129  18.932  -7.749  0.00  0.00     0.036 C 
ENDBRANCH  10  11
ENDBRANCH   9  10
BRANCH   9  14
HETATM   14  O   UNK N   1      24.774  21.894  -8.442  0.00  0.00    -0.298 OA
BRANCH  14  15
HETATM   15  C   UNK N   1      24.621  21.916  -7.095  0.00  0.00     0.358 C 
HETATM   16  O   UNK N   1      25.192  22.762  -6.414  0.00  0.00    -0.239 OA
HETATM   17  N   UNK N   1      23.862  20.986  -6.493  0.00  0.00    -0.346 N 
HETATM   18  H   UNK N   1      22.930  20.807  -6.758  0.00  0.00     0.161 HD
HETATM   19  H   UNK N   1      24.252  20.461  -5.757  0.00  0.00     0.161 HD
ENDBRANCH  14  15
ENDBRANCH   9  14
ENDBRANCH   8   9
ENDBRANCH   7   8
ENDBRANCH   3   6
ENDBRANCH   1   2
BRANCH   1  20
HETATM   20  C   UNK N   1      26.148  27.408  -4.965  0.00  0.00    -0.022 C 
HETATM   21  C   UNK N   1      26.625  28.847  -4.939  0.00  0.00     0.017 C 
HETATM   22  C   UNK N   1      26.160  26.898  -3.533  0.00  0.00     0.017 C 
HETATM   23  C   UNK N   1      24.720  27.385  -5.484  0.00  0.00     0.017 C 
ENDBRANCH   1  20
BRANCH   1  24
HETATM   24  N   UNK N   1      28.488  26.887  -5.663  0.00  0.00    -0.344 N 
HETATM   25  C   UNK N   1      29.480  25.954  -5.698  0.00  0.00     0.241 C 
HETATM   26  O   UNK N   1      30.641  26.317  -5.606  0.00  0.00    -0.269 OA
HETATM   27  H   UNK N   1      28.732  27.828  -5.507  0.00  0.00     0.163 HD
BRANCH  25  28
HETATM   28  C   UNK N   1      29.199  24.505  -5.906  0.00  0.00     0.074 C 
HETATM   29  C   UNK N   1      29.092  23.607  -4.912  0.00  0.00     0.005 C 
BRANCH  29  30
HETATM   30  C   UNK N   1      29.494  23.944  -3.536  0.00  0.00     0.001 C 
HETATM   31  C   UNK N   1      30.750  23.805  -3.086  0.00  0.00     0.006 C 
BRANCH  31  32
HETATM   32  C   UNK N   1      31.833  23.051  -3.759  0.00  0.00    -0.065 C 
HETATM   33  C   UNK N   1      31.835  21.720  -3.613  0.00  0.00    -0.013 C 
HETATM   34  C   UNK N   1      32.722  23.715  -4.774  0.00  0.00     0.048 C 
BRANCH  33  35
HETATM   35  C   UNK N   1      32.632  20.773  -4.476  0.00  0.00     0.034 C 
HETATM   36  C   UNK N   1      31.763  19.737  -5.177  0.00  0.00     0.017 C 
BRANCH  35  37
HETATM   37  C   UNK N   1      33.714  20.125  -3.591  0.00  0.00     0.143 C 
HETATM   38  C   UNK N   1      34.204  18.783  -4.152  0.00  0.00     0.063 C 
HETATM   39  C   UNK N   1      35.193  18.976  -5.277  0.00  0.00     0.019 C 
HETATM   40  C   UNK N   1      35.906  20.115  -5.397  0.00  0.00     0.140 C 
HETATM   41  C   UNK N   1      35.700  21.182  -4.399  0.00  0.00     0.316 C 
HETATM   42  O   UNK N   1      36.370  22.203  -4.430  0.00  0.00    -0.257 OA
HETATM   43  O   UNK N   1      34.773  21.007  -3.428  0.00  0.00    -0.310 OA
BRANCH  40  44
HETATM   44  O   UNK N   1      36.819  20.287  -6.387  0.00  0.00    -0.350 OA
HETATM   45  C   UNK N   1      37.838  19.396  -6.639  0.00  0.00     0.210 C 
ENDBRANCH  40  44
ENDBRANCH  35  37
ENDBRANCH  33  35
ENDBRANCH  31  32
ENDBRANCH  29  30
ENDBRANCH  25  28
ENDBRANCH   1  24
TORSDOF 16
ENDMDL
MODEL 9
REMARK VINA RESULT:      -6.1      9.967     14.282
REMARK  16 active torsions:
REMARK  status: ('A' for Active; 'I' for Inactive)
REMARK    1  A    between atoms: C_3  and  C_4 
REMARK    2  A    between atoms: C_4  and  C_5 
REMARK    3  A    between atoms: C_5  and  C_6 
REMARK    4  A    between atoms: C_5  and  O_38 
REMARK    5  A    between atoms: C_6  and  C_7 
REMARK    6  A    between atoms: C_8  and  N_9 
REMARK       I    between atoms: N_9  and  C_10 
REMARK    7  A    between atoms: C_10  and  C_12 
REMARK    8  A    between atoms: C_12  and  C_13 
REMARK    9  A    between atoms: C_12  and  N_17 
REMARK       I    between atoms: N_17  and  C_18 
REMARK   10  A    between atoms: C_18  and  C_20 
REMARK   11  A    between atoms: C_21  and  C_22 
REMARK   12  A    between atoms: C_23  and  C_24 
REMARK   13  A    between atoms: C_25  and  C_26 
REMARK   14  A    between atoms: C_28  and  C_26 
REMARK   15  A    between atoms: C_31  and  O_35 
REMARK   16  A    between atoms: O_38  and  C_39 
REMARK       I    between atoms: C_39  and  N_41 
ROOT
HETATM    1  C   UNK N   1      35.048  13.842  10.171  0.00  0.00     0.184 C 
ENDROOT
BRANCH   1   2
HETATM    2  C   UNK N   1      34.984  12.368  10.483  0.00  0.00     0.245 C 
HETATM    3  N   UNK N   1      34.235  11.917  11.525  0.00  0.00    -0.336 N 
HETATM    4  H   UNK N   1      33.639  12.566  11.966  0.00  0.00     0.168 HD
HETATM    5  O   UNK N   1      35.706  11.610   9.856  0.00  0.00    -0.271 OA
BRANCH   3   6
HETATM    6  C   UNK N   1      34.241  10.581  12.035  0.00  0.00     0.087 C 
HETATM    7  C   UNK N   1      34.076  10.222  13.322  0.00  0.00    -0.007 C 
BRANCH   7   8
HETATM    8  C   UNK N   1      33.967  11.167  14.479  0.00  0.00     0.061 C 
BRANCH   8   9
HETATM    9  C   UNK N   1      35.331  11.455  15.083  0.00  0.00     0.140 C 
BRANCH   9  10
HETATM   10  C   UNK N   1      35.141  11.714  16.568  0.00  0.00     0.059 C 
BRANCH  10  11
HETATM   11  C   UNK N   1      35.048  13.181  16.849  0.00  0.00    -0.028 C 
HETATM   12  C   UNK N   1      35.113  13.678  18.089  0.00  0.00    -0.035 C 
HETATM   13  C   UNK N   1      35.298  12.816  19.295  0.00  0.00     0.036 C 
ENDBRANCH  10  11
ENDBRANCH   9  10
BRANCH   9  14
HETATM   14  O   UNK N   1      36.158  10.364  14.903  0.00  0.00    -0.298 OA
BRANCH  14  15
HETATM   15  C   UNK N   1      37.471  10.473  14.581  0.00  0.00     0.358 C 
HETATM   16  O   UNK N   1      38.009  11.574  14.512  0.00  0.00    -0.239 OA
HETATM   17  N   UNK N   1      38.186   9.370  14.306  0.00  0.00    -0.346 N 
HETATM   18  H   UNK N   1      38.234   8.601  14.919  0.00  0.00     0.161 HD
HETATM   19  H   UNK N   1      38.682   9.329  13.457  0.00  0.00     0.161 HD
ENDBRANCH  14  15
ENDBRANCH   9  14
ENDBRANCH   8   9
ENDBRANCH   7   8
ENDBRANCH   3   6
ENDBRANCH   1   2
BRANCH   1  20
HETATM   20  C   UNK N   1      36.174  14.609  10.897  0.00  0.00    -0.022 C 
HETATM   21  C   UNK N   1      35.830  16.083  10.978  0.00  0.00     0.017 C 
HETATM   22  C   UNK N   1      37.476  14.487  10.121  0.00  0.00     0.017 C 
HETATM   23  C   UNK N   1      36.390  14.088  12.307  0.00  0.00     0.017 C 
ENDBRANCH   1  20
BRANCH   1  24
HETATM   24  N   UNK N   1      33.758  14.497  10.278  0.00  0.00    -0.344 N 
HETATM   25  C   UNK N   1      32.955  14.729   9.201  0.00  0.00     0.241 C 
HETATM   26  O   UNK N   1      31.853  15.223   9.376  0.00  0.00    -0.269 OA
HETATM   27  H   UNK N   1      33.449  14.786  11.167  0.00  0.00     0.163 HD
BRANCH  25  28
HETATM   28  C   UNK N   1      33.354  14.344   7.818  0.00  0.00     0.074 C 
HETATM   29  C   UNK N   1      33.983  15.162   6.958  0.00  0.00     0.005 C 
BRANCH  29  30
HETATM   30  C   UNK N   1      34.110  16.603   7.235  0.00  0.00     0.001 C 
HETATM   31  C   UNK N   1      33.179  17.501   6.881  0.00  0.00     0.006 C 
BRANCH  31  32
HETATM   32  C   UNK N   1      32.061  17.264   5.939  0.00  0.00    -0.065 C 
HETATM   33  C   UNK N   1      30.855  17.022   6.470  0.00  0.00    -0.013 C 
HETATM   34  C   UNK N   1      32.211  17.548   4.471  0.00  0.00     0.048 C 
BRANCH  33  35
HETATM   35  C   UNK N   1      29.559  17.091   5.699  0.00  0.00     0.034 C 
HETATM   36  C   UNK N   1      28.685  18.265   6.118  0.00  0.00     0.017 C 
BRANCH  35  37
HETATM   37  C   UNK N   1      28.839  15.739   5.863  0.00  0.00     0.143 C 
HETATM   38  C   UNK N   1      27.311  15.878   5.810  0.00  0.00     0.063 C 
HETATM   39  C   UNK N   1      26.812  16.011   4.391  0.00  0.00     0.019 C 
HETATM   40  C   UNK N   1      27.533  15.553   3.347  0.00  0.00     0.140 C 
HETATM   41  C   UNK N   1      28.836  14.915   3.619  0.00  0.00     0.316 C 
HETATM   42  O   UNK N   1      29.494  14.429   2.711  0.00  0.00    -0.257 OA
HETATM   43  O   UNK N   1      29.287  14.852   4.893  0.00  0.00    -0.310 OA
BRANCH  40  44
HETATM   44  O   UNK N   1      27.080  15.640   2.070  0.00  0.00    -0.350 OA
HETATM   45  C   UNK N   1      25.823  15.235   1.685  0.00  0.00     0.210 C 
ENDBRANCH  40  44
ENDBRANCH  35  37
ENDBRANCH  33  35
ENDBRANCH  31  32
ENDBRANCH  29  30
ENDBRANCH  25  28
ENDBRANCH   1  24
TORSDOF 16
ENDMDL
