REMARK  9 active torsions:
REMARK  status: ('A' for Active; 'I' for Inactive)
REMARK    1  A    between atoms: C_3  and  C_2 
REMARK    2  A    between atoms: N_20  and  C_3 
REMARK    3  A    between atoms: C_7  and  C_5 
REMARK    4  A    between atoms: N_15  and  C_5 
REMARK    5  A    between atoms: N_11  and  C_8 
REMARK    6  A    between atoms: N_20  and  C_9 
REMARK    7  A    between atoms: O_21  and  C_9 
REMARK    8  A    between atoms: N_20  and  N_18 
REMARK    9  A    between atoms: O_22  and  N_18 
ROOT
HETATM    1  C   UNK N   1       3.480  -5.480   0.048  0.00  0.00     0.167 C 
ENDROOT
BRANCH   1   2
HETATM    2  C   UNK N   1       2.076  -6.058   0.032  0.00  0.00     0.018 A 
HETATM    3  C   UNK N   1       1.954  -7.447   0.033  0.00  0.00     0.102 A 
HETATM    4  N   UNK N   1       0.728  -8.033   0.012  0.00  0.00    -0.355 N 
HETATM    5  C   UNK N   1      -0.404  -7.285  -0.010  0.00  0.00     0.078 A 
ATOM      6  HN  UNK N   1       0.658  -9.051   0.013  1.00  0.00     0.166 HD
HETATM    7  C   UNK N   1      -1.734  -7.944  -0.036  0.00  0.00     0.089 C 
HETATM    8  N   UNK N   1      -0.325  -5.932  -0.009  0.00  0.00    -0.332 N 
HETATM    9  C   UNK N   1       0.872  -5.295   0.011  0.00  0.00     0.109 A 
HETATM   10  H   UNK N   1      -1.154  -5.401  -0.024  0.00  0.00     0.168 HD
BRANCH   9  11
HETATM   11  N   UNK N   1       0.883  -4.016   0.011  0.00  0.00    -0.385 N 
HETATM   12  H   UNK N   1       1.740  -3.531   0.012  0.00  0.00     0.157 HD
ATOM     13  HN  UNK N   1       0.004  -3.498   0.011  1.00  0.00     0.157 HD
ENDBRANCH   9  11
ENDBRANCH   1   2
BRANCH   1  14
HETATM   14  N   UNK N   1       3.451  -4.045   0.011  0.00  0.00    -0.351 N 
HETATM   15  C   UNK N   1       4.475  -3.269   0.000  0.00  0.00     0.236 C 
ATOM     16  HN  UNK N   1       2.533  -3.601  -0.009  1.00  0.00     0.163 HD
BRANCH  15  17
HETATM   17  N   UNK N   1       4.255  -1.853  -0.033  0.00  0.00    -0.236 N 
BRANCH  17  18
HETATM   18  C   UNK N   1       2.877  -1.391  -0.068  0.00  0.00     0.169 C 
BRANCH  18  19
HETATM   19  C   UNK N   1       2.708   0.113  -0.016  0.00  0.00     0.136 C 
HETATM   20 Cl   UNK N   1       0.961   0.452   0.010  0.00  0.00    -0.129 Cl
ENDBRANCH  18  19
ENDBRANCH  17  18
BRANCH  17  21
HETATM   21  N   UNK N   1       5.293  -0.941  -0.022  0.00  0.00    -0.205 N 
ATOM     22  HN  UNK N   1       5.080   0.056  -0.054  1.00  0.00     0.216 HD
BRANCH  21  23
HETATM   23  O   UNK N   1       6.434  -1.292   0.024  0.00  0.00    -0.274 OA
ATOM     24  HO  UNK N   1       7.147  -0.664   0.031  1.00  0.00     0.246 HD
ENDBRANCH  21  23
ENDBRANCH  17  21
ENDBRANCH  15  17
BRANCH  15  25
HETATM   25  O   UNK N   1       5.724  -3.784   0.024  0.00  0.00    -0.331 OA
HETATM   26  H   UNK N   1       5.848  -4.713   0.040  0.00  0.00     0.221 HD
ENDBRANCH  15  25
ENDBRANCH   1  14
TORSDOF 9
