MODEL 1
REMARK VINA RESULT:      -5.2      0.000      0.000
REMARK  6 active torsions:
REMARK  status: ('A' for Active; 'I' for Inactive)
REMARK    1  A    between atoms: C_2  and  C_3 
REMARK    2  A    between atoms: C_2  and  O_13 
REMARK    3  A    between atoms: C_4  and  C_3 
REMARK    4  A    between atoms: C_5  and  O_12 
REMARK    5  A    between atoms: C_6  and  O_11 
REMARK    6  A    between atoms: C_7  and  O_10 
ROOT
HETATM    1  C   UNK N   1      20.897  17.757   2.417  0.00  0.00     0.155 C 
HETATM    2  C   UNK N   1      20.198  18.659   1.387  0.00  0.00     0.178 C 
HETATM    3  C   UNK N   1      20.913  20.014   1.394  0.00  0.00     0.180 C 
HETATM    4  C   UNK N   1      21.035  20.554   2.817  0.00  0.00     0.173 C 
HETATM    5  C   UNK N   1      21.643  19.462   3.692  0.00  0.00     0.202 C 
HETATM    6  O   UNK N   1      20.788  18.346   3.689  0.00  0.00    -0.381 OA
ENDROOT
BRANCH   1   7
HETATM    7  C   UNK N   1      20.276  16.364   2.452  0.00  0.00     0.066 C 
BRANCH   7   8
HETATM    8  C   UNK N   1      19.853  15.978   3.867  0.00  0.00     0.116 C 
HETATM    9  C   UNK N   1      19.533  14.500   3.909  0.00  0.00     0.039 C 
BRANCH   8  10
HETATM   10  O   UNK N   1      18.725  16.697   4.261  0.00  0.00    -0.396 OA
HETATM   11  H   UNK N   1      18.729  17.306   5.016  0.00  0.00     0.210 HD
ENDBRANCH   8  10
ENDBRANCH   7   8
ENDBRANCH   1   7
BRANCH   2  12
HETATM   12  O   UNK N   1      20.276  18.099   0.112  0.00  0.00    -0.390 OA
HETATM   13  H   UNK N   1      19.585  18.121  -0.568  0.00  0.00     0.210 HD
ENDBRANCH   2  12
BRANCH   3  14
HETATM   14  O   UNK N   1      20.228  20.927   0.589  0.00  0.00    -0.390 OA
HETATM   15  H   UNK N   1      19.643  20.671  -0.141  0.00  0.00     0.210 HD
ENDBRANCH   3  14
BRANCH   4  16
HETATM   16  O   UNK N   1      21.862  21.677   2.832  0.00  0.00    -0.391 OA
HETATM   17  H   UNK N   1      22.531  21.895   3.501  0.00  0.00     0.210 HD
ENDBRANCH   4  16
TORSDOF 6
ENDMDL
MODEL 2
REMARK VINA RESULT:      -5.0     15.624     17.100
REMARK  6 active torsions:
REMARK  status: ('A' for Active; 'I' for Inactive)
REMARK    1  A    between atoms: C_2  and  C_3 
REMARK    2  A    between atoms: C_2  and  O_13 
REMARK    3  A    between atoms: C_4  and  C_3 
REMARK    4  A    between atoms: C_5  and  O_12 
REMARK    5  A    between atoms: C_6  and  O_11 
REMARK    6  A    between atoms: C_7  and  O_10 
ROOT
HETATM    1  C   UNK N   1      34.897  15.562   9.614  0.00  0.00     0.155 C 
HETATM    2  C   UNK N   1      34.117  14.575  10.495  0.00  0.00     0.178 C 
HETATM    3  C   UNK N   1      34.995  14.234  11.704  0.00  0.00     0.180 C 
HETATM    4  C   UNK N   1      36.391  13.806  11.254  0.00  0.00     0.173 C 
HETATM    5  C   UNK N   1      36.932  14.867  10.300  0.00  0.00     0.202 C 
HETATM    6  O   UNK N   1      36.085  14.948   9.180  0.00  0.00    -0.381 OA
ENDROOT
BRANCH   1   7
HETATM    7  C   UNK N   1      34.081  15.993   8.399  0.00  0.00     0.066 C 
BRANCH   7   8
HETATM    8  C   UNK N   1      34.034  17.512   8.269  0.00  0.00     0.116 C 
HETATM    9  C   UNK N   1      32.594  17.975   8.311  0.00  0.00     0.039 C 
BRANCH   8  10
HETATM   10  O   UNK N   1      34.608  17.926   7.067  0.00  0.00    -0.396 OA
HETATM   11  H   UNK N   1      34.081  18.242   6.316  0.00  0.00     0.210 HD
ENDBRANCH   8  10
ENDBRANCH   7   8
ENDBRANCH   1   7
BRANCH   2  12
HETATM   12  O   UNK N   1      32.924  15.148  10.935  0.00  0.00    -0.390 OA
HETATM   13  H   UNK N   1      32.145  14.672  11.262  0.00  0.00     0.210 HD
ENDBRANCH   2  12
BRANCH   3  14
HETATM   14  O   UNK N   1      34.402  13.224  12.464  0.00  0.00    -0.390 OA
HETATM   15  H   UNK N   1      33.551  13.319  12.920  0.00  0.00     0.210 HD
ENDBRANCH   3  14
BRANCH   4  16
HETATM   16  O   UNK N   1      37.236  13.700  12.359  0.00  0.00    -0.391 OA
HETATM   17  H   UNK N   1      37.198  13.022  13.053  0.00  0.00     0.210 HD
ENDBRANCH   4  16
TORSDOF 6
ENDMDL
MODEL 3
REMARK VINA RESULT:      -4.9      7.357      9.953
REMARK  6 active torsions:
REMARK  status: ('A' for Active; 'I' for Inactive)
REMARK    1  A    between atoms: C_2  and  C_3 
REMARK    2  A    between atoms: C_2  and  O_13 
REMARK    3  A    between atoms: C_4  and  C_3 
REMARK    4  A    between atoms: C_5  and  O_12 
REMARK    5  A    between atoms: C_6  and  O_11 
REMARK    6  A    between atoms: C_7  and  O_10 
ROOT
HETATM    1  C   UNK N   1      22.336  13.001   8.922  0.00  0.00     0.155 C 
HETATM    2  C   UNK N   1      21.832  12.184  10.122  0.00  0.00     0.178 C 
HETATM    3  C   UNK N   1      22.829  12.376  11.269  0.00  0.00     0.180 C 
HETATM    4  C   UNK N   1      24.256  12.103  10.796  0.00  0.00     0.173 C 
HETATM    5  C   UNK N   1      24.507  12.923   9.534  0.00  0.00     0.202 C 
HETATM    6  O   UNK N   1      23.600  12.518   8.539  0.00  0.00    -0.381 OA
ENDROOT
BRANCH   1   7
HETATM    7  C   UNK N   1      21.380  12.903   7.737  0.00  0.00     0.066 C 
BRANCH   7   8
HETATM    8  C   UNK N   1      20.698  14.239   7.460  0.00  0.00     0.116 C 
HETATM    9  C   UNK N   1      21.741  15.334   7.413  0.00  0.00     0.039 C 
BRANCH   8  10
HETATM   10  O   UNK N   1      19.771  14.540   8.458  0.00  0.00    -0.396 OA
HETATM   11  H   UNK N   1      19.479  13.888   9.115  0.00  0.00     0.210 HD
ENDBRANCH   8  10
ENDBRANCH   7   8
ENDBRANCH   1   7
BRANCH   2  12
HETATM   12  O   UNK N   1      20.572  12.629  10.523  0.00  0.00    -0.390 OA
HETATM   13  H   UNK N   1      19.750  12.561  10.012  0.00  0.00     0.210 HD
ENDBRANCH   2  12
BRANCH   3  14
HETATM   14  O   UNK N   1      22.506  11.537  12.338  0.00  0.00    -0.390 OA
HETATM   15  H   UNK N   1      23.085  10.831  12.665  0.00  0.00     0.210 HD
ENDBRANCH   3  14
BRANCH   4  16
HETATM   16  O   UNK N   1      25.166  12.478  11.785  0.00  0.00    -0.391 OA
HETATM   17  H   UNK N   1      25.888  11.937  12.143  0.00  0.00     0.210 HD
ENDBRANCH   4  16
TORSDOF 6
ENDMDL
MODEL 4
REMARK VINA RESULT:      -4.8     10.492     12.028
REMARK  6 active torsions:
REMARK  status: ('A' for Active; 'I' for Inactive)
REMARK    1  A    between atoms: C_2  and  C_3 
REMARK    2  A    between atoms: C_2  and  O_13 
REMARK    3  A    between atoms: C_4  and  C_3 
REMARK    4  A    between atoms: C_5  and  O_12 
REMARK    5  A    between atoms: C_6  and  O_11 
REMARK    6  A    between atoms: C_7  and  O_10 
ROOT
HETATM    1  C   UNK N   1      30.724  17.415   8.162  0.00  0.00     0.155 C 
HETATM    2  C   UNK N   1      29.695  18.238   8.952  0.00  0.00     0.178 C 
HETATM    3  C   UNK N   1      28.321  17.590   8.744  0.00  0.00     0.180 C 
HETATM    4  C   UNK N   1      28.044  17.377   7.257  0.00  0.00     0.173 C 
HETATM    5  C   UNK N   1      29.237  16.648   6.647  0.00  0.00     0.202 C 
HETATM    6  O   UNK N   1      30.385  17.446   6.798  0.00  0.00    -0.381 OA
ENDROOT
BRANCH   1   7
HETATM    7  C   UNK N   1      32.136  17.964   8.342  0.00  0.00     0.066 C 
BRANCH   7   8
HETATM    8  C   UNK N   1      33.133  16.850   8.647  0.00  0.00     0.116 C 
HETATM    9  C   UNK N   1      32.379  15.586   8.998  0.00  0.00     0.039 C 
BRANCH   8  10
HETATM   10  O   UNK N   1      33.955  17.199   9.719  0.00  0.00    -0.396 OA
HETATM   11  H   UNK N   1      33.837  18.019  10.224  0.00  0.00     0.210 HD
ENDBRANCH   8  10
ENDBRANCH   7   8
ENDBRANCH   1   7
BRANCH   2  12
HETATM   12  O   UNK N   1      30.007  18.238  10.311  0.00  0.00    -0.390 OA
HETATM   13  H   UNK N   1      30.752  18.698  10.729  0.00  0.00     0.210 HD
ENDBRANCH   2  12
BRANCH   3  14
HETATM   14  O   UNK N   1      27.322  18.381   9.313  0.00  0.00    -0.390 OA
HETATM   15  H   UNK N   1      27.483  19.248   9.719  0.00  0.00     0.210 HD
ENDBRANCH   3  14
BRANCH   4  16
HETATM   16  O   UNK N   1      26.893  16.606   7.093  0.00  0.00    -0.391 OA
HETATM   17  H   UNK N   1      26.431  16.426   6.259  0.00  0.00     0.210 HD
ENDBRANCH   4  16
TORSDOF 6
ENDMDL
MODEL 5
REMARK VINA RESULT:      -4.8     10.137     11.701
REMARK  6 active torsions:
REMARK  status: ('A' for Active; 'I' for Inactive)
REMARK    1  A    between atoms: C_2  and  C_3 
REMARK    2  A    between atoms: C_2  and  O_13 
REMARK    3  A    between atoms: C_4  and  C_3 
REMARK    4  A    between atoms: C_5  and  O_12 
REMARK    5  A    between atoms: C_6  and  O_11 
REMARK    6  A    between atoms: C_7  and  O_10 
ROOT
HETATM    1  C   UNK N   1      30.644  17.179   7.195  0.00  0.00     0.155 C 
HETATM    2  C   UNK N   1      30.939  17.992   8.465  0.00  0.00     0.178 C 
HETATM    3  C   UNK N   1      29.693  17.936   9.355  0.00  0.00     0.180 C 
HETATM    4  C   UNK N   1      28.445  18.320   8.562  0.00  0.00     0.173 C 
HETATM    5  C   UNK N   1      28.409  17.477   7.290  0.00  0.00     0.202 C 
HETATM    6  O   UNK N   1      29.554  17.759   6.524  0.00  0.00    -0.381 OA
ENDROOT
BRANCH   1   7
HETATM    7  C   UNK N   1      31.850  17.144   6.261  0.00  0.00     0.066 C 
BRANCH   7   8
HETATM    8  C   UNK N   1      31.432  16.857   4.822  0.00  0.00     0.116 C 
HETATM    9  C   UNK N   1      32.625  16.343   4.046  0.00  0.00     0.039 C 
BRANCH   8  10
HETATM   10  O   UNK N   1      30.953  18.012   4.205  0.00  0.00    -0.396 OA
HETATM   11  H   UNK N   1      31.089  18.899   4.574  0.00  0.00     0.210 HD
ENDBRANCH   8  10
ENDBRANCH   7   8
ENDBRANCH   1   7
BRANCH   2  12
HETATM   12  O   UNK N   1      32.025  17.451   9.153  0.00  0.00    -0.390 OA
HETATM   13  H   UNK N   1      32.956  17.698   9.041  0.00  0.00     0.210 HD
ENDBRANCH   2  12
BRANCH   3  14
HETATM   14  O   UNK N   1      29.844  18.783  10.455  0.00  0.00    -0.390 OA
HETATM   15  H   UNK N   1      30.430  19.557  10.465  0.00  0.00     0.210 HD
ENDBRANCH   3  14
BRANCH   4  16
HETATM   16  O   UNK N   1      27.302  18.067   9.320  0.00  0.00    -0.391 OA
HETATM   17  H   UNK N   1      26.792  18.715   9.832  0.00  0.00     0.210 HD
ENDBRANCH   4  16
TORSDOF 6
ENDMDL
MODEL 6
REMARK VINA RESULT:      -4.8      2.081      3.780
REMARK  6 active torsions:
REMARK  status: ('A' for Active; 'I' for Inactive)
REMARK    1  A    between atoms: C_2  and  C_3 
REMARK    2  A    between atoms: C_2  and  O_13 
REMARK    3  A    between atoms: C_4  and  C_3 
REMARK    4  A    between atoms: C_5  and  O_12 
REMARK    5  A    between atoms: C_6  and  O_11 
REMARK    6  A    between atoms: C_7  and  O_10 
ROOT
HETATM    1  C   UNK N   1      22.393  19.330   3.590  0.00  0.00     0.155 C 
HETATM    2  C   UNK N   1      21.922  20.259   2.460  0.00  0.00     0.178 C 
HETATM    3  C   UNK N   1      20.393  20.174   2.393  0.00  0.00     0.180 C 
HETATM    4  C   UNK N   1      19.936  18.718   2.327  0.00  0.00     0.173 C 
HETATM    5  C   UNK N   1      20.609  17.953   3.463  0.00  0.00     0.202 C 
HETATM    6  O   UNK N   1      22.003  18.012   3.290  0.00  0.00    -0.381 OA
ENDROOT
BRANCH   1   7
HETATM    7  C   UNK N   1      23.908  19.380   3.759  0.00  0.00     0.066 C 
BRANCH   7   8
HETATM    8  C   UNK N   1      24.357  18.600   4.991  0.00  0.00     0.116 C 
HETATM    9  C   UNK N   1      25.167  17.398   4.557  0.00  0.00     0.039 C 
BRANCH   8  10
HETATM   10  O   UNK N   1      23.257  18.162   5.729  0.00  0.00    -0.396 OA
HETATM   11  H   UNK N   1      23.294  17.391   6.316  0.00  0.00     0.210 HD
ENDBRANCH   8  10
ENDBRANCH   7   8
ENDBRANCH   1   7
BRANCH   2  12
HETATM   12  O   UNK N   1      22.302  21.576   2.719  0.00  0.00    -0.390 OA
HETATM   13  H   UNK N   1      21.810  22.221   3.251  0.00  0.00     0.210 HD
ENDBRANCH   2  12
BRANCH   3  14
HETATM   14  O   UNK N   1      19.917  20.879   1.286  0.00  0.00    -0.390 OA
HETATM   15  H   UNK N   1      19.756  21.836   1.284  0.00  0.00     0.210 HD
ENDBRANCH   3  14
BRANCH   4  16
HETATM   16  O   UNK N   1      18.550  18.646   2.474  0.00  0.00    -0.391 OA
HETATM   17  H   UNK N   1      18.049  18.760   3.298  0.00  0.00     0.210 HD
ENDBRANCH   4  16
TORSDOF 6
ENDMDL
MODEL 7
REMARK VINA RESULT:      -4.6      8.896     10.481
REMARK  6 active torsions:
REMARK  status: ('A' for Active; 'I' for Inactive)
REMARK    1  A    between atoms: C_2  and  C_3 
REMARK    2  A    between atoms: C_2  and  O_13 
REMARK    3  A    between atoms: C_4  and  C_3 
REMARK    4  A    between atoms: C_5  and  O_12 
REMARK    5  A    between atoms: C_6  and  O_11 
REMARK    6  A    between atoms: C_7  and  O_10 
ROOT
HETATM    1  C   UNK N   1      28.627  17.810   6.909  0.00  0.00     0.155 C 
HETATM    2  C   UNK N   1      28.418  18.067   8.410  0.00  0.00     0.178 C 
HETATM    3  C   UNK N   1      29.783  18.403   9.020  0.00  0.00     0.180 C 
HETATM    4  C   UNK N   1      30.820  17.350   8.636  0.00  0.00     0.173 C 
HETATM    5  C   UNK N   1      30.780  17.169   7.121  0.00  0.00     0.202 C 
HETATM    6  O   UNK N   1      29.501  16.721   6.749  0.00  0.00    -0.381 OA
ENDROOT
BRANCH   1   7
HETATM    7  C   UNK N   1      27.309  17.506   6.205  0.00  0.00     0.066 C 
BRANCH   7   8
HETATM    8  C   UNK N   1      26.879  18.659   5.303  0.00  0.00     0.116 C 
HETATM    9  C   UNK N   1      28.108  19.367   4.775  0.00  0.00     0.039 C 
BRANCH   8  10
HETATM   10  O   UNK N   1      26.096  19.575   6.006  0.00  0.00    -0.396 OA
HETATM   11  H   UNK N   1      25.435  19.303   6.662  0.00  0.00     0.210 HD
ENDBRANCH   8  10
ENDBRANCH   7   8
ENDBRANCH   1   7
BRANCH   2  12
HETATM   12  O   UNK N   1      27.546  19.137   8.607  0.00  0.00    -0.390 OA
HETATM   13  H   UNK N   1      26.591  19.077   8.770  0.00  0.00     0.210 HD
ENDBRANCH   2  12
BRANCH   3  14
HETATM   14  O   UNK N   1      29.682  18.496  10.410  0.00  0.00    -0.390 OA
HETATM   15  H   UNK N   1      29.113  17.926  10.950  0.00  0.00     0.210 HD
ENDBRANCH   3  14
BRANCH   4  16
HETATM   16  O   UNK N   1      32.093  17.772   9.021  0.00  0.00    -0.391 OA
HETATM   17  H   UNK N   1      32.345  18.666   9.305  0.00  0.00     0.210 HD
ENDBRANCH   4  16
TORSDOF 6
ENDMDL
MODEL 8
REMARK VINA RESULT:      -4.6     15.269     16.788
REMARK  6 active torsions:
REMARK  status: ('A' for Active; 'I' for Inactive)
REMARK    1  A    between atoms: C_2  and  C_3 
REMARK    2  A    between atoms: C_2  and  O_13 
REMARK    3  A    between atoms: C_4  and  C_3 
REMARK    4  A    between atoms: C_5  and  O_12 
REMARK    5  A    between atoms: C_6  and  O_11 
REMARK    6  A    between atoms: C_7  and  O_10 
ROOT
HETATM    1  C   UNK N   1      34.447  16.151   8.904  0.00  0.00     0.155 C 
HETATM    2  C   UNK N   1      35.115  16.315  10.278  0.00  0.00     0.178 C 
HETATM    3  C   UNK N   1      36.227  15.266  10.384  0.00  0.00     0.180 C 
HETATM    4  C   UNK N   1      35.695  13.878  10.034  0.00  0.00     0.173 C 
HETATM    5  C   UNK N   1      34.971  13.967   8.694  0.00  0.00     0.202 C 
HETATM    6  O   UNK N   1      33.893  14.862   8.815  0.00  0.00    -0.381 OA
ENDROOT
BRANCH   1   7
HETATM    7  C   UNK N   1      33.347  17.187   8.690  0.00  0.00     0.066 C 
BRANCH   7   8
HETATM    8  C   UNK N   1      33.698  18.148   7.559  0.00  0.00     0.116 C 
HETATM    9  C   UNK N   1      33.788  17.380   6.258  0.00  0.00     0.039 C 
BRANCH   8  10
HETATM   10  O   UNK N   1      34.922  18.773   7.801  0.00  0.00    -0.396 OA
HETATM   11  H   UNK N   1      35.080  19.710   7.604  0.00  0.00     0.210 HD
ENDBRANCH   8  10
ENDBRANCH   7   8
ENDBRANCH   1   7
BRANCH   2  12
HETATM   12  O   UNK N   1      35.666  17.590  10.406  0.00  0.00    -0.390 OA
HETATM   13  H   UNK N   1      35.182  18.430  10.383  0.00  0.00     0.210 HD
ENDBRANCH   2  12
BRANCH   3  14
HETATM   14  O   UNK N   1      36.770  15.264  11.670  0.00  0.00    -0.390 OA
HETATM   15  H   UNK N   1      37.429  15.906  11.979  0.00  0.00     0.210 HD
ENDBRANCH   3  14
BRANCH   4  16
HETATM   16  O   UNK N   1      36.752  12.973   9.933  0.00  0.00    -0.391 OA
HETATM   17  H   UNK N   1      36.683  12.008   9.861  0.00  0.00     0.210 HD
ENDBRANCH   4  16
TORSDOF 6
ENDMDL
MODEL 9
REMARK VINA RESULT:      -4.5     15.209     16.353
REMARK  6 active torsions:
REMARK  status: ('A' for Active; 'I' for Inactive)
REMARK    1  A    between atoms: C_2  and  C_3 
REMARK    2  A    between atoms: C_2  and  O_13 
REMARK    3  A    between atoms: C_4  and  C_3 
REMARK    4  A    between atoms: C_5  and  O_12 
REMARK    5  A    between atoms: C_6  and  O_11 
REMARK    6  A    between atoms: C_7  and  O_10 
ROOT
HETATM    1  C   UNK N   1      34.433  15.409   9.363  0.00  0.00     0.155 C 
HETATM    2  C   UNK N   1      34.485  16.808   8.729  0.00  0.00     0.178 C 
HETATM    3  C   UNK N   1      34.199  16.652   7.231  0.00  0.00     0.180 C 
HETATM    4  C   UNK N   1      35.098  15.580   6.618  0.00  0.00     0.173 C 
HETATM    5  C   UNK N   1      34.982  14.317   7.466  0.00  0.00     0.202 C 
HETATM    6  O   UNK N   1      35.420  14.602   8.771  0.00  0.00    -0.381 OA
ENDROOT
BRANCH   1   7
HETATM    7  C   UNK N   1      34.667  15.469  10.869  0.00  0.00     0.066 C 
BRANCH   7   8
HETATM    8  C   UNK N   1      36.072  14.997  11.233  0.00  0.00     0.116 C 
HETATM    9  C   UNK N   1      36.128  14.688  12.714  0.00  0.00     0.039 C 
BRANCH   8  10
HETATM   10  O   UNK N   1      37.017  15.980  10.939  0.00  0.00    -0.396 OA
HETATM   11  H   UNK N   1      37.971  15.805  10.939  0.00  0.00     0.210 HD
ENDBRANCH   8  10
ENDBRANCH   7   8
ENDBRANCH   1   7
BRANCH   2  12
HETATM   12  O   UNK N   1      33.525  17.641   9.300  0.00  0.00    -0.390 OA
HETATM   13  H   UNK N   1      33.359  17.761  10.249  0.00  0.00     0.210 HD
ENDBRANCH   2  12
BRANCH   3  14
HETATM   14  O   UNK N   1      34.384  17.870   6.574  0.00  0.00    -0.390 OA
HETATM   15  H   UNK N   1      33.848  18.165   5.820  0.00  0.00     0.210 HD
ENDBRANCH   3  14
BRANCH   4  16
HETATM   16  O   UNK N   1      34.689  15.305   5.313  0.00  0.00    -0.391 OA
HETATM   17  H   UNK N   1      33.929  14.763   5.047  0.00  0.00     0.210 HD
ENDBRANCH   4  16
TORSDOF 6
ENDMDL
