MODEL 1
REMARK VINA RESULT:      -6.1      0.000      0.000
REMARK  4 active torsions:
REMARK  status: ('A' for Active; 'I' for Inactive)
REMARK    1  A    between atoms: C_12  and  C_9 
REMARK    2  A    between atoms: N_17  and  C_9 
REMARK    3  A    between atoms: O_18  and  C_12 
REMARK    4  A    between atoms: N_15  and  C_14 
ROOT
HETATM    1  C   UNK N   1      36.360  13.800  14.695  0.00  0.00     0.134 C 
HETATM    2  N   UNK N   1      35.281  13.319  15.218  0.00  0.00    -0.338 N 
ATOM      3  HN  UNK N   1      34.392  13.597  14.802  1.00  0.00     0.168 HD
ENDROOT
BRANCH   1   4
HETATM    4  C   UNK N   1      36.255  14.599  13.431  0.00  0.00     0.209 C 
BRANCH   4   5
HETATM    5  N   UNK N   1      35.962  13.771  12.276  0.00  0.00    -0.345 N 
HETATM    6  C   UNK N   1      36.778  12.658  11.911  0.00  0.00     0.127 A 
HETATM    7  C   UNK N   1      36.132  12.118  10.620  0.00  0.00     0.029 A 
HETATM    8  C   UNK N   1      34.900  12.992  10.321  0.00  0.00     0.104 A 
HETATM    9  C   UNK N   1      34.948  13.971  11.424  0.00  0.00     0.220 A 
HETATM   10  O   UNK N   1      34.137  14.873  11.550  0.00  0.00    -0.273 OA
ENDBRANCH   4   5
ENDBRANCH   1   4
BRANCH   1  11
HETATM   11  O   UNK N   1      37.566  13.592  15.268  0.00  0.00    -0.348 OA
HETATM   12  H   UNK N   1      38.456  13.883  15.221  0.00  0.00     0.219 HD
ENDBRANCH   1  11
BRANCH   2  13
HETATM   13  C   UNK N   1      35.239  12.428  16.333  0.00  0.00     0.045 A 
HETATM   14  C   UNK N   1      35.234  11.037  16.107  0.00  0.00    -0.035 A 
HETATM   15  C   UNK N   1      35.218  10.484  14.723  0.00  0.00     0.050 C 
HETATM   16  C   UNK N   1      35.241  10.150  17.186  0.00  0.00     0.009 A 
HETATM   17  C   UNK N   1      35.263  10.631  18.495  0.00  0.00     0.001 A 
HETATM   18  C   UNK N   1      35.286  12.003  18.733  0.00  0.00     0.009 A 
HETATM   19  C   UNK N   1      35.274  12.908  17.669  0.00  0.00    -0.035 A 
HETATM   20  C   UNK N   1      35.364  14.362  17.988  0.00  0.00     0.050 C 
ENDBRANCH   2  13
TORSDOF 4
ENDMDL
MODEL 2
REMARK VINA RESULT:      -6.1      0.237      2.051
REMARK  4 active torsions:
REMARK  status: ('A' for Active; 'I' for Inactive)
REMARK    1  A    between atoms: C_12  and  C_9 
REMARK    2  A    between atoms: N_17  and  C_9 
REMARK    3  A    between atoms: O_18  and  C_12 
REMARK    4  A    between atoms: N_15  and  C_14 
ROOT
HETATM    1  C   UNK N   1      36.400  13.770  14.794  0.00  0.00     0.134 C 
HETATM    2  N   UNK N   1      35.339  13.335  15.386  0.00  0.00    -0.338 N 
ATOM      3  HN  UNK N   1      34.436  13.626  15.009  1.00  0.00     0.168 HD
ENDROOT
BRANCH   1   4
HETATM    4  C   UNK N   1      36.250  14.537  13.514  0.00  0.00     0.209 C 
BRANCH   4   5
HETATM    5  N   UNK N   1      35.915  13.680  12.392  0.00  0.00    -0.345 N 
HETATM    6  C   UNK N   1      36.653  12.494  12.094  0.00  0.00     0.127 A 
HETATM    7  C   UNK N   1      35.988  11.943  10.816  0.00  0.00     0.029 A 
HETATM    8  C   UNK N   1      34.829  12.889  10.455  0.00  0.00     0.104 A 
HETATM    9  C   UNK N   1      34.932  13.912  11.513  0.00  0.00     0.220 A 
HETATM   10  O   UNK N   1      34.188  14.876  11.583  0.00  0.00    -0.273 OA
ENDBRANCH   4   5
ENDBRANCH   1   4
BRANCH   1  11
HETATM   11  O   UNK N   1      37.629  13.545  15.308  0.00  0.00    -0.348 OA
HETATM   12  H   UNK N   1      38.530  13.492  15.053  0.00  0.00     0.219 HD
ENDBRANCH   1  11
BRANCH   2  13
HETATM   13  C   UNK N   1      35.332  12.477  16.527  0.00  0.00     0.045 A 
HETATM   14  C   UNK N   1      35.327  13.044  17.818  0.00  0.00    -0.035 A 
HETATM   15  C   UNK N   1      35.385  14.521  18.008  0.00  0.00     0.050 C 
HETATM   16  C   UNK N   1      35.272  12.222  18.947  0.00  0.00     0.009 A 
HETATM   17  C   UNK N   1      35.209  10.836  18.808  0.00  0.00     0.001 A 
HETATM   18  C   UNK N   1      35.195  10.263  17.538  0.00  0.00     0.009 A 
HETATM   19  C   UNK N   1      35.255  11.066  16.397  0.00  0.00    -0.035 A 
HETATM   20  C   UNK N   1      35.172  10.395  15.067  0.00  0.00     0.050 C 
ENDBRANCH   2  13
TORSDOF 4
ENDMDL
MODEL 3
REMARK VINA RESULT:      -6.0      2.452      3.833
REMARK  4 active torsions:
REMARK  status: ('A' for Active; 'I' for Inactive)
REMARK    1  A    between atoms: C_12  and  C_9 
REMARK    2  A    between atoms: N_17  and  C_9 
REMARK    3  A    between atoms: O_18  and  C_12 
REMARK    4  A    between atoms: N_15  and  C_14 
ROOT
HETATM    1  C   UNK N   1      35.133  13.933  11.304  0.00  0.00     0.134 C 
HETATM    2  N   UNK N   1      35.685  12.939  11.915  0.00  0.00    -0.338 N 
ATOM      3  HN  UNK N   1      36.560  12.578  11.534  1.00  0.00     0.168 HD
ENDROOT
BRANCH   1   4
HETATM    4  C   UNK N   1      35.877  14.592  10.180  0.00  0.00     0.209 C 
BRANCH   4   5
HETATM    5  N   UNK N   1      35.033  15.481   9.405  0.00  0.00    -0.345 N 
HETATM    6  C   UNK N   1      34.224  15.013   8.326  0.00  0.00     0.127 A 
HETATM    7  C   UNK N   1      33.553  16.287   7.772  0.00  0.00     0.029 A 
HETATM    8  C   UNK N   1      34.029  17.470   8.634  0.00  0.00     0.104 A 
HETATM    9  C   UNK N   1      34.946  16.806   9.580  0.00  0.00     0.220 A 
HETATM   10  O   UNK N   1      35.562  17.407  10.444  0.00  0.00    -0.273 OA
ENDBRANCH   4   5
ENDBRANCH   1   4
BRANCH   1  11
HETATM   11  O   UNK N   1      33.909  14.381  11.661  0.00  0.00    -0.348 OA
HETATM   12  H   UNK N   1      33.487  14.923  12.299  0.00  0.00     0.219 HD
ENDBRANCH   1  11
BRANCH   2  13
HETATM   13  C   UNK N   1      35.164  12.306  13.084  0.00  0.00     0.045 A 
HETATM   14  C   UNK N   1      34.399  11.129  12.950  0.00  0.00    -0.035 A 
HETATM   15  C   UNK N   1      34.080  10.569  11.607  0.00  0.00     0.050 C 
HETATM   16  C   UNK N   1      33.921  10.469  14.086  0.00  0.00     0.009 A 
HETATM   17  C   UNK N   1      34.205  10.960  15.359  0.00  0.00     0.001 A 
HETATM   18  C   UNK N   1      34.975  12.112  15.507  0.00  0.00     0.009 A 
HETATM   19  C   UNK N   1      35.458  12.790  14.386  0.00  0.00    -0.035 A 
HETATM   20  C   UNK N   1      36.329  13.979  14.612  0.00  0.00     0.050 C 
ENDBRANCH   2  13
TORSDOF 4
ENDMDL
MODEL 4
REMARK VINA RESULT:      -6.0     20.715     24.131
REMARK  4 active torsions:
REMARK  status: ('A' for Active; 'I' for Inactive)
REMARK    1  A    between atoms: C_12  and  C_9 
REMARK    2  A    between atoms: N_17  and  C_9 
REMARK    3  A    between atoms: O_18  and  C_12 
REMARK    4  A    between atoms: N_15  and  C_14 
ROOT
HETATM    1  C   UNK N   1      29.502  25.704  -4.315  0.00  0.00     0.134 C 
HETATM    2  N   UNK N   1      28.292  25.521  -3.902  0.00  0.00    -0.338 N 
ATOM      3  HN  UNK N   1      28.156  24.900  -3.104  1.00  0.00     0.168 HD
ENDROOT
BRANCH   1   4
HETATM    4  C   UNK N   1      30.633  25.130  -3.514  0.00  0.00     0.209 C 
BRANCH   4   5
HETATM    5  N   UNK N   1      30.757  23.695  -3.683  0.00  0.00    -0.345 N 
HETATM    6  C   UNK N   1      30.939  23.092  -4.965  0.00  0.00     0.127 A 
HETATM    7  C   UNK N   1      30.967  21.578  -4.674  0.00  0.00     0.029 A 
HETATM    8  C   UNK N   1      30.814  21.399  -3.153  0.00  0.00     0.104 A 
HETATM    9  C   UNK N   1      30.679  22.794  -2.695  0.00  0.00     0.220 A 
HETATM   10  O   UNK N   1      30.517  23.099  -1.525  0.00  0.00    -0.273 OA
ENDBRANCH   4   5
ENDBRANCH   1   4
BRANCH   1  11
HETATM   11  O   UNK N   1      29.756  26.398  -5.446  0.00  0.00    -0.348 OA
HETATM   12  H   UNK N   1      29.338  26.965  -6.065  0.00  0.00     0.219 HD
ENDBRANCH   1  11
BRANCH   2  13
HETATM   13  C   UNK N   1      27.131  26.121  -4.478  0.00  0.00     0.045 A 
HETATM   14  C   UNK N   1      26.346  25.377  -5.383  0.00  0.00    -0.035 A 
HETATM   15  C   UNK N   1      26.740  23.999  -5.789  0.00  0.00     0.050 C 
HETATM   16  C   UNK N   1      25.180  25.930  -5.920  0.00  0.00     0.009 A 
HETATM   17  C   UNK N   1      24.777  27.215  -5.558  0.00  0.00     0.001 A 
HETATM   18  C   UNK N   1      25.533  27.954  -4.651  0.00  0.00     0.009 A 
HETATM   19  C   UNK N   1      26.705  27.422  -4.107  0.00  0.00    -0.035 A 
HETATM   20  C   UNK N   1      27.435  28.238  -3.094  0.00  0.00     0.050 C 
ENDBRANCH   2  13
TORSDOF 4
ENDMDL
MODEL 5
REMARK VINA RESULT:      -6.0      2.480      4.344
REMARK  4 active torsions:
REMARK  status: ('A' for Active; 'I' for Inactive)
REMARK    1  A    between atoms: C_12  and  C_9 
REMARK    2  A    between atoms: N_17  and  C_9 
REMARK    3  A    between atoms: O_18  and  C_12 
REMARK    4  A    between atoms: N_15  and  C_14 
ROOT
HETATM    1  C   UNK N   1      35.223  14.020  11.304  0.00  0.00     0.134 C 
HETATM    2  N   UNK N   1      35.787  13.020  11.895  0.00  0.00    -0.338 N 
ATOM      3  HN  UNK N   1      36.698  12.719  11.547  1.00  0.00     0.168 HD
ENDROOT
BRANCH   1   4
HETATM    4  C   UNK N   1      35.996  14.770  10.260  0.00  0.00     0.209 C 
BRANCH   4   5
HETATM    5  N   UNK N   1      35.140  15.581   9.415  0.00  0.00    -0.345 N 
HETATM    6  C   UNK N   1      34.422  15.032   8.309  0.00  0.00     0.127 A 
HETATM    7  C   UNK N   1      33.702  16.243   7.682  0.00  0.00     0.029 A 
HETATM    8  C   UNK N   1      34.053  17.477   8.532  0.00  0.00     0.104 A 
HETATM    9  C   UNK N   1      34.958  16.901   9.545  0.00  0.00     0.220 A 
HETATM   10  O   UNK N   1      35.486  17.565  10.421  0.00  0.00    -0.273 OA
ENDBRANCH   4   5
ENDBRANCH   1   4
BRANCH   1  11
HETATM   11  O   UNK N   1      33.962  14.393  11.612  0.00  0.00    -0.348 OA
HETATM   12  H   UNK N   1      33.489  14.967  12.184  0.00  0.00     0.219 HD
ENDBRANCH   1  11
BRANCH   2  13
HETATM   13  C   UNK N   1      35.233  12.303  12.999  0.00  0.00     0.045 A 
HETATM   14  C   UNK N   1      35.432  12.788  14.307  0.00  0.00    -0.035 A 
HETATM   15  C   UNK N   1      36.257  14.003  14.559  0.00  0.00     0.050 C 
HETATM   16  C   UNK N   1      34.858  12.126  15.396  0.00  0.00     0.009 A 
HETATM   17  C   UNK N   1      34.074  10.990  15.198  0.00  0.00     0.001 A 
HETATM   18  C   UNK N   1      33.854  10.511  13.909  0.00  0.00     0.009 A 
HETATM   19  C   UNK N   1      34.424  11.153  12.807  0.00  0.00    -0.035 A 
HETATM   20  C   UNK N   1      34.098  10.629  11.449  0.00  0.00     0.050 C 
ENDBRANCH   2  13
TORSDOF 4
ENDMDL
MODEL 6
REMARK VINA RESULT:      -5.8      3.405      5.558
REMARK  4 active torsions:
REMARK  status: ('A' for Active; 'I' for Inactive)
REMARK    1  A    between atoms: C_12  and  C_9 
REMARK    2  A    between atoms: N_17  and  C_9 
REMARK    3  A    between atoms: O_18  and  C_12 
REMARK    4  A    between atoms: N_15  and  C_14 
ROOT
HETATM    1  C   UNK N   1      36.012  15.869  10.927  0.00  0.00     0.134 C 
HETATM    2  N   UNK N   1      35.442  14.865  11.506  0.00  0.00    -0.338 N 
ATOM      3  HN  UNK N   1      34.480  14.988  11.822  1.00  0.00     0.168 HD
ENDROOT
BRANCH   1   4
HETATM    4  C   UNK N   1      35.190  17.083  10.614  0.00  0.00     0.209 C 
BRANCH   4   5
HETATM    5  N   UNK N   1      34.608  17.030   9.287  0.00  0.00    -0.345 N 
HETATM    6  C   UNK N   1      33.902  15.884   8.811  0.00  0.00     0.127 A 
HETATM    7  C   UNK N   1      33.515  16.248   7.363  0.00  0.00     0.029 A 
HETATM    8  C   UNK N   1      34.032  17.672   7.093  0.00  0.00     0.104 A 
HETATM    9  C   UNK N   1      34.695  18.002   8.369  0.00  0.00     0.220 A 
HETATM   10  O   UNK N   1      35.263  19.062   8.571  0.00  0.00    -0.273 OA
ENDBRANCH   4   5
ENDBRANCH   1   4
BRANCH   1  11
HETATM   11  O   UNK N   1      37.324  15.836  10.603  0.00  0.00    -0.348 OA
HETATM   12  H   UNK N   1      38.008  16.385  10.272  0.00  0.00     0.219 HD
ENDBRANCH   1  11
BRANCH   2  13
HETATM   13  C   UNK N   1      36.057  13.597  11.738  0.00  0.00     0.045 A 
HETATM   14  C   UNK N   1      36.555  13.296  13.022  0.00  0.00    -0.035 A 
HETATM   15  C   UNK N   1      36.500  14.299  14.122  0.00  0.00     0.050 C 
HETATM   16  C   UNK N   1      37.117  12.043  13.282  0.00  0.00     0.009 A 
HETATM   17  C   UNK N   1      37.179  11.076  12.278  0.00  0.00     0.001 A 
HETATM   18  C   UNK N   1      36.674  11.354  11.010  0.00  0.00     0.009 A 
HETATM   19  C   UNK N   1      36.114  12.602  10.728  0.00  0.00    -0.035 A 
HETATM   20  C   UNK N   1      35.533  12.815   9.371  0.00  0.00     0.050 C 
ENDBRANCH   2  13
TORSDOF 4
ENDMDL
MODEL 7
REMARK VINA RESULT:      -5.7     13.703     15.435
REMARK  4 active torsions:
REMARK  status: ('A' for Active; 'I' for Inactive)
REMARK    1  A    between atoms: C_12  and  C_9 
REMARK    2  A    between atoms: N_17  and  C_9 
REMARK    3  A    between atoms: O_18  and  C_12 
REMARK    4  A    between atoms: N_15  and  C_14 
ROOT
HETATM    1  C   UNK N   1      21.226  13.231   7.428  0.00  0.00     0.134 C 
HETATM    2  N   UNK N   1      21.949  13.821   8.320  0.00  0.00    -0.338 N 
ATOM      3  HN  UNK N   1      22.021  14.838   8.272  1.00  0.00     0.168 HD
ENDROOT
BRANCH   1   4
HETATM    4  C   UNK N   1      20.418  14.071   6.484  0.00  0.00     0.209 C 
BRANCH   4   5
HETATM    5  N   UNK N   1      20.492  15.484   6.800  0.00  0.00    -0.345 N 
HETATM    6  C   UNK N   1      21.262  16.399   6.020  0.00  0.00     0.127 A 
HETATM    7  C   UNK N   1      21.093  17.752   6.741  0.00  0.00     0.029 A 
HETATM    8  C   UNK N   1      20.163  17.518   7.945  0.00  0.00     0.104 A 
HETATM    9  C   UNK N   1      19.899  16.070   7.848  0.00  0.00     0.220 A 
HETATM   10  O   UNK N   1      19.201  15.465   8.644  0.00  0.00    -0.273 OA
ENDBRANCH   4   5
ENDBRANCH   1   4
BRANCH   1  11
HETATM   11  O   UNK N   1      21.189  11.883   7.338  0.00  0.00    -0.348 OA
HETATM   12  H   UNK N   1      21.612  11.169   6.902  0.00  0.00     0.219 HD
ENDBRANCH   1  11
BRANCH   2  13
HETATM   13  C   UNK N   1      22.657  13.158   9.369  0.00  0.00     0.045 A 
HETATM   14  C   UNK N   1      24.059  13.034   9.286  0.00  0.00    -0.035 A 
HETATM   15  C   UNK N   1      24.805  13.534   8.097  0.00  0.00     0.050 C 
HETATM   16  C   UNK N   1      24.774  12.432  10.325  0.00  0.00     0.009 A 
HETATM   17  C   UNK N   1      24.110  11.959  11.456  0.00  0.00     0.001 A 
HETATM   18  C   UNK N   1      22.727  12.091  11.560  0.00  0.00     0.009 A 
HETATM   19  C   UNK N   1      21.993  12.685  10.530  0.00  0.00    -0.035 A 
HETATM   20  C   UNK N   1      20.524  12.854  10.730  0.00  0.00     0.050 C 
ENDBRANCH   2  13
TORSDOF 4
ENDMDL
MODEL 8
REMARK VINA RESULT:      -5.6     13.545     15.281
REMARK  4 active torsions:
REMARK  status: ('A' for Active; 'I' for Inactive)
REMARK    1  A    between atoms: C_12  and  C_9 
REMARK    2  A    between atoms: N_17  and  C_9 
REMARK    3  A    between atoms: O_18  and  C_12 
REMARK    4  A    between atoms: N_15  and  C_14 
ROOT
HETATM    1  C   UNK N   1      21.471  13.177   7.490  0.00  0.00     0.134 C 
HETATM    2  N   UNK N   1      22.007  13.813   8.478  0.00  0.00    -0.338 N 
ATOM      3  HN  UNK N   1      21.886  14.826   8.507  1.00  0.00     0.168 HD
ENDROOT
BRANCH   1   4
HETATM    4  C   UNK N   1      20.582  13.929   6.545  0.00  0.00     0.209 C 
BRANCH   4   5
HETATM    5  N   UNK N   1      20.708  15.366   6.693  0.00  0.00    -0.345 N 
HETATM    6  C   UNK N   1      21.576  16.144   5.868  0.00  0.00     0.127 A 
HETATM    7  C   UNK N   1      21.428  17.582   6.407  0.00  0.00     0.029 A 
HETATM    8  C   UNK N   1      20.407  17.539   7.558  0.00  0.00     0.104 A 
HETATM    9  C   UNK N   1      20.075  16.103   7.616  0.00  0.00     0.220 A 
HETATM   10  O   UNK N   1      19.294  15.631   8.425  0.00  0.00    -0.273 OA
ENDBRANCH   4   5
ENDBRANCH   1   4
BRANCH   1  11
HETATM   11  O   UNK N   1      21.698  11.859   7.303  0.00  0.00    -0.348 OA
HETATM   12  H   UNK N   1      21.749  11.052   7.777  0.00  0.00     0.219 HD
ENDBRANCH   1  11
BRANCH   2  13
HETATM   13  C   UNK N   1      22.756  13.208   9.531  0.00  0.00     0.045 A 
HETATM   14  C   UNK N   1      22.077  12.678  10.647  0.00  0.00    -0.035 A 
HETATM   15  C   UNK N   1      20.596  12.791  10.769  0.00  0.00     0.050 C 
HETATM   16  C   UNK N   1      22.789  12.039  11.666  0.00  0.00     0.009 A 
HETATM   17  C   UNK N   1      24.175  11.909  11.583  0.00  0.00     0.001 A 
HETATM   18  C   UNK N   1      24.858  12.411  10.477  0.00  0.00     0.009 A 
HETATM   19  C   UNK N   1      24.166  13.059   9.451  0.00  0.00    -0.035 A 
HETATM   20  C   UNK N   1      24.946  13.517   8.265  0.00  0.00     0.050 C 
ENDBRANCH   2  13
TORSDOF 4
ENDMDL
MODEL 9
REMARK VINA RESULT:      -5.6      1.307      2.436
REMARK  4 active torsions:
REMARK  status: ('A' for Active; 'I' for Inactive)
REMARK    1  A    between atoms: C_12  and  C_9 
REMARK    2  A    between atoms: N_17  and  C_9 
REMARK    3  A    between atoms: O_18  and  C_12 
REMARK    4  A    between atoms: N_15  and  C_14 
ROOT
HETATM    1  C   UNK N   1      35.846  13.471  13.826  0.00  0.00     0.134 C 
HETATM    2  N   UNK N   1      34.896  13.185  14.653  0.00  0.00    -0.338 N 
ATOM      3  HN  UNK N   1      34.030  13.721  14.580  1.00  0.00     0.168 HD
ENDROOT
BRANCH   1   4
HETATM    4  C   UNK N   1      35.572  14.448  12.722  0.00  0.00     0.209 C 
BRANCH   4   5
HETATM    5  N   UNK N   1      35.670  13.839  11.409  0.00  0.00    -0.345 N 
HETATM    6  C   UNK N   1      35.035  12.600  11.095  0.00  0.00     0.127 A 
HETATM    7  C   UNK N   1      35.446  12.319   9.635  0.00  0.00     0.029 A 
HETATM    8  C   UNK N   1      36.323  13.495   9.170  0.00  0.00     0.104 A 
HETATM    9  C   UNK N   1      36.377  14.333  10.383  0.00  0.00     0.220 A 
HETATM   10  O   UNK N   1      37.001  15.378  10.445  0.00  0.00    -0.273 OA
ENDBRANCH   4   5
ENDBRANCH   1   4
BRANCH   1  11
HETATM   11  O   UNK N   1      37.068  12.906  13.944  0.00  0.00    -0.348 OA
HETATM   12  H   UNK N   1      37.903  13.049  14.345  0.00  0.00     0.219 HD
ENDBRANCH   1  11
BRANCH   2  13
HETATM   13  C   UNK N   1      34.964  12.177  15.662  0.00  0.00     0.045 A 
HETATM   14  C   UNK N   1      35.308  12.540  16.979  0.00  0.00    -0.035 A 
HETATM   15  C   UNK N   1      35.654  13.948  17.323  0.00  0.00     0.050 C 
HETATM   16  C   UNK N   1      35.334  11.576  17.991  0.00  0.00     0.009 A 
HETATM   17  C   UNK N   1      35.009  10.249  17.708  0.00  0.00     0.001 A 
HETATM   18  C   UNK N   1      34.650   9.879  16.414  0.00  0.00     0.009 A 
HETATM   19  C   UNK N   1      34.624  10.827  15.388  0.00  0.00    -0.035 A 
HETATM   20  C   UNK N   1      34.170  10.381  14.039  0.00  0.00     0.050 C 
ENDBRANCH   2  13
TORSDOF 4
ENDMDL
