MODEL 1
REMARK VINA RESULT:      -8.2      0.000      0.000
REMARK  5 active torsions:
REMARK  status: ('A' for Active; 'I' for Inactive)
REMARK    1  A    between atoms: N_8  and  C_11 
REMARK    2  A    between atoms: C_11  and  C_12 
REMARK    3  A    between atoms: N_15  and  C_18 
REMARK    4  A    between atoms: C_18  and  C_19 
REMARK    5  A    between atoms: C_19  and  C_21 
ROOT
HETATM    1  C   UNK N   1      36.155  12.961  11.784  0.00  0.00     0.007 C 
HETATM    2  C   UNK N   1      35.017  13.940  12.032  0.00  0.00     0.026 C 
HETATM    3  C   UNK N   1      35.466  15.365  11.754  0.00  0.00     0.117 C 
HETATM    4  N   UNK N   1      36.030  15.501  10.410  0.00  0.00    -0.405 N 
HETATM    5  C   UNK N   1      37.177  14.622  10.144  0.00  0.00     0.117 C 
HETATM    6  C   UNK N   1      36.868  13.152  10.443  0.00  0.00     0.026 C 
ENDROOT
BRANCH   1   7
HETATM    7  C   UNK N   1      37.033  12.604  12.989  0.00  0.00     0.131 C 
BRANCH   7   8
HETATM    8  N   UNK N   1      36.389  12.603  14.290  0.00  0.00    -0.343 N 
HETATM    9  C   UNK N   1      36.116  13.791  15.087  0.00  0.00     0.165 A 
HETATM   10  C   UNK N   1      35.749  13.173  16.415  0.00  0.00    -0.025 A 
HETATM   11  C   UNK N   1      35.819  11.806  16.348  0.00  0.00     0.040 A 
HETATM   12  C   UNK N   1      35.426  13.820  17.606  0.00  0.00     0.010 A 
HETATM   13  C   UNK N   1      35.590  10.998  17.461  0.00  0.00     0.017 A 
HETATM   14  C   UNK N   1      36.218  11.474  15.012  0.00  0.00     0.254 A 
HETATM   15  C   UNK N   1      35.264  11.627  18.674  0.00  0.00     0.001 A 
HETATM   16  C   UNK N   1      35.178  13.034  18.746  0.00  0.00     0.001 A 
HETATM   17  O   UNK N   1      36.458  10.352  14.601  0.00  0.00    -0.267 OA
ENDBRANCH   7   8
ENDBRANCH   1   7
BRANCH   4  18
HETATM   18  C   UNK N   1      35.019  15.603   9.350  0.00  0.00     0.200 C 
BRANCH  18  19
HETATM   19  C   UNK N   1      34.601  16.996   8.933  0.00  0.00     0.176 C 
HETATM   20  O   UNK N   1      35.173  17.972   9.395  0.00  0.00    -0.291 OA
BRANCH  19  21
HETATM   21  C   UNK N   1      33.595  17.156   7.861  0.00  0.00     0.011 A 
HETATM   22  C   UNK N   1      33.987  17.339   6.525  0.00  0.00     0.018 A 
HETATM   23  C   UNK N   1      33.024  17.397   5.511  0.00  0.00     0.043 A 
HETATM   24  C   UNK N   1      31.666  17.291   5.829  0.00  0.00     0.116 A 
HETATM   25  C   UNK N   1      31.269  17.139   7.158  0.00  0.00     0.043 A 
HETATM   26  F   UNK N   1      30.732  17.324   4.848  0.00  0.00    -0.206 F 
HETATM   27  C   UNK N   1      32.229  17.061   8.168  0.00  0.00     0.018 A 
ENDBRANCH  19  21
ENDBRANCH  18  19
ENDBRANCH   4  18
TORSDOF 5
ENDMDL
MODEL 2
REMARK VINA RESULT:      -8.2      1.622      2.330
REMARK  5 active torsions:
REMARK  status: ('A' for Active; 'I' for Inactive)
REMARK    1  A    between atoms: N_8  and  C_11 
REMARK    2  A    between atoms: C_11  and  C_12 
REMARK    3  A    between atoms: N_15  and  C_18 
REMARK    4  A    between atoms: C_18  and  C_19 
REMARK    5  A    between atoms: C_19  and  C_21 
ROOT
HETATM    1  C   UNK N   1      34.460  14.396  11.302  0.00  0.00     0.007 C 
HETATM    2  C   UNK N   1      35.167  15.712  11.592  0.00  0.00     0.026 C 
HETATM    3  C   UNK N   1      36.032  16.126  10.413  0.00  0.00     0.117 C 
HETATM    4  N   UNK N   1      35.262  16.174   9.168  0.00  0.00    -0.405 N 
HETATM    5  C   UNK N   1      34.614  14.905   8.810  0.00  0.00     0.117 C 
HETATM    6  C   UNK N   1      33.750  14.349   9.946  0.00  0.00     0.026 C 
ENDROOT
BRANCH   1   7
HETATM    7  C   UNK N   1      35.171  13.116  11.756  0.00  0.00     0.131 C 
BRANCH   7   8
HETATM    8  N   UNK N   1      34.967  12.707  13.134  0.00  0.00    -0.343 N 
HETATM    9  C   UNK N   1      35.481  13.415  14.299  0.00  0.00     0.165 A 
HETATM   10  C   UNK N   1      35.243  12.396  15.386  0.00  0.00    -0.025 A 
HETATM   11  C   UNK N   1      34.668  11.263  14.872  0.00  0.00     0.040 A 
HETATM   12  C   UNK N   1      35.575  12.484  16.737  0.00  0.00     0.010 A 
HETATM   13  C   UNK N   1      34.403  10.143  15.659  0.00  0.00     0.017 A 
HETATM   14  C   UNK N   1      34.504  11.483  13.465  0.00  0.00     0.254 A 
HETATM   15  C   UNK N   1      34.732  10.208  17.024  0.00  0.00     0.001 A 
HETATM   16  C   UNK N   1      35.312  11.376  17.562  0.00  0.00     0.001 A 
HETATM   17  O   UNK N   1      34.093  10.663  12.662  0.00  0.00    -0.267 OA
ENDBRANCH   7   8
ENDBRANCH   1   7
BRANCH   4  18
HETATM   18  C   UNK N   1      34.456  17.391   9.017  0.00  0.00     0.200 C 
BRANCH  18  19
HETATM   19  C   UNK N   1      33.832  17.636   7.660  0.00  0.00     0.176 C 
HETATM   20  O   UNK N   1      34.541  17.835   6.685  0.00  0.00    -0.291 OA
BRANCH  19  21
HETATM   21  C   UNK N   1      32.368  17.491   7.505  0.00  0.00     0.011 A 
HETATM   22  C   UNK N   1      31.500  17.735   8.582  0.00  0.00     0.018 A 
HETATM   23  C   UNK N   1      30.114  17.682   8.394  0.00  0.00     0.043 A 
HETATM   24  C   UNK N   1      29.589  17.368   7.136  0.00  0.00     0.116 A 
HETATM   25  C   UNK N   1      30.448  17.096   6.070  0.00  0.00     0.043 A 
HETATM   26  F   UNK N   1      28.249  17.339   6.945  0.00  0.00    -0.206 F 
HETATM   27  C   UNK N   1      31.829  17.167   6.251  0.00  0.00     0.018 A 
ENDBRANCH  19  21
ENDBRANCH  18  19
ENDBRANCH   4  18
TORSDOF 5
ENDMDL
MODEL 3
REMARK VINA RESULT:      -8.0      1.400      1.993
REMARK  5 active torsions:
REMARK  status: ('A' for Active; 'I' for Inactive)
REMARK    1  A    between atoms: N_8  and  C_11 
REMARK    2  A    between atoms: C_11  and  C_12 
REMARK    3  A    between atoms: N_15  and  C_18 
REMARK    4  A    between atoms: C_18  and  C_19 
REMARK    5  A    between atoms: C_19  and  C_21 
ROOT
HETATM    1  C   UNK N   1      35.255  14.136  11.406  0.00  0.00     0.007 C 
HETATM    2  C   UNK N   1      35.052  15.617  11.688  0.00  0.00     0.026 C 
HETATM    3  C   UNK N   1      35.680  16.462  10.593  0.00  0.00     0.117 C 
HETATM    4  N   UNK N   1      35.190  16.079   9.267  0.00  0.00    -0.405 N 
HETATM    5  C   UNK N   1      35.425  14.671   8.920  0.00  0.00     0.117 C 
HETATM    6  C   UNK N   1      34.884  13.710   9.983  0.00  0.00     0.026 C 
ENDROOT
BRANCH   1   7
HETATM    7  C   UNK N   1      36.496  13.480  12.022  0.00  0.00     0.131 C 
BRANCH   7   8
HETATM    8  N   UNK N   1      36.347  12.920  13.353  0.00  0.00    -0.343 N 
HETATM    9  C   UNK N   1      35.862  11.577  13.645  0.00  0.00     0.165 A 
HETATM   10  C   UNK N   1      35.626  11.670  15.132  0.00  0.00    -0.025 A 
HETATM   11  C   UNK N   1      35.943  12.919  15.596  0.00  0.00     0.040 A 
HETATM   12  C   UNK N   1      35.111  10.694  15.985  0.00  0.00     0.010 A 
HETATM   13  C   UNK N   1      35.753  13.285  16.928  0.00  0.00     0.017 A 
HETATM   14  C   UNK N   1      36.392  13.680  14.468  0.00  0.00     0.254 A 
HETATM   15  C   UNK N   1      35.234  12.319  17.807  0.00  0.00     0.001 A 
HETATM   16  C   UNK N   1      34.917  11.027  17.338  0.00  0.00     0.001 A 
HETATM   17  O   UNK N   1      36.689  14.863  14.482  0.00  0.00    -0.267 OA
ENDBRANCH   7   8
ENDBRANCH   1   7
BRANCH   4  18
HETATM   18  C   UNK N   1      33.867  16.626   8.943  0.00  0.00     0.200 C 
BRANCH  18  19
HETATM   19  C   UNK N   1      33.811  17.697   7.876  0.00  0.00     0.176 C 
HETATM   20  O   UNK N   1      34.584  18.643   7.915  0.00  0.00    -0.291 OA
BRANCH  19  21
HETATM   21  C   UNK N   1      32.910  17.514   6.717  0.00  0.00     0.011 A 
HETATM   22  C   UNK N   1      33.403  17.581   5.404  0.00  0.00     0.018 A 
HETATM   23  C   UNK N   1      32.555  17.316   4.321  0.00  0.00     0.043 A 
HETATM   24  C   UNK N   1      31.212  16.999   4.545  0.00  0.00     0.116 A 
HETATM   25  C   UNK N   1      30.711  16.959   5.847  0.00  0.00     0.043 A 
HETATM   26  F   UNK N   1      30.395  16.718   3.502  0.00  0.00    -0.206 F 
HETATM   27  C   UNK N   1      31.558  17.206   6.928  0.00  0.00     0.018 A 
ENDBRANCH  19  21
ENDBRANCH  18  19
ENDBRANCH   4  18
TORSDOF 5
ENDMDL
MODEL 4
REMARK VINA RESULT:      -7.9     11.635     15.196
REMARK  5 active torsions:
REMARK  status: ('A' for Active; 'I' for Inactive)
REMARK    1  A    between atoms: N_8  and  C_11 
REMARK    2  A    between atoms: C_11  and  C_12 
REMARK    3  A    between atoms: N_15  and  C_18 
REMARK    4  A    between atoms: C_18  and  C_19 
REMARK    5  A    between atoms: C_19  and  C_21 
ROOT
HETATM    1  C   UNK N   1      22.622  15.469   4.373  0.00  0.00     0.007 C 
HETATM    2  C   UNK N   1      23.142  15.351   5.798  0.00  0.00     0.026 C 
HETATM    3  C   UNK N   1      22.133  15.914   6.785  0.00  0.00     0.117 C 
HETATM    4  N   UNK N   1      20.816  15.294   6.623  0.00  0.00    -0.405 N 
HETATM    5  C   UNK N   1      20.241  15.440   5.279  0.00  0.00     0.117 C 
HETATM    6  C   UNK N   1      21.192  14.957   4.181  0.00  0.00     0.026 C 
ENDROOT
BRANCH   1   7
HETATM    7  C   UNK N   1      23.014  16.732   3.598  0.00  0.00     0.131 C 
BRANCH   7   8
HETATM    8  N   UNK N   1      24.124  17.505   4.125  0.00  0.00    -0.343 N 
HETATM    9  C   UNK N   1      23.994  18.733   4.898  0.00  0.00     0.165 A 
HETATM   10  C   UNK N   1      25.418  19.234   4.890  0.00  0.00    -0.025 A 
HETATM   11  C   UNK N   1      26.228  18.380   4.190  0.00  0.00     0.040 A 
HETATM   12  C   UNK N   1      25.919  20.412   5.442  0.00  0.00     0.010 A 
HETATM   13  C   UNK N   1      27.580  18.647   3.979  0.00  0.00     0.017 A 
HETATM   14  C   UNK N   1      25.399  17.308   3.724  0.00  0.00     0.254 A 
HETATM   15  C   UNK N   1      28.109  19.830   4.524  0.00  0.00     0.001 A 
HETATM   16  C   UNK N   1      27.281  20.708   5.256  0.00  0.00     0.001 A 
HETATM   17  O   UNK N   1      25.758  16.395   3.000  0.00  0.00    -0.267 OA
ENDBRANCH   7   8
ENDBRANCH   1   7
BRANCH   4  18
HETATM   18  C   UNK N   1      20.703  13.971   7.248  0.00  0.00     0.200 C 
BRANCH  18  19
HETATM   19  C   UNK N   1      20.663  13.928   8.760  0.00  0.00     0.176 C 
HETATM   20  O   UNK N   1      19.675  14.325   9.359  0.00  0.00    -0.291 OA
BRANCH  19  21
HETATM   21  C   UNK N   1      21.770  13.272   9.491  0.00  0.00     0.011 A 
HETATM   22  C   UNK N   1      23.090  13.346   9.017  0.00  0.00     0.018 A 
HETATM   23  C   UNK N   1      24.137  12.798   9.767  0.00  0.00     0.043 A 
HETATM   24  C   UNK N   1      23.869  12.161  10.983  0.00  0.00     0.116 A 
HETATM   25  C   UNK N   1      22.555  12.061  11.444  0.00  0.00     0.043 A 
HETATM   26  F   UNK N   1      24.882  11.651  11.723  0.00  0.00    -0.206 F 
HETATM   27  C   UNK N   1      21.513  12.622  10.706  0.00  0.00     0.018 A 
ENDBRANCH  19  21
ENDBRANCH  18  19
ENDBRANCH   4  18
TORSDOF 5
ENDMDL
MODEL 5
REMARK VINA RESULT:      -7.8      2.113      2.972
REMARK  5 active torsions:
REMARK  status: ('A' for Active; 'I' for Inactive)
REMARK    1  A    between atoms: N_8  and  C_11 
REMARK    2  A    between atoms: C_11  and  C_12 
REMARK    3  A    between atoms: N_15  and  C_18 
REMARK    4  A    between atoms: C_18  and  C_19 
REMARK    5  A    between atoms: C_19  and  C_21 
ROOT
HETATM    1  C   UNK N   1      34.918  14.318  10.624  0.00  0.00     0.007 C 
HETATM    2  C   UNK N   1      34.240  15.671  10.468  0.00  0.00     0.026 C 
HETATM    3  C   UNK N   1      34.886  16.466   9.345  0.00  0.00     0.117 C 
HETATM    4  N   UNK N   1      34.909  15.710   8.091  0.00  0.00    -0.405 N 
HETATM    5  C   UNK N   1      35.612  14.424   8.175  0.00  0.00     0.117 C 
HETATM    6  C   UNK N   1      35.089  13.544   9.313  0.00  0.00     0.026 C 
ENDROOT
BRANCH   1   7
HETATM    7  C   UNK N   1      36.072  14.236  11.630  0.00  0.00     0.131 C 
BRANCH   7   8
HETATM    8  N   UNK N   1      35.924  13.288  12.720  0.00  0.00    -0.343 N 
HETATM    9  C   UNK N   1      35.223  12.015  12.629  0.00  0.00     0.165 A 
HETATM   10  C   UNK N   1      35.122  11.633  14.086  0.00  0.00    -0.025 A 
HETATM   11  C   UNK N   1      35.698  12.591  14.878  0.00  0.00     0.040 A 
HETATM   12  C   UNK N   1      34.502  10.516  14.642  0.00  0.00     0.010 A 
HETATM   13  C   UNK N   1      35.681  12.510  16.270  0.00  0.00     0.017 A 
HETATM   14  C   UNK N   1      36.193  13.613  14.003  0.00  0.00     0.254 A 
HETATM   15  C   UNK N   1      35.060  11.393  16.855  0.00  0.00     0.001 A 
HETATM   16  C   UNK N   1      34.476  10.397  16.044  0.00  0.00     0.001 A 
HETATM   17  O   UNK N   1      36.702  14.663  14.354  0.00  0.00    -0.267 OA
ENDBRANCH   7   8
ENDBRANCH   1   7
BRANCH   4  18
HETATM   18  C   UNK N   1      33.629  15.716   7.372  0.00  0.00     0.200 C 
BRANCH  18  19
HETATM   19  C   UNK N   1      33.050  17.067   7.014  0.00  0.00     0.176 C 
HETATM   20  O   UNK N   1      33.649  17.809   6.250  0.00  0.00    -0.291 OA
BRANCH  19  21
HETATM   21  C   UNK N   1      31.692  17.417   7.485  0.00  0.00     0.011 A 
HETATM   22  C   UNK N   1      30.552  16.914   6.837  0.00  0.00     0.018 A 
HETATM   23  C   UNK N   1      29.277  17.181   7.350  0.00  0.00     0.043 A 
HETATM   24  C   UNK N   1      29.135  17.964   8.501  0.00  0.00     0.116 A 
HETATM   25  C   UNK N   1      30.263  18.490   9.131  0.00  0.00     0.043 A 
HETATM   26  F   UNK N   1      27.905  18.204   9.013  0.00  0.00    -0.206 F 
HETATM   27  C   UNK N   1      31.536  18.209   8.632  0.00  0.00     0.018 A 
ENDBRANCH  19  21
ENDBRANCH  18  19
ENDBRANCH   4  18
TORSDOF 5
ENDMDL
MODEL 6
REMARK VINA RESULT:      -7.8     17.504     22.130
REMARK  5 active torsions:
REMARK  status: ('A' for Active; 'I' for Inactive)
REMARK    1  A    between atoms: N_8  and  C_11 
REMARK    2  A    between atoms: C_11  and  C_12 
REMARK    3  A    between atoms: N_15  and  C_18 
REMARK    4  A    between atoms: C_18  and  C_19 
REMARK    5  A    between atoms: C_19  and  C_21 
ROOT
HETATM    1  C   UNK N   1      26.144  24.302  -5.520  0.00  0.00     0.007 C 
HETATM    2  C   UNK N   1      27.209  23.332  -6.010  0.00  0.00     0.026 C 
HETATM    3  C   UNK N   1      28.598  23.845  -5.667  0.00  0.00     0.117 C 
HETATM    4  N   UNK N   1      28.729  24.135  -4.238  0.00  0.00    -0.405 N 
HETATM    5  C   UNK N   1      27.763  25.119  -3.731  0.00  0.00     0.117 C 
HETATM    6  C   UNK N   1      26.317  24.744  -4.064  0.00  0.00     0.026 C 
ENDROOT
BRANCH   1   7
HETATM    7  C   UNK N   1      25.672  25.369  -6.515  0.00  0.00     0.131 C 
BRANCH   7   8
HETATM    8  N   UNK N   1      26.340  26.656  -6.460  0.00  0.00    -0.343 N 
HETATM    9  C   UNK N   1      27.634  26.952  -7.060  0.00  0.00     0.165 A 
HETATM   10  C   UNK N   1      27.950  28.286  -6.429  0.00  0.00    -0.025 A 
HETATM   11  C   UNK N   1      26.946  28.670  -5.580  0.00  0.00     0.040 A 
HETATM   12  C   UNK N   1      29.097  29.062  -6.585  0.00  0.00     0.010 A 
HETATM   13  C   UNK N   1      27.023  29.836  -4.820  0.00  0.00     0.017 A 
HETATM   14  C   UNK N   1      25.952  27.638  -5.617  0.00  0.00     0.254 A 
HETATM   15  C   UNK N   1      28.171  30.636  -4.959  0.00  0.00     0.001 A 
HETATM   16  C   UNK N   1      29.203  30.251  -5.841  0.00  0.00     0.001 A 
HETATM   17  O   UNK N   1      24.945  27.596  -4.932  0.00  0.00    -0.267 OA
ENDBRANCH   7   8
ENDBRANCH   1   7
BRANCH   4  18
HETATM   18  C   UNK N   1      28.953  22.944  -3.409  0.00  0.00     0.200 C 
BRANCH  18  19
HETATM   19  C   UNK N   1      30.328  22.784  -2.798  0.00  0.00     0.176 C 
HETATM   20  O   UNK N   1      30.639  23.429  -1.808  0.00  0.00    -0.291 OA
BRANCH  19  21
HETATM   21  C   UNK N   1      31.234  21.740  -3.326  0.00  0.00     0.011 A 
HETATM   22  C   UNK N   1      30.812  20.867  -4.342  0.00  0.00     0.018 A 
HETATM   23  C   UNK N   1      31.711  19.945  -4.894  0.00  0.00     0.043 A 
HETATM   24  C   UNK N   1      33.026  19.881  -4.422  0.00  0.00     0.116 A 
HETATM   25  C   UNK N   1      33.440  20.726  -3.392  0.00  0.00     0.043 A 
HETATM   26  F   UNK N   1      33.904  19.007  -4.969  0.00  0.00    -0.206 F 
HETATM   27  C   UNK N   1      32.552  21.658  -2.854  0.00  0.00     0.018 A 
ENDBRANCH  19  21
ENDBRANCH  18  19
ENDBRANCH   4  18
TORSDOF 5
ENDMDL
MODEL 7
REMARK VINA RESULT:      -7.7     18.049     22.442
REMARK  5 active torsions:
REMARK  status: ('A' for Active; 'I' for Inactive)
REMARK    1  A    between atoms: N_8  and  C_11 
REMARK    2  A    between atoms: C_11  and  C_12 
REMARK    3  A    between atoms: N_15  and  C_18 
REMARK    4  A    between atoms: C_18  and  C_19 
REMARK    5  A    between atoms: C_19  and  C_21 
ROOT
HETATM    1  C   UNK N   1      26.716  23.241  -6.959  0.00  0.00     0.007 C 
HETATM    2  C   UNK N   1      26.402  21.836  -7.449  0.00  0.00     0.026 C 
HETATM    3  C   UNK N   1      27.420  21.391  -8.487  0.00  0.00     0.117 C 
HETATM    4  N   UNK N   1      28.790  21.509  -7.984  0.00  0.00    -0.405 N 
HETATM    5  C   UNK N   1      29.163  22.865  -7.561  0.00  0.00     0.117 C 
HETATM    6  C   UNK N   1      28.177  23.454  -6.549  0.00  0.00     0.026 C 
ENDROOT
BRANCH   1   7
HETATM    7  C   UNK N   1      26.030  24.398  -7.694  0.00  0.00     0.131 C 
BRANCH   7   8
HETATM    8  N   UNK N   1      26.076  25.700  -7.054  0.00  0.00    -0.343 N 
HETATM    9  C   UNK N   1      26.978  26.782  -7.425  0.00  0.00     0.165 A 
HETATM   10  C   UNK N   1      26.802  27.722  -6.257  0.00  0.00    -0.025 A 
HETATM   11  C   UNK N   1      25.908  27.209  -5.354  0.00  0.00     0.040 A 
HETATM   12  C   UNK N   1      27.451  28.932  -6.021  0.00  0.00     0.010 A 
HETATM   13  C   UNK N   1      25.616  27.854  -4.153  0.00  0.00     0.017 A 
HETATM   14  C   UNK N   1      25.468  25.948  -5.874  0.00  0.00     0.254 A 
HETATM   15  C   UNK N   1      26.260  29.076  -3.890  0.00  0.00     0.001 A 
HETATM   16  C   UNK N   1      27.172  29.615  -4.823  0.00  0.00     0.001 A 
HETATM   17  O   UNK N   1      24.725  25.166  -5.305  0.00  0.00    -0.267 OA
ENDBRANCH   7   8
ENDBRANCH   1   7
BRANCH   4  18
HETATM   18  C   UNK N   1      29.195  20.408  -7.102  0.00  0.00     0.200 C 
BRANCH  18  19
HETATM   19  C   UNK N   1      30.679  20.138  -6.980  0.00  0.00     0.176 C 
HETATM   20  O   UNK N   1      31.315  19.755  -7.950  0.00  0.00    -0.291 OA
BRANCH  19  21
HETATM   21  C   UNK N   1      31.371  20.475  -5.716  0.00  0.00     0.011 A 
HETATM   22  C   UNK N   1      30.676  21.069  -4.650  0.00  0.00     0.018 A 
HETATM   23  C   UNK N   1      31.324  21.299  -3.430  0.00  0.00     0.043 A 
HETATM   24  C   UNK N   1      32.670  20.952  -3.276  0.00  0.00     0.116 A 
HETATM   25  C   UNK N   1      33.372  20.388  -4.342  0.00  0.00     0.043 A 
HETATM   26  F   UNK N   1      33.293  21.150  -2.090  0.00  0.00    -0.206 F 
HETATM   27  C   UNK N   1      32.723  20.142  -5.553  0.00  0.00     0.018 A 
ENDBRANCH  19  21
ENDBRANCH  18  19
ENDBRANCH   4  18
TORSDOF 5
ENDMDL
MODEL 8
REMARK VINA RESULT:      -7.6      1.720      2.125
REMARK  5 active torsions:
REMARK  status: ('A' for Active; 'I' for Inactive)
REMARK    1  A    between atoms: N_8  and  C_11 
REMARK    2  A    between atoms: C_11  and  C_12 
REMARK    3  A    between atoms: N_15  and  C_18 
REMARK    4  A    between atoms: C_18  and  C_19 
REMARK    5  A    between atoms: C_19  and  C_21 
ROOT
HETATM    1  C   UNK N   1      35.814  13.081  11.373  0.00  0.00     0.007 C 
HETATM    2  C   UNK N   1      35.668  14.459  10.744  0.00  0.00     0.026 C 
HETATM    3  C   UNK N   1      36.600  14.605   9.553  0.00  0.00     0.117 C 
HETATM    4  N   UNK N   1      36.404  13.529   8.579  0.00  0.00    -0.405 N 
HETATM    5  C   UNK N   1      36.600  12.179   9.123  0.00  0.00     0.117 C 
HETATM    6  C   UNK N   1      35.752  11.923  10.372  0.00  0.00     0.026 C 
ENDROOT
BRANCH   1   7
HETATM    7  C   UNK N   1      36.821  12.949  12.521  0.00  0.00     0.131 C 
BRANCH   7   8
HETATM    8  N   UNK N   1      36.286  12.588  13.822  0.00  0.00    -0.343 N 
HETATM    9  C   UNK N   1      35.683  13.520  14.765  0.00  0.00     0.165 A 
HETATM   10  C   UNK N   1      35.614  12.670  16.010  0.00  0.00    -0.025 A 
HETATM   11  C   UNK N   1      36.125  11.421  15.773  0.00  0.00     0.040 A 
HETATM   12  C   UNK N   1      35.163  13.035  17.277  0.00  0.00     0.010 A 
HETATM   13  C   UNK N   1      36.236  10.463  16.780  0.00  0.00     0.017 A 
HETATM   14  C   UNK N   1      36.536  11.393  14.401  0.00  0.00     0.254 A 
HETATM   15  C   UNK N   1      35.789  10.808  18.067  0.00  0.00     0.001 A 
HETATM   16  C   UNK N   1      35.251  12.089  18.314  0.00  0.00     0.001 A 
HETATM   17  O   UNK N   1      37.107  10.468  13.849  0.00  0.00    -0.267 OA
ENDBRANCH   7   8
ENDBRANCH   1   7
BRANCH   4  18
HETATM   18  C   UNK N   1      35.240  13.724   7.705  0.00  0.00     0.200 C 
BRANCH  18  19
HETATM   19  C   UNK N   1      35.118  15.066   7.017  0.00  0.00     0.176 C 
HETATM   20  O   UNK N   1      35.817  15.324   6.048  0.00  0.00    -0.291 OA
BRANCH  19  21
HETATM   21  C   UNK N   1      34.051  15.999   7.440  0.00  0.00     0.011 A 
HETATM   22  C   UNK N   1      32.781  15.523   7.806  0.00  0.00     0.018 A 
HETATM   23  C   UNK N   1      31.811  16.409   8.291  0.00  0.00     0.043 A 
HETATM   24  C   UNK N   1      32.100  17.773   8.396  0.00  0.00     0.116 A 
HETATM   25  C   UNK N   1      33.350  18.255   8.006  0.00  0.00     0.043 A 
HETATM   26  F   UNK N   1      31.173  18.630   8.886  0.00  0.00    -0.206 F 
HETATM   27  C   UNK N   1      34.324  17.370   7.540  0.00  0.00     0.018 A 
ENDBRANCH  19  21
ENDBRANCH  18  19
ENDBRANCH   4  18
TORSDOF 5
ENDMDL
MODEL 9
REMARK VINA RESULT:      -7.6      3.403      6.067
REMARK  5 active torsions:
REMARK  status: ('A' for Active; 'I' for Inactive)
REMARK    1  A    between atoms: N_8  and  C_11 
REMARK    2  A    between atoms: C_11  and  C_12 
REMARK    3  A    between atoms: N_15  and  C_18 
REMARK    4  A    between atoms: C_18  and  C_19 
REMARK    5  A    between atoms: C_19  and  C_21 
ROOT
HETATM    1  C   UNK N   1      33.171  16.501   8.657  0.00  0.00     0.007 C 
HETATM    2  C   UNK N   1      32.582  17.736   7.993  0.00  0.00     0.026 C 
HETATM    3  C   UNK N   1      32.199  17.438   6.553  0.00  0.00     0.117 C 
HETATM    4  N   UNK N   1      31.307  16.280   6.460  0.00  0.00    -0.405 N 
HETATM    5  C   UNK N   1      31.861  15.044   7.029  0.00  0.00     0.117 C 
HETATM    6  C   UNK N   1      32.340  15.228   8.471  0.00  0.00     0.026 C 
ENDROOT
BRANCH   1   7
HETATM    7  C   UNK N   1      34.695  16.346   8.597  0.00  0.00     0.131 C 
BRANCH   7   8
HETATM    8  N   UNK N   1      35.312  15.531   9.628  0.00  0.00    -0.343 N 
HETATM    9  C   UNK N   1      35.516  14.092   9.545  0.00  0.00     0.165 A 
HETATM   10  C   UNK N   1      35.882  13.766  10.973  0.00  0.00    -0.025 A 
HETATM   11  C   UNK N   1      35.875  14.898  11.744  0.00  0.00     0.040 A 
HETATM   12  C   UNK N   1      36.152  12.517  11.529  0.00  0.00     0.010 A 
HETATM   13  C   UNK N   1      36.117  14.861  13.117  0.00  0.00     0.017 A 
HETATM   14  C   UNK N   1      35.518  15.987  10.883  0.00  0.00     0.254 A 
HETATM   15  C   UNK N   1      36.390  13.613  13.702  0.00  0.00     0.001 A 
HETATM   16  C   UNK N   1      36.411  12.445  12.910  0.00  0.00     0.001 A 
HETATM   17  O   UNK N   1      35.338  17.140  11.234  0.00  0.00    -0.267 OA
ENDBRANCH   7   8
ENDBRANCH   1   7
BRANCH   4  18
HETATM   18  C   UNK N   1      29.907  16.583   6.779  0.00  0.00     0.200 C 
BRANCH  18  19
HETATM   19  C   UNK N   1      29.041  17.097   5.649  0.00  0.00     0.176 C 
HETATM   20  O   UNK N   1      28.783  16.376   4.698  0.00  0.00    -0.291 OA
BRANCH  19  21
HETATM   21  C   UNK N   1      28.402  18.425   5.779  0.00  0.00     0.011 A 
HETATM   22  C   UNK N   1      27.973  19.132   4.644  0.00  0.00     0.018 A 
HETATM   23  C   UNK N   1      27.289  20.345   4.788  0.00  0.00     0.043 A 
HETATM   24  C   UNK N   1      27.045  20.863   6.064  0.00  0.00     0.116 A 
HETATM   25  C   UNK N   1      27.495  20.179   7.194  0.00  0.00     0.043 A 
HETATM   26  F   UNK N   1      26.363  22.024   6.209  0.00  0.00    -0.206 F 
HETATM   27  C   UNK N   1      28.161  18.961   7.052  0.00  0.00     0.018 A 
ENDBRANCH  19  21
ENDBRANCH  18  19
ENDBRANCH   4  18
TORSDOF 5
ENDMDL
