REMARK  8 active torsions:
REMARK  status: ('A' for Active; 'I' for Inactive)
REMARK    1  A    between atoms: C_5  and  C_22 
REMARK    2  A    between atoms: C_7  and  O_10 
REMARK    3  A    between atoms: O_10  and  C_11 
REMARK    4  A    between atoms: C_11  and  C_12 
REMARK    5  A    between atoms: C_12  and  C_13 
REMARK    6  A    between atoms: C_13  and  C_14 
REMARK    7  A    between atoms: C_14  and  C_15 
REMARK    8  A    between atoms: C_15  and  N_16 
ROOT
HETATM    1  C   UNK N   1      -0.098  -7.642   0.395  0.00  0.00     0.089 C 
HETATM    2  C   UNK N   1      -0.003  -6.159   0.430  0.00  0.00     0.079 A 
HETATM    3  N   UNK N   1      -1.072  -5.402   0.068  0.00  0.00    -0.345 N 
ATOM      4  HN  UNK N   1      -1.935  -5.859  -0.226  1.00  0.00     0.167 HD
HETATM    5  C   UNK N   1      -1.005  -4.040   0.091  0.00  0.00     0.047 A 
HETATM    6  C   UNK N   1       0.177  -3.423   0.496  0.00  0.00     0.086 A 
HETATM    7  C   UNK N   1       1.254  -4.214   0.897  0.00  0.00     0.145 A 
HETATM    8  N   UNK N   1       1.141  -5.568   0.859  0.00  0.00    -0.327 N 
ATOM      9  HN  UNK N   1       1.926  -6.148   1.156  1.00  0.00     0.169 HD
ENDROOT
BRANCH   7  10
HETATM   10  O   UNK N   1       2.407  -3.661   1.329  0.00  0.00    -0.336 OA
BRANCH  10  11
HETATM   11  C   UNK N   1       2.713  -2.339   1.102  0.00  0.00     0.177 C 
BRANCH  11  12
HETATM   12  C   UNK N   1       3.895  -2.250   0.149  0.00  0.00     0.027 C 
BRANCH  12  13
HETATM   13  C   UNK N   1       3.820  -3.301  -0.962  0.00  0.00     0.004 C 
BRANCH  13  14
HETATM   14  C   UNK N   1       4.529  -4.581  -0.526  0.00  0.00     0.030 C 
BRANCH  14  15
HETATM   15  C   UNK N   1       5.990  -4.601  -0.969  0.00  0.00     0.272 C 
BRANCH  15  16
HETATM   16  N   UNK N   1       6.755  -3.557  -0.302  0.00  0.00     0.088 N 
HETATM   17  C   UNK N   1       6.685  -2.349  -1.124  0.00  0.00     0.272 C 
HETATM   18  C   UNK N   1       7.381  -1.206  -0.400  0.00  0.00     0.030 C 
HETATM   19  C   UNK N   1       8.849  -1.571  -0.211  0.00  0.00     0.003 C 
HETATM   20  C   UNK N   1       8.984  -2.928   0.481  0.00  0.00     0.030 C 
HETATM   21  C   UNK N   1       8.152  -3.981  -0.253  0.00  0.00     0.272 C 
ENDBRANCH  15  16
ENDBRANCH  14  15
ENDBRANCH  13  14
ENDBRANCH  12  13
ENDBRANCH  11  12
ENDBRANCH  10  11
ENDBRANCH   7  10
BRANCH   5  22
HETATM   22  C   UNK N   1      -2.215  -3.229  -0.137  0.00  0.00    -0.009 A 
HETATM   23  C   UNK N   1      -3.465  -3.854  -0.242  0.00  0.00     0.017 A 
HETATM   24  C   UNK N   1      -4.634  -3.088  -0.268  0.00  0.00     0.043 A 
HETATM   25  C   UNK N   1      -4.559  -1.694  -0.193  0.00  0.00     0.116 A 
HETATM   26  C   UNK N   1      -3.316  -1.063  -0.126  0.00  0.00     0.043 A 
HETATM   27  F   UNK N   1      -5.694  -0.956  -0.162  0.00  0.00    -0.206 F 
HETATM   28  C   UNK N   1      -2.149  -1.826  -0.090  0.00  0.00     0.017 A 
ENDBRANCH   5  22
TORSDOF 8
