MODEL 1
REMARK VINA RESULT:      -6.5      0.000      0.000
REMARK  1 active torsions:
REMARK  status: ('A' for Active; 'I' for Inactive)
REMARK    1  A    between atoms: N_17  and  C_12 
REMARK       I    between atoms: N_17  and  C_13 
ROOT
HETATM    1  C   UNK N   1      28.952  17.817   7.464  0.00  0.00     0.005 C 
HETATM    2  C   UNK N   1      29.624  17.302   8.722  0.00  0.00     0.005 C 
HETATM    3  C   UNK N   1      33.222  17.190   5.079  0.00  0.00     0.003 A 
HETATM    4  C   UNK N   1      29.618  17.213   6.230  0.00  0.00     0.039 C 
HETATM    5  C   UNK N   1      31.831  17.107   5.087  0.00  0.00     0.008 A 
HETATM    6  C   UNK N   1      31.073  17.772   8.775  0.00  0.00     0.041 C 
HETATM    7  C   UNK N   1      33.912  17.468   6.260  0.00  0.00     0.030 A 
HETATM    8  C   UNK N   1      31.117  17.304   6.272  0.00  0.00    -0.050 A 
HETATM    9  C   UNK N   1      31.813  17.578   7.474  0.00  0.00    -0.025 A 
HETATM   10  C   UNK N   1      33.218  17.663   7.464  0.00  0.00     0.056 A 
ENDROOT
BRANCH  10  11
HETATM   11  N   UNK N   1      33.906  17.910   8.686  0.00  0.00    -0.192 N 
HETATM   12  C   UNK N   1      34.641  16.953   9.437  0.00  0.00     0.674 A 
HETATM   13  N   UNK N   1      35.090  17.208  10.594  0.00  0.00    -0.225 N 
HETATM   14  N   UNK N   1      34.911  15.655   9.011  0.00  0.00    -0.225 N 
HETATM   15  C   UNK N   1      35.767  16.060  11.152  0.00  0.00     0.158 A 
ATOM     16  HN  UNK N   1      34.989  18.106  11.068  1.00  0.00     0.177 HD
HETATM   17  C   UNK N   1      35.644  14.978  10.048  0.00  0.00     0.158 A 
HETATM   18  H   UNK N   1      34.646  15.267   8.147  0.00  0.00     0.177 HD
HETATM   19  H   UNK N   1      33.870  18.828   9.044  0.00  0.00     0.184 HD
ENDBRANCH  10  11
TORSDOF 1
ENDMDL
MODEL 2
REMARK VINA RESULT:      -6.4      0.930      2.838
REMARK  1 active torsions:
REMARK  status: ('A' for Active; 'I' for Inactive)
REMARK    1  A    between atoms: N_17  and  C_12 
REMARK       I    between atoms: N_17  and  C_13 
ROOT
HETATM    1  C   UNK N   1      32.025  16.612   3.757  0.00  0.00     0.005 C 
HETATM    2  C   UNK N   1      33.101  17.562   4.244  0.00  0.00     0.005 C 
HETATM    3  C   UNK N   1      29.643  17.325   8.015  0.00  0.00     0.003 A 
HETATM    4  C   UNK N   1      30.684  16.967   4.395  0.00  0.00     0.039 C 
HETATM    5  C   UNK N   1      29.600  17.155   6.632  0.00  0.00     0.008 A 
HETATM    6  C   UNK N   1      33.312  17.394   5.745  0.00  0.00     0.041 C 
HETATM    7  C   UNK N   1      30.868  17.509   8.659  0.00  0.00     0.030 A 
HETATM    8  C   UNK N   1      30.779  17.163   5.882  0.00  0.00    -0.050 A 
HETATM    9  C   UNK N   1      32.023  17.357   6.530  0.00  0.00    -0.025 A 
HETATM   10  C   UNK N   1      32.064  17.526   7.926  0.00  0.00     0.056 A 
ENDROOT
BRANCH  10  11
HETATM   11  N   UNK N   1      33.320  17.750   8.560  0.00  0.00    -0.192 N 
HETATM   12  C   UNK N   1      33.941  16.890   9.506  0.00  0.00     0.674 A 
HETATM   13  N   UNK N   1      34.979  17.235  10.146  0.00  0.00    -0.225 N 
HETATM   14  N   UNK N   1      33.472  15.625   9.849  0.00  0.00    -0.225 N 
HETATM   15  C   UNK N   1      35.389  16.198  11.066  0.00  0.00     0.158 A 
ATOM     16  HN  UNK N   1      35.463  18.125  10.027  1.00  0.00     0.177 HD
HETATM   17  C   UNK N   1      34.339  15.075  10.857  0.00  0.00     0.158 A 
HETATM   18  H   UNK N   1      32.682  15.182   9.466  0.00  0.00     0.177 HD
HETATM   19  H   UNK N   1      33.801  18.577   8.323  0.00  0.00     0.184 HD
ENDBRANCH  10  11
TORSDOF 1
ENDMDL
MODEL 3
REMARK VINA RESULT:      -6.2      5.659      9.742
REMARK  1 active torsions:
REMARK  status: ('A' for Active; 'I' for Inactive)
REMARK    1  A    between atoms: N_17  and  C_12 
REMARK       I    between atoms: N_17  and  C_13 
ROOT
HETATM    1  C   UNK N   1      35.566  15.264  18.050  0.00  0.00     0.005 C 
HETATM    2  C   UNK N   1      36.895  15.419  17.336  0.00  0.00     0.005 C 
HETATM    3  C   UNK N   1      35.123  10.805  15.992  0.00  0.00     0.003 A 
HETATM    4  C   UNK N   1      35.283  13.788  18.315  0.00  0.00     0.039 C 
HETATM    5  C   UNK N   1      34.958  11.636  17.100  0.00  0.00     0.008 A 
HETATM    6  C   UNK N   1      36.832  14.767  15.960  0.00  0.00     0.041 C 
HETATM    7  C   UNK N   1      35.831  11.259  14.878  0.00  0.00     0.030 A 
HETATM    8  C   UNK N   1      35.494  12.926  17.102  0.00  0.00    -0.050 A 
HETATM    9  C   UNK N   1      36.220  13.387  15.978  0.00  0.00    -0.025 A 
HETATM   10  C   UNK N   1      36.384  12.549  14.860  0.00  0.00     0.056 A 
ENDROOT
BRANCH  10  11
HETATM   11  N   UNK N   1      37.142  13.016  13.748  0.00  0.00    -0.192 N 
HETATM   12  C   UNK N   1      36.614  13.606  12.568  0.00  0.00     0.674 A 
HETATM   13  N   UNK N   1      37.338  13.848  11.557  0.00  0.00    -0.225 N 
HETATM   14  N   UNK N   1      35.275  13.943  12.386  0.00  0.00    -0.225 N 
HETATM   15  C   UNK N   1      36.554  14.415  10.483  0.00  0.00     0.158 A 
ATOM     16  HN  UNK N   1      38.341  13.669  11.507  1.00  0.00     0.177 HD
HETATM   17  C   UNK N   1      35.117  14.483  11.062  0.00  0.00     0.158 A 
HETATM   18  H   UNK N   1      34.559  13.831  13.050  0.00  0.00     0.177 HD
HETATM   19  H   UNK N   1      38.121  12.920  13.802  0.00  0.00     0.184 HD
ENDBRANCH  10  11
TORSDOF 1
ENDMDL
MODEL 4
REMARK VINA RESULT:      -6.1      6.845     10.686
REMARK  1 active torsions:
REMARK  status: ('A' for Active; 'I' for Inactive)
REMARK    1  A    between atoms: N_17  and  C_12 
REMARK       I    between atoms: N_17  and  C_13 
ROOT
HETATM    1  C   UNK N   1      35.021  13.039  19.202  0.00  0.00     0.005 C 
HETATM    2  C   UNK N   1      35.353  13.871  17.979  0.00  0.00     0.005 C 
HETATM    3  C   UNK N   1      35.437   8.996  16.409  0.00  0.00     0.003 A 
HETATM    4  C   UNK N   1      35.665  11.660  19.088  0.00  0.00     0.039 C 
HETATM    5  C   UNK N   1      35.655   9.639  17.627  0.00  0.00     0.008 A 
HETATM    6  C   UNK N   1      34.740  13.242  16.733  0.00  0.00     0.041 C 
HETATM    7  C   UNK N   1      34.988   9.723  15.306  0.00  0.00     0.030 A 
HETATM    8  C   UNK N   1      35.424  11.011  17.753  0.00  0.00    -0.050 A 
HETATM    9  C   UNK N   1      34.976  11.754  16.635  0.00  0.00    -0.025 A 
HETATM   10  C   UNK N   1      34.754  11.103  15.407  0.00  0.00     0.056 A 
ENDROOT
BRANCH  10  11
HETATM   11  N   UNK N   1      34.332  11.869  14.283  0.00  0.00    -0.192 N 
HETATM   12  C   UNK N   1      35.177  12.393  13.267  0.00  0.00     0.674 A 
HETATM   13  N   UNK N   1      34.748  13.199  12.387  0.00  0.00    -0.225 N 
HETATM   14  N   UNK N   1      36.536  12.115  13.149  0.00  0.00    -0.225 N 
HETATM   15  C   UNK N   1      35.811  13.606  11.497  0.00  0.00     0.158 A 
ATOM     16  HN  UNK N   1      33.782  13.516  12.316  1.00  0.00     0.177 HD
HETATM   17  C   UNK N   1      37.057  12.849  12.027  0.00  0.00     0.158 A 
HETATM   18  H   UNK N   1      37.053  11.517  13.735  0.00  0.00     0.177 HD
HETATM   19  H   UNK N   1      33.367  12.052  14.202  0.00  0.00     0.184 HD
ENDBRANCH  10  11
TORSDOF 1
ENDMDL
MODEL 5
REMARK VINA RESULT:      -6.0      6.272     10.450
REMARK  1 active torsions:
REMARK  status: ('A' for Active; 'I' for Inactive)
REMARK    1  A    between atoms: N_17  and  C_12 
REMARK       I    between atoms: N_17  and  C_13 
ROOT
HETATM    1  C   UNK N   1      36.390   8.700  16.612  0.00  0.00     0.005 C 
HETATM    2  C   UNK N   1      36.367   9.009  15.128  0.00  0.00     0.005 C 
HETATM    3  C   UNK N   1      35.263  13.421  17.484  0.00  0.00     0.003 A 
HETATM    4  C   UNK N   1      35.450   9.643  17.358  0.00  0.00     0.039 C 
HETATM    5  C   UNK N   1      35.103  12.072  17.800  0.00  0.00     0.008 A 
HETATM    6  C   UNK N   1      36.915  10.408  14.873  0.00  0.00     0.041 C 
HETATM    7  C   UNK N   1      35.961  13.790  16.333  0.00  0.00     0.030 A 
HETATM    8  C   UNK N   1      35.641  11.084  16.972  0.00  0.00    -0.050 A 
HETATM    9  C   UNK N   1      36.342  11.453  15.800  0.00  0.00    -0.025 A 
HETATM   10  C   UNK N   1      36.505  12.815  15.483  0.00  0.00     0.056 A 
ENDROOT
BRANCH  10  11
HETATM   11  N   UNK N   1      37.187  13.171  14.285  0.00  0.00    -0.192 N 
HETATM   12  C   UNK N   1      36.577  13.487  13.041  0.00  0.00     0.674 A 
HETATM   13  N   UNK N   1      37.255  13.637  11.981  0.00  0.00    -0.225 N 
HETATM   14  N   UNK N   1      35.206  13.629  12.848  0.00  0.00    -0.225 N 
HETATM   15  C   UNK N   1      36.396  13.918  10.853  0.00  0.00     0.158 A 
ATOM     16  HN  UNK N   1      38.272  13.571  11.930  1.00  0.00     0.177 HD
HETATM   17  C   UNK N   1      34.968  13.914  11.458  0.00  0.00     0.158 A 
HETATM   18  H   UNK N   1      34.516  13.548  13.545  0.00  0.00     0.177 HD
HETATM   19  H   UNK N   1      38.172  13.202  14.322  0.00  0.00     0.184 HD
ENDBRANCH  10  11
TORSDOF 1
ENDMDL
MODEL 6
REMARK VINA RESULT:      -5.9      4.565      8.549
REMARK  1 active torsions:
REMARK  status: ('A' for Active; 'I' for Inactive)
REMARK    1  A    between atoms: N_17  and  C_12 
REMARK       I    between atoms: N_17  and  C_13 
ROOT
HETATM    1  C   UNK N   1      35.377  13.650  16.840  0.00  0.00     0.005 C 
HETATM    2  C   UNK N   1      36.596  13.912  15.977  0.00  0.00     0.005 C 
HETATM    3  C   UNK N   1      33.854  10.381  13.478  0.00  0.00     0.003 A 
HETATM    4  C   UNK N   1      34.876  12.226  16.620  0.00  0.00     0.039 C 
HETATM    5  C   UNK N   1      34.000  10.744  14.816  0.00  0.00     0.008 A 
HETATM    6  C   UNK N   1      36.221  13.841  14.501  0.00  0.00     0.041 C 
HETATM    7  C   UNK N   1      34.465  11.138  12.478  0.00  0.00     0.030 A 
HETATM    8  C   UNK N   1      34.753  11.868  15.165  0.00  0.00    -0.050 A 
HETATM    9  C   UNK N   1      35.381  12.635  14.155  0.00  0.00    -0.025 A 
HETATM   10  C   UNK N   1      35.231  12.268  12.805  0.00  0.00     0.056 A 
ENDROOT
BRANCH  10  11
HETATM   11  N   UNK N   1      35.892  13.031  11.801  0.00  0.00    -0.192 N 
HETATM   12  C   UNK N   1      35.273  13.940  10.901  0.00  0.00     0.674 A 
HETATM   13  N   UNK N   1      35.903  14.460   9.932  0.00  0.00    -0.225 N 
HETATM   14  N   UNK N   1      33.936  14.324  10.963  0.00  0.00    -0.225 N 
HETATM   15  C   UNK N   1      35.039  15.317   9.153  0.00  0.00     0.158 A 
ATOM     16  HN  UNK N   1      36.889  14.296   9.729  1.00  0.00     0.177 HD
HETATM   17  C   UNK N   1      33.668  15.224   9.873  0.00  0.00     0.158 A 
HETATM   18  H   UNK N   1      33.284  14.029  11.638  0.00  0.00     0.177 HD
HETATM   19  H   UNK N   1      36.868  12.918  11.722  0.00  0.00     0.184 HD
ENDBRANCH  10  11
TORSDOF 1
ENDMDL
MODEL 7
REMARK VINA RESULT:      -5.6     16.734     18.884
REMARK  1 active torsions:
REMARK  status: ('A' for Active; 'I' for Inactive)
REMARK    1  A    between atoms: N_17  and  C_12 
REMARK       I    between atoms: N_17  and  C_13 
ROOT
HETATM    1  C   UNK N   1      29.229  29.975  -7.432  0.00  0.00     0.005 C 
HETATM    2  C   UNK N   1      29.175  28.501  -7.781  0.00  0.00     0.005 C 
HETATM    3  C   UNK N   1      26.108  29.082  -3.721  0.00  0.00     0.003 A 
HETATM    4  C   UNK N   1      28.973  30.170  -5.940  0.00  0.00     0.039 C 
HETATM    5  C   UNK N   1      27.226  29.755  -4.210  0.00  0.00     0.008 A 
HETATM    6  C   UNK N   1      27.773  27.954  -7.538  0.00  0.00     0.041 C 
HETATM    7  C   UNK N   1      25.528  28.056  -4.468  0.00  0.00     0.030 A 
HETATM    8  C   UNK N   1      27.772  29.411  -5.449  0.00  0.00    -0.050 A 
HETATM    9  C   UNK N   1      27.192  28.365  -6.207  0.00  0.00    -0.025 A 
HETATM   10  C   UNK N   1      26.062  27.689  -5.713  0.00  0.00     0.056 A 
ENDROOT
BRANCH  10  11
HETATM   11  N   UNK N   1      25.507  26.619  -6.471  0.00  0.00    -0.192 N 
HETATM   12  C   UNK N   1      25.917  25.259  -6.418  0.00  0.00     0.674 A 
HETATM   13  N   UNK N   1      25.485  24.395  -7.240  0.00  0.00    -0.225 N 
HETATM   14  N   UNK N   1      26.836  24.746  -5.507  0.00  0.00    -0.225 N 
HETATM   15  C   UNK N   1      26.080  23.102  -6.992  0.00  0.00     0.158 A 
ATOM     16  HN  UNK N   1      24.806  24.587  -7.977  1.00  0.00     0.177 HD
HETATM   17  C   UNK N   1      27.020  23.347  -5.782  0.00  0.00     0.158 A 
HETATM   18  H   UNK N   1      27.283  25.256  -4.794  0.00  0.00     0.177 HD
HETATM   19  H   UNK N   1      24.773  26.842  -7.090  0.00  0.00     0.184 HD
ENDBRANCH  10  11
TORSDOF 1
ENDMDL
MODEL 8
REMARK VINA RESULT:      -5.6     10.922     13.443
REMARK  1 active torsions:
REMARK  status: ('A' for Active; 'I' for Inactive)
REMARK    1  A    between atoms: N_17  and  C_12 
REMARK       I    between atoms: N_17  and  C_13 
ROOT
HETATM    1  C   UNK N   1      35.872  13.369  16.234  0.00  0.00     0.005 C 
HETATM    2  C   UNK N   1      34.749  13.423  17.252  0.00  0.00     0.005 C 
HETATM    3  C   UNK N   1      36.860   8.783  17.753  0.00  0.00     0.003 A 
HETATM    4  C   UNK N   1      36.106  11.929  15.789  0.00  0.00     0.039 C 
HETATM    5  C   UNK N   1      36.744   9.701  16.710  0.00  0.00     0.008 A 
HETATM    6  C   UNK N   1      35.148  12.670  18.516  0.00  0.00     0.041 C 
HETATM    7  C   UNK N   1      36.430   9.125  19.036  0.00  0.00     0.030 A 
HETATM    8  C   UNK N   1      36.203  10.969  16.941  0.00  0.00    -0.050 A 
HETATM    9  C   UNK N   1      35.759  11.318  18.239  0.00  0.00    -0.025 A 
HETATM   10  C   UNK N   1      35.878  10.390  19.291  0.00  0.00     0.056 A 
ENDROOT
BRANCH  10  11
HETATM   11  N   UNK N   1      35.400  10.744  20.585  0.00  0.00    -0.192 N 
HETATM   12  C   UNK N   1      34.181  10.308  21.171  0.00  0.00     0.674 A 
HETATM   13  N   UNK N   1      33.748  10.792  22.259  0.00  0.00    -0.225 N 
HETATM   14  N   UNK N   1      33.335   9.352  20.615  0.00  0.00    -0.225 N 
HETATM   15  C   UNK N   1      32.478  10.205  22.619  0.00  0.00     0.158 A 
ATOM     16  HN  UNK N   1      34.233  11.502  22.810  1.00  0.00     0.177 HD
HETATM   17  C   UNK N   1      32.191   9.199  21.473  0.00  0.00     0.158 A 
HETATM   18  H   UNK N   1      33.494   8.864  19.776  0.00  0.00     0.177 HD
HETATM   19  H   UNK N   1      35.965  11.346  21.122  0.00  0.00     0.184 HD
ENDBRANCH  10  11
TORSDOF 1
ENDMDL
MODEL 9
REMARK VINA RESULT:      -5.4      5.348      9.346
REMARK  1 active torsions:
REMARK  status: ('A' for Active; 'I' for Inactive)
REMARK    1  A    between atoms: N_17  and  C_12 
REMARK       I    between atoms: N_17  and  C_13 
ROOT
HETATM    1  C   UNK N   1      35.215  11.526  17.555  0.00  0.00     0.005 C 
HETATM    2  C   UNK N   1      34.945  12.863  16.892  0.00  0.00     0.005 C 
HETATM    3  C   UNK N   1      37.370  10.031  13.379  0.00  0.00     0.003 A 
HETATM    4  C   UNK N   1      36.462  10.885  16.953  0.00  0.00     0.039 C 
HETATM    5  C   UNK N   1      37.347  10.059  14.773  0.00  0.00     0.008 A 
HETATM    6  C   UNK N   1      34.622  12.662  15.416  0.00  0.00     0.041 C 
HETATM    7  C   UNK N   1      36.502  10.846  12.651  0.00  0.00     0.030 A 
HETATM    8  C   UNK N   1      36.456  10.896  15.449  0.00  0.00    -0.050 A 
HETATM    9  C   UNK N   1      35.580  11.730  14.715  0.00  0.00    -0.025 A 
HETATM   10  C   UNK N   1      35.602  11.700  13.308  0.00  0.00     0.056 A 
ENDROOT
BRANCH  10  11
HETATM   11  N   UNK N   1      34.736  12.566  12.582  0.00  0.00    -0.192 N 
HETATM   12  C   UNK N   1      35.109  13.787  11.958  0.00  0.00     0.674 A 
HETATM   13  N   UNK N   1      34.250  14.581  11.469  0.00  0.00    -0.225 N 
HETATM   14  N   UNK N   1      36.418  14.249  11.848  0.00  0.00    -0.225 N 
HETATM   15  C   UNK N   1      34.885  15.760  10.927  0.00  0.00     0.158 A 
ATOM     16  HN  UNK N   1      33.245  14.409  11.458  1.00  0.00     0.177 HD
HETATM   17  C   UNK N   1      36.396  15.528  11.190  0.00  0.00     0.158 A 
HETATM   18  H   UNK N   1      37.221  13.780  12.167  0.00  0.00     0.177 HD
HETATM   19  H   UNK N   1      33.792  12.294  12.505  0.00  0.00     0.184 HD
ENDBRANCH  10  11
TORSDOF 1
ENDMDL
