MODEL 1
REMARK VINA RESULT:      -4.4      0.000      0.000
REMARK  4 active torsions:
REMARK  status: ('A' for Active; 'I' for Inactive)
REMARK    1  A    between atoms: C_2  and  C_3 
REMARK    2  A    between atoms: C_3  and  C_5 
REMARK    3  A    between atoms: C_5  and  C_6 
REMARK    4  A    between atoms: C_5  and  C_8 
REMARK       I    between atoms: C_8  and  N_10 
ROOT
HETATM    1  C   UNK N   1      35.906  12.969  15.829  0.00  0.00     0.081 C 
ENDROOT
BRANCH   1   2
HETATM    2  C   UNK N   1      36.075  11.477  15.414  0.00  0.00    -0.006 C 
HETATM    3  C   UNK N   1      37.388  10.937  14.862  0.00  0.00     0.011 C 
BRANCH   2   4
HETATM    4  C   UNK N   1      34.884  10.518  15.565  0.00  0.00     0.000 C 
HETATM    5  C   UNK N   1      33.746  10.767  14.589  0.00  0.00     0.005 C 
ENDBRANCH   2   4
ENDBRANCH   1   2
BRANCH   1   6
HETATM    6  C   UNK N   1      34.897  13.500  16.873  0.00  0.00     0.010 C 
HETATM    7  C   UNK N   1      35.198  13.224  18.333  0.00  0.00     0.006 C 
ENDBRANCH   1   6
BRANCH   1   8
HETATM    8  C   UNK N   1      36.772  14.039  15.193  0.00  0.00     0.219 C 
HETATM    9  O   UNK N   1      37.534  14.713  15.873  0.00  0.00    -0.273 OA
HETATM   10  N   UNK N   1      36.713  14.261  13.867  0.00  0.00    -0.370 N 
HETATM   11  H   UNK N   1      36.105  13.727  13.306  0.00  0.00     0.159 HD
HETATM   12  H   UNK N   1      37.277  14.956  13.459  0.00  0.00     0.159 HD
ENDBRANCH   1   8
TORSDOF 4
ENDMDL
MODEL 2
REMARK VINA RESULT:      -4.4      9.464     10.257
REMARK  4 active torsions:
REMARK  status: ('A' for Active; 'I' for Inactive)
REMARK    1  A    between atoms: C_2  and  C_3 
REMARK    2  A    between atoms: C_3  and  C_5 
REMARK    3  A    between atoms: C_5  and  C_6 
REMARK    4  A    between atoms: C_5  and  C_8 
REMARK       I    between atoms: C_8  and  N_10 
ROOT
HETATM    1  C   UNK N   1      33.494  17.675   7.671  0.00  0.00     0.081 C 
ENDROOT
BRANCH   1   2
HETATM    2  C   UNK N   1      33.821  17.037   6.288  0.00  0.00    -0.006 C 
HETATM    3  C   UNK N   1      34.689  15.792   6.158  0.00  0.00     0.011 C 
BRANCH   2   4
HETATM    4  C   UNK N   1      33.252  17.679   5.013  0.00  0.00     0.000 C 
HETATM    5  C   UNK N   1      32.776  16.686   3.965  0.00  0.00     0.005 C 
ENDBRANCH   2   4
ENDBRANCH   1   2
BRANCH   1   6
HETATM    6  C   UNK N   1      32.074  17.923   8.230  0.00  0.00     0.010 C 
HETATM    7  C   UNK N   1      31.018  16.877   7.934  0.00  0.00     0.006 C 
ENDBRANCH   1   6
BRANCH   1   8
HETATM    8  C   UNK N   1      34.617  18.110   8.592  0.00  0.00     0.219 C 
HETATM    9  O   UNK N   1      35.239  19.142   8.377  0.00  0.00    -0.273 OA
HETATM   10  N   UNK N   1      34.944  17.364   9.663  0.00  0.00    -0.370 N 
HETATM   11  H   UNK N   1      34.453  16.531   9.851  0.00  0.00     0.159 HD
HETATM   12  H   UNK N   1      35.673  17.651  10.259  0.00  0.00     0.159 HD
ENDBRANCH   1   8
TORSDOF 4
ENDMDL
MODEL 3
REMARK VINA RESULT:      -4.3      1.546      3.372
REMARK  4 active torsions:
REMARK  status: ('A' for Active; 'I' for Inactive)
REMARK    1  A    between atoms: C_2  and  C_3 
REMARK    2  A    between atoms: C_3  and  C_5 
REMARK    3  A    between atoms: C_5  and  C_6 
REMARK    4  A    between atoms: C_5  and  C_8 
REMARK       I    between atoms: C_8  and  N_10 
ROOT
HETATM    1  C   UNK N   1      35.386  12.209  15.804  0.00  0.00     0.081 C 
ENDROOT
BRANCH   1   2
HETATM    2  C   UNK N   1      35.295  12.509  17.330  0.00  0.00    -0.006 C 
HETATM    3  C   UNK N   1      35.174  13.930  17.867  0.00  0.00     0.011 C 
BRANCH   2   4
HETATM    4  C   UNK N   1      35.329  11.340  18.327  0.00  0.00     0.000 C 
HETATM    5  C   UNK N   1      35.478  11.757  19.781  0.00  0.00     0.005 C 
ENDBRANCH   2   4
ENDBRANCH   1   2
BRANCH   1   6
HETATM    6  C   UNK N   1      34.967  10.885  15.125  0.00  0.00     0.010 C 
HETATM    7  C   UNK N   1      33.522  10.756  14.686  0.00  0.00     0.006 C 
ENDBRANCH   1   6
BRANCH   1   8
HETATM    8  C   UNK N   1      35.922  13.261  14.852  0.00  0.00     0.219 C 
HETATM    9  O   UNK N   1      35.205  13.745  13.986  0.00  0.00    -0.273 OA
HETATM   10  N   UNK N   1      37.198  13.677  14.948  0.00  0.00    -0.370 N 
HETATM   11  H   UNK N   1      37.788  13.298  15.639  0.00  0.00     0.159 HD
HETATM   12  H   UNK N   1      37.541  14.360  14.328  0.00  0.00     0.159 HD
ENDBRANCH   1   8
TORSDOF 4
ENDMDL
MODEL 4
REMARK VINA RESULT:      -4.3      8.992      9.831
REMARK  4 active torsions:
REMARK  status: ('A' for Active; 'I' for Inactive)
REMARK    1  A    between atoms: C_2  and  C_3 
REMARK    2  A    between atoms: C_3  and  C_5 
REMARK    3  A    between atoms: C_5  and  C_6 
REMARK    4  A    between atoms: C_5  and  C_8 
REMARK       I    between atoms: C_8  and  N_10 
ROOT
HETATM    1  C   UNK N   1      33.497  17.710   7.716  0.00  0.00     0.081 C 
ENDROOT
BRANCH   1   2
HETATM    2  C   UNK N   1      33.797  17.045   6.340  0.00  0.00    -0.006 C 
HETATM    3  C   UNK N   1      33.215  17.584   5.039  0.00  0.00     0.011 C 
BRANCH   2   4
HETATM    4  C   UNK N   1      34.708  15.808   6.288  0.00  0.00     0.000 C 
HETATM    5  C   UNK N   1      34.271  14.666   7.190  0.00  0.00     0.005 C 
ENDBRANCH   2   4
ENDBRANCH   1   2
BRANCH   1   6
HETATM    6  C   UNK N   1      32.088  17.998   8.283  0.00  0.00     0.010 C 
HETATM    7  C   UNK N   1      31.053  16.897   8.166  0.00  0.00     0.006 C 
ENDBRANCH   1   6
BRANCH   1   8
HETATM    8  C   UNK N   1      34.637  18.134   8.622  0.00  0.00     0.219 C 
HETATM    9  O   UNK N   1      35.263  19.162   8.401  0.00  0.00    -0.273 OA
HETATM   10  N   UNK N   1      34.975  17.381   9.684  0.00  0.00    -0.370 N 
HETATM   11  H   UNK N   1      34.482  16.551   9.876  0.00  0.00     0.159 HD
HETATM   12  H   UNK N   1      35.716  17.660  10.270  0.00  0.00     0.159 HD
ENDBRANCH   1   8
TORSDOF 4
ENDMDL
MODEL 5
REMARK VINA RESULT:      -4.3     13.166     14.293
REMARK  4 active torsions:
REMARK  status: ('A' for Active; 'I' for Inactive)
REMARK    1  A    between atoms: C_2  and  C_3 
REMARK    2  A    between atoms: C_3  and  C_5 
REMARK    3  A    between atoms: C_5  and  C_6 
REMARK    4  A    between atoms: C_5  and  C_8 
REMARK       I    between atoms: C_8  and  N_10 
ROOT
HETATM    1  C   UNK N   1      22.884  12.316  10.398  0.00  0.00     0.081 C 
ENDROOT
BRANCH   1   2
HETATM    2  C   UNK N   1      23.784  12.219   9.131  0.00  0.00    -0.006 C 
HETATM    3  C   UNK N   1      24.822  13.283   8.795  0.00  0.00     0.011 C 
BRANCH   2   4
HETATM    4  C   UNK N   1      23.625  11.016   8.187  0.00  0.00     0.000 C 
HETATM    5  C   UNK N   1      22.672  11.248   7.026  0.00  0.00     0.005 C 
ENDBRANCH   2   4
ENDBRANCH   1   2
BRANCH   1   6
HETATM    6  C   UNK N   1      21.412  12.787  10.417  0.00  0.00     0.010 C 
HETATM    7  C   UNK N   1      21.074  14.044   9.640  0.00  0.00     0.006 C 
ENDBRANCH   1   6
BRANCH   1   8
HETATM    8  C   UNK N   1      23.437  11.929  11.756  0.00  0.00     0.219 C 
HETATM    9  O   UNK N   1      24.641  11.961  11.974  0.00  0.00    -0.273 OA
HETATM   10  N   UNK N   1      22.607  11.545  12.743  0.00  0.00    -0.370 N 
HETATM   11  H   UNK N   1      21.636  11.514  12.584  0.00  0.00     0.159 HD
HETATM   12  H   UNK N   1      22.971  11.295  13.623  0.00  0.00     0.159 HD
ENDBRANCH   1   8
TORSDOF 4
ENDMDL
MODEL 6
REMARK VINA RESULT:      -4.2      9.011     10.029
REMARK  4 active torsions:
REMARK  status: ('A' for Active; 'I' for Inactive)
REMARK    1  A    between atoms: C_2  and  C_3 
REMARK    2  A    between atoms: C_3  and  C_5 
REMARK    3  A    between atoms: C_5  and  C_6 
REMARK    4  A    between atoms: C_5  and  C_8 
REMARK       I    between atoms: C_8  and  N_10 
ROOT
HETATM    1  C   UNK N   1      33.178  17.726   7.766  0.00  0.00     0.081 C 
ENDROOT
BRANCH   1   2
HETATM    2  C   UNK N   1      31.793  17.478   8.435  0.00  0.00    -0.006 C 
HETATM    3  C   UNK N   1      31.312  16.078   8.797  0.00  0.00     0.011 C 
BRANCH   2   4
HETATM    4  C   UNK N   1      30.882  18.677   8.741  0.00  0.00     0.000 C 
HETATM    5  C   UNK N   1      29.690  18.353   9.627  0.00  0.00     0.005 C 
ENDBRANCH   2   4
ENDBRANCH   1   2
BRANCH   1   6
HETATM    6  C   UNK N   1      33.473  17.619   6.252  0.00  0.00     0.010 C 
HETATM    7  C   UNK N   1      34.110  16.336   5.757  0.00  0.00     0.006 C 
ENDBRANCH   1   6
BRANCH   1   8
HETATM    8  C   UNK N   1      34.375  18.108   8.614  0.00  0.00     0.219 C 
HETATM    9  O   UNK N   1      35.067  19.074   8.321  0.00  0.00    -0.273 OA
HETATM   10  N   UNK N   1      34.694  17.386   9.703  0.00  0.00    -0.370 N 
HETATM   11  H   UNK N   1      34.148  16.606   9.953  0.00  0.00     0.159 HD
HETATM   12  H   UNK N   1      35.472  17.638  10.251  0.00  0.00     0.159 HD
ENDBRANCH   1   8
TORSDOF 4
ENDMDL
MODEL 7
REMARK VINA RESULT:      -4.2      0.804      2.674
REMARK  4 active torsions:
REMARK  status: ('A' for Active; 'I' for Inactive)
REMARK    1  A    between atoms: C_2  and  C_3 
REMARK    2  A    between atoms: C_3  and  C_5 
REMARK    3  A    between atoms: C_5  and  C_6 
REMARK    4  A    between atoms: C_5  and  C_8 
REMARK       I    between atoms: C_8  and  N_10 
ROOT
HETATM    1  C   UNK N   1      36.633  12.687  15.238  0.00  0.00     0.081 C 
ENDROOT
BRANCH   1   2
HETATM    2  C   UNK N   1      35.409  12.301  16.120  0.00  0.00    -0.006 C 
HETATM    3  C   UNK N   1      34.869  13.228  17.202  0.00  0.00     0.011 C 
BRANCH   2   4
HETATM    4  C   UNK N   1      34.721  10.945  15.896  0.00  0.00     0.000 C 
HETATM    5  C   UNK N   1      33.776  10.907  14.706  0.00  0.00     0.005 C 
ENDBRANCH   2   4
ENDBRANCH   1   2
BRANCH   1   6
HETATM    6  C   UNK N   1      37.594  11.689  14.553  0.00  0.00     0.010 C 
HETATM    7  C   UNK N   1      37.283  11.293  13.123  0.00  0.00     0.006 C 
ENDBRANCH   1   6
BRANCH   1   8
HETATM    8  C   UNK N   1      36.963  14.146  14.991  0.00  0.00     0.219 C 
HETATM    9  O   UNK N   1      37.535  14.812  15.844  0.00  0.00    -0.273 OA
HETATM   10  N   UNK N   1      36.631  14.730  13.826  0.00  0.00    -0.370 N 
HETATM   11  H   UNK N   1      36.171  14.209  13.128  0.00  0.00     0.159 HD
HETATM   12  H   UNK N   1      36.847  15.678  13.670  0.00  0.00     0.159 HD
ENDBRANCH   1   8
TORSDOF 4
ENDMDL
MODEL 8
REMARK VINA RESULT:      -4.2     13.641     14.760
REMARK  4 active torsions:
REMARK  status: ('A' for Active; 'I' for Inactive)
REMARK    1  A    between atoms: C_2  and  C_3 
REMARK    2  A    between atoms: C_3  and  C_5 
REMARK    3  A    between atoms: C_5  and  C_6 
REMARK    4  A    between atoms: C_5  and  C_8 
REMARK       I    between atoms: C_8  and  N_10 
ROOT
HETATM    1  C   UNK N   1      22.272  12.502  10.602  0.00  0.00     0.081 C 
ENDROOT
BRANCH   1   2
HETATM    2  C   UNK N   1      23.506  12.267   9.680  0.00  0.00    -0.006 C 
HETATM    3  C   UNK N   1      24.766  13.117   9.787  0.00  0.00     0.011 C 
BRANCH   2   4
HETATM    4  C   UNK N   1      23.454  11.147   8.629  0.00  0.00     0.000 C 
HETATM    5  C   UNK N   1      22.743  11.524   7.340  0.00  0.00     0.005 C 
ENDBRANCH   2   4
ENDBRANCH   1   2
BRANCH   1   6
HETATM    6  C   UNK N   1      22.086  11.909  12.017  0.00  0.00     0.010 C 
HETATM    7  C   UNK N   1      23.298  11.888  12.927  0.00  0.00     0.006 C 
ENDBRANCH   1   6
BRANCH   1   8
HETATM    8  C   UNK N   1      21.124  13.373  10.130  0.00  0.00     0.219 C 
HETATM    9  O   UNK N   1      19.965  13.067  10.374  0.00  0.00    -0.273 OA
HETATM   10  N   UNK N   1      21.368  14.499   9.435  0.00  0.00    -0.370 N 
HETATM   11  H   UNK N   1      22.295  14.760   9.231  0.00  0.00     0.159 HD
HETATM   12  H   UNK N   1      20.619  15.062   9.131  0.00  0.00     0.159 HD
ENDBRANCH   1   8
TORSDOF 4
ENDMDL
MODEL 9
REMARK VINA RESULT:      -4.1      1.880      3.269
REMARK  4 active torsions:
REMARK  status: ('A' for Active; 'I' for Inactive)
REMARK    1  A    between atoms: C_2  and  C_3 
REMARK    2  A    between atoms: C_3  and  C_5 
REMARK    3  A    between atoms: C_5  and  C_6 
REMARK    4  A    between atoms: C_5  and  C_8 
REMARK       I    between atoms: C_8  and  N_10 
ROOT
HETATM    1  C   UNK N   1      35.763  12.545  13.992  0.00  0.00     0.081 C 
ENDROOT
BRANCH   1   2
HETATM    2  C   UNK N   1      34.634  12.134  14.982  0.00  0.00    -0.006 C 
HETATM    3  C   UNK N   1      33.733  10.932  14.724  0.00  0.00     0.011 C 
BRANCH   2   4
HETATM    4  C   UNK N   1      34.417  12.961  16.259  0.00  0.00     0.000 C 
HETATM    5  C   UNK N   1      35.257  12.520  17.446  0.00  0.00     0.005 C 
ENDBRANCH   2   4
ENDBRANCH   1   2
BRANCH   1   6
HETATM    6  C   UNK N   1      37.014  11.701  13.659  0.00  0.00     0.010 C 
HETATM    7  C   UNK N   1      37.600  10.856  14.773  0.00  0.00     0.006 C 
ENDBRANCH   1   6
BRANCH   1   8
HETATM    8  C   UNK N   1      35.689  13.873  13.262  0.00  0.00     0.219 C 
HETATM    9  O   UNK N   1      34.787  14.101  12.468  0.00  0.00    -0.273 OA
HETATM   10  N   UNK N   1      36.619  14.820  13.481  0.00  0.00    -0.370 N 
HETATM   11  H   UNK N   1      37.352  14.653  14.117  0.00  0.00     0.159 HD
HETATM   12  H   UNK N   1      36.567  15.680  13.004  0.00  0.00     0.159 HD
ENDBRANCH   1   8
TORSDOF 4
ENDMDL
