REMARK  1 active torsions:
REMARK  status: ('A' for Active; 'I' for Inactive)
REMARK    1  A    between atoms: C_4  and  C_8 
REMARK       I    between atoms: C_11  and  N_18 
REMARK       I    between atoms: C_14  and  N_17 
ROOT
HETATM    1  C   UNK N   1      -1.046  -3.094  -0.012  0.00  0.00     0.148 A 
HETATM    2  N   UNK N   1      -1.193  -4.445  -0.005  0.00  0.00    -0.175 N 
ATOM      3  HN  UNK N   1      -0.370  -5.044  -0.063  1.00  0.00     0.186 HD
HETATM    4  C   UNK N   1      -2.427  -5.002   0.077  0.00  0.00     0.692 A 
HETATM    5  N   UNK N   1      -3.525  -4.210   0.161  0.00  0.00    -0.023 N 
ATOM      6  HN  UNK N   1      -4.452  -4.629   0.231  1.00  0.00     0.203 HD
HETATM    7  C   UNK N   1      -3.388  -2.862   0.151  0.00  0.00     0.692 A 
HETATM    8  N   UNK N   1      -2.153  -2.307   0.064  0.00  0.00    -0.175 N 
ATOM      9  HN  UNK N   1      -2.054  -1.292   0.057  1.00  0.00     0.186 HD
HETATM   10  N   UNK N   1      -4.524  -2.037   0.254  0.00  0.00    -0.234 N 
HETATM   11  N   UNK N   1      -2.566  -6.403   0.099  0.00  0.00    -0.234 N 
HETATM   12  H   UNK N   1      -4.422  -1.060   0.326  0.00  0.00     0.174 HD
HETATM   13  H   UNK N   1      -5.423  -2.438   0.254  0.00  0.00     0.174 HD
HETATM   14  H   UNK N   1      -3.463  -6.809   0.114  0.00  0.00     0.174 HD
HETATM   15  H   UNK N   1      -1.767  -6.977   0.099  0.00  0.00     0.174 HD
ENDROOT
BRANCH   1  16
HETATM   16  C   UNK N   1       0.301  -2.459  -0.039  0.00  0.00     0.032 A 
HETATM   17  C   UNK N   1       1.525  -3.187  -0.038  0.00  0.00     0.048 A 
HETATM   18  C   UNK N   1       2.741  -2.495  -0.016  0.00  0.00     0.026 A 
HETATM   19 Cl   UNK N   1       1.612  -4.944  -0.043  0.00  0.00    -0.083 Cl
HETATM   20  C   UNK N   1       2.770  -1.101   0.002  0.00  0.00     0.025 A 
HETATM   21  C   UNK N   1       1.578  -0.382  -0.008  0.00  0.00     0.035 A 
HETATM   22  C   UNK N   1       0.358  -1.055  -0.026  0.00  0.00     0.041 A 
HETATM   23 Cl   UNK N   1       1.609   1.368   0.019  0.00  0.00    -0.084 Cl
ENDBRANCH   1  16
TORSDOF 1
