MODEL 1
REMARK VINA RESULT:      -8.3      0.000      0.000
REMARK  7 active torsions:
REMARK  status: ('A' for Active; 'I' for Inactive)
REMARK    1  A    between atoms: C_5  and  C_21 
REMARK    2  A    between atoms: C_10  and  O_20 
REMARK    3  A    between atoms: C_11  and  C_14 
REMARK       I    between atoms: C_14  and  N_16 
REMARK    4  A    between atoms: N_16  and  C_17 
REMARK    5  A    between atoms: C_17  and  C_18 
REMARK    6  A    between atoms: C_18  and  O_19 
REMARK    7  A    between atoms: C_21  and  C_22 
ROOT
HETATM    1  C   UNK N   1      32.290  17.143   3.898  0.00  0.00     0.159 C 
HETATM    2  N   UNK N   1      32.038  17.304   5.330  0.00  0.00    -0.316 N 
HETATM    3  C   UNK N   1      30.755  17.267   5.809  0.00  0.00     0.067 A 
HETATM    4  C   UNK N   1      29.648  17.077   4.954  0.00  0.00     0.041 A 
HETATM    5  C   UNK N   1      28.348  17.046   5.478  0.00  0.00    -0.036 A 
HETATM    6  C   UNK N   1      28.187  17.204   6.856  0.00  0.00     0.096 A 
HETATM    7  N   UNK N   1      29.251  17.385   7.669  0.00  0.00    -0.361 N 
ATOM      8  HN  UNK N   1      29.097  17.498   8.671  1.00  0.00     0.165 HD
HETATM    9  C   UNK N   1      30.517  17.421   7.187  0.00  0.00     0.094 A 
HETATM   10  C   UNK N   1      31.577  17.611   8.066  0.00  0.00     0.116 A 
HETATM   11  C   UNK N   1      32.899  17.650   7.584  0.00  0.00     0.135 A 
HETATM   12  C   UNK N   1      33.110  17.491   6.187  0.00  0.00     0.266 A 
HETATM   13  O   UNK N   1      34.244  17.519   5.733  0.00  0.00    -0.267 OA
ENDROOT
BRANCH   5  14
HETATM   14  C   UNK N   1      27.167  16.839   4.549  0.00  0.00     0.078 C 
BRANCH  14  15
HETATM   15  C   UNK N   1      26.309  18.028   4.141  0.00  0.00    -0.054 A 
HETATM   16  C   UNK N   1      24.915  17.893   4.177  0.00  0.00     0.010 A 
HETATM   17  C   UNK N   1      24.089  18.965   3.811  0.00  0.00     0.043 A 
HETATM   18  C   UNK N   1      24.652  20.180   3.406  0.00  0.00     0.116 A 
HETATM   19  C   UNK N   1      26.037  20.323   3.365  0.00  0.00     0.043 A 
HETATM   20  F   UNK N   1      23.859  21.219   3.053  0.00  0.00    -0.206 F 
HETATM   21  C   UNK N   1      26.854  19.255   3.729  0.00  0.00     0.010 A 
ENDBRANCH  14  15
ENDBRANCH   5  14
BRANCH  10  22
HETATM   22  O   UNK N   1      31.312  17.755   9.379  0.00  0.00    -0.357 OA
HETATM   23  H   UNK N   1      31.410  18.593   9.787  0.00  0.00     0.217 HD
ENDBRANCH  10  22
BRANCH  11  24
HETATM   24  C   UNK N   1      34.042  17.857   8.540  0.00  0.00     0.260 C 
HETATM   25  O   UNK N   1      34.802  18.805   8.390  0.00  0.00    -0.267 OA
HETATM   26  N   UNK N   1      34.243  17.003   9.571  0.00  0.00    -0.355 N 
HETATM   27  H   UNK N   1      33.631  16.241   9.689  0.00  0.00     0.162 HD
BRANCH  26  28
HETATM   28  C   UNK N   1      35.330  17.179  10.501  0.00  0.00     0.148 C 
BRANCH  28  29
HETATM   29  C   UNK N   1      35.851  15.824  10.927  0.00  0.00     0.183 C 
BRANCH  29  30
HETATM   30  O   UNK N   1      37.232  15.784  10.747  0.00  0.00    -0.399 OA
HETATM   31  H   UNK N   1      37.643  16.291  10.031  0.00  0.00     0.209 HD
ENDBRANCH  29  30
ENDBRANCH  28  29
ENDBRANCH  26  28
ENDBRANCH  11  24
TORSDOF 7
ENDMDL
MODEL 2
REMARK VINA RESULT:      -8.0      5.472      9.993
REMARK  7 active torsions:
REMARK  status: ('A' for Active; 'I' for Inactive)
REMARK    1  A    between atoms: C_5  and  C_21 
REMARK    2  A    between atoms: C_10  and  O_20 
REMARK    3  A    between atoms: C_11  and  C_14 
REMARK       I    between atoms: C_14  and  N_16 
REMARK    4  A    between atoms: N_16  and  C_17 
REMARK    5  A    between atoms: C_17  and  C_18 
REMARK    6  A    between atoms: C_18  and  O_19 
REMARK    7  A    between atoms: C_21  and  C_22 
ROOT
HETATM    1  C   UNK N   1      24.653  16.106   5.796  0.00  0.00     0.159 C 
HETATM    2  N   UNK N   1      25.054  17.314   5.075  0.00  0.00    -0.316 N 
HETATM    3  C   UNK N   1      26.381  17.632   4.955  0.00  0.00     0.067 A 
HETATM    4  C   UNK N   1      27.393  16.821   5.511  0.00  0.00     0.041 A 
HETATM    5  C   UNK N   1      28.742  17.178   5.369  0.00  0.00    -0.036 A 
HETATM    6  C   UNK N   1      29.046  18.345   4.666  0.00  0.00     0.096 A 
HETATM    7  N   UNK N   1      28.072  19.117   4.136  0.00  0.00    -0.361 N 
ATOM      8  HN  UNK N   1      28.330  19.964   3.629  1.00  0.00     0.165 HD
HETATM    9  C   UNK N   1      26.762  18.796   4.261  0.00  0.00     0.094 A 
HETATM   10  C   UNK N   1      25.799  19.624   3.697  0.00  0.00     0.116 A 
HETATM   11  C   UNK N   1      24.432  19.306   3.815  0.00  0.00     0.135 A 
HETATM   12  C   UNK N   1      24.076  18.125   4.521  0.00  0.00     0.266 A 
HETATM   13  O   UNK N   1      22.901  17.816   4.644  0.00  0.00    -0.267 OA
ENDROOT
BRANCH   5  14
HETATM   14  C   UNK N   1      29.820  16.297   5.971  0.00  0.00     0.078 C 
BRANCH  14  15
HETATM   15  C   UNK N   1      31.094  16.926   6.515  0.00  0.00    -0.054 A 
HETATM   16  C   UNK N   1      31.087  17.435   7.820  0.00  0.00     0.010 A 
HETATM   17  C   UNK N   1      32.241  18.020   8.359  0.00  0.00     0.043 A 
HETATM   18  C   UNK N   1      33.410  18.101   7.597  0.00  0.00     0.116 A 
HETATM   19  C   UNK N   1      33.427  17.599   6.298  0.00  0.00     0.043 A 
HETATM   20  F   UNK N   1      34.529  18.663   8.114  0.00  0.00    -0.206 F 
HETATM   21  C   UNK N   1      32.279  17.019   5.766  0.00  0.00     0.010 A 
ENDBRANCH  14  15
ENDBRANCH   5  14
BRANCH  10  22
HETATM   22  O   UNK N   1      26.200  20.729   3.039  0.00  0.00    -0.357 OA
HETATM   23  H   UNK N   1      26.058  20.803   2.116  0.00  0.00     0.217 HD
ENDBRANCH  10  22
BRANCH  11  24
HETATM   24  C   UNK N   1      23.395  20.207   3.203  0.00  0.00     0.260 C 
HETATM   25  O   UNK N   1      23.654  21.385   2.994  0.00  0.00    -0.267 OA
HETATM   26  N   UNK N   1      22.170  19.730   2.879  0.00  0.00    -0.355 N 
HETATM   27  H   UNK N   1      21.965  18.782   3.049  0.00  0.00     0.162 HD
BRANCH  26  28
HETATM   28  C   UNK N   1      21.159  20.572   2.291  0.00  0.00     0.148 C 
BRANCH  28  29
HETATM   29  C   UNK N   1      20.681  19.955   0.996  0.00  0.00     0.183 C 
BRANCH  29  30
HETATM   30  O   UNK N   1      20.808  20.886  -0.033  0.00  0.00    -0.399 OA
HETATM   31  H   UNK N   1      20.195  21.635  -0.087  0.00  0.00     0.209 HD
ENDBRANCH  29  30
ENDBRANCH  28  29
ENDBRANCH  26  28
ENDBRANCH  11  24
TORSDOF 7
ENDMDL
MODEL 3
REMARK VINA RESULT:      -7.8      7.871     11.596
REMARK  7 active torsions:
REMARK  status: ('A' for Active; 'I' for Inactive)
REMARK    1  A    between atoms: C_5  and  C_21 
REMARK    2  A    between atoms: C_10  and  O_20 
REMARK    3  A    between atoms: C_11  and  C_14 
REMARK       I    between atoms: C_14  and  N_16 
REMARK    4  A    between atoms: N_16  and  C_17 
REMARK    5  A    between atoms: C_17  and  C_18 
REMARK    6  A    between atoms: C_18  and  O_19 
REMARK    7  A    between atoms: C_21  and  C_22 
ROOT
HETATM    1  C   UNK N   1      25.282  16.182   5.890  0.00  0.00     0.159 C 
HETATM    2  N   UNK N   1      23.850  16.397   5.677  0.00  0.00    -0.316 N 
HETATM    3  C   UNK N   1      22.945  15.461   6.102  0.00  0.00     0.067 A 
HETATM    4  C   UNK N   1      23.351  14.274   6.749  0.00  0.00     0.041 A 
HETATM    5  C   UNK N   1      22.397  13.337   7.169  0.00  0.00    -0.036 A 
HETATM    6  C   UNK N   1      21.050  13.614   6.932  0.00  0.00     0.096 A 
HETATM    7  N   UNK N   1      20.667  14.752   6.313  0.00  0.00    -0.361 N 
ATOM      8  HN  UNK N   1      19.674  14.922   6.155  1.00  0.00     0.165 HD
HETATM    9  C   UNK N   1      21.569  15.673   5.895  0.00  0.00     0.094 A 
HETATM   10  C   UNK N   1      21.124  16.827   5.262  0.00  0.00     0.116 A 
HETATM   11  C   UNK N   1      22.046  17.796   4.822  0.00  0.00     0.135 A 
HETATM   12  C   UNK N   1      23.429  17.556   5.044  0.00  0.00     0.266 A 
HETATM   13  O   UNK N   1      24.259  18.374   4.676  0.00  0.00    -0.267 OA
ENDROOT
BRANCH   5  14
HETATM   14  C   UNK N   1      22.847  12.066   7.864  0.00  0.00     0.078 C 
BRANCH  14  15
HETATM   15  C   UNK N   1      23.006  12.047   9.377  0.00  0.00    -0.054 A 
HETATM   16  C   UNK N   1      24.299  11.995   9.915  0.00  0.00     0.010 A 
HETATM   17  C   UNK N   1      24.488  11.979  11.304  0.00  0.00     0.043 A 
HETATM   18  C   UNK N   1      23.386  12.012  12.164  0.00  0.00     0.116 A 
HETATM   19  C   UNK N   1      22.097  12.061  11.639  0.00  0.00     0.043 A 
HETATM   20  F   UNK N   1      23.564  11.999  13.507  0.00  0.00    -0.206 F 
HETATM   21  C   UNK N   1      21.913  12.078  10.259  0.00  0.00     0.010 A 
ENDBRANCH  14  15
ENDBRANCH   5  14
BRANCH  10  22
HETATM   22  O   UNK N   1      19.799  16.996   5.081  0.00  0.00    -0.357 OA
HETATM   23  H   UNK N   1      19.442  17.003   4.215  0.00  0.00     0.217 HD
ENDBRANCH  10  22
BRANCH  11  24
HETATM   24  C   UNK N   1      21.557  19.043   4.136  0.00  0.00     0.260 C 
HETATM   25  O   UNK N   1      20.742  19.767   4.692  0.00  0.00    -0.267 OA
HETATM   26  N   UNK N   1      22.011  19.377   2.905  0.00  0.00    -0.355 N 
HETATM   27  H   UNK N   1      22.667  18.792   2.461  0.00  0.00     0.162 HD
BRANCH  26  28
HETATM   28  C   UNK N   1      21.559  20.565   2.227  0.00  0.00     0.148 C 
BRANCH  28  29
HETATM   29  C   UNK N   1      20.717  20.173   1.034  0.00  0.00     0.183 C 
BRANCH  29  30
HETATM   30  O   UNK N   1      21.063  20.969  -0.057  0.00  0.00    -0.399 OA
HETATM   31  H   UNK N   1      21.106  21.933   0.041  0.00  0.00     0.209 HD
ENDBRANCH  29  30
ENDBRANCH  28  29
ENDBRANCH  26  28
ENDBRANCH  11  24
TORSDOF 7
ENDMDL
MODEL 4
REMARK VINA RESULT:      -7.6      6.209     11.728
REMARK  7 active torsions:
REMARK  status: ('A' for Active; 'I' for Inactive)
REMARK    1  A    between atoms: C_5  and  C_21 
REMARK    2  A    between atoms: C_10  and  O_20 
REMARK    3  A    between atoms: C_11  and  C_14 
REMARK       I    between atoms: C_14  and  N_16 
REMARK    4  A    between atoms: N_16  and  C_17 
REMARK    5  A    between atoms: C_17  and  C_18 
REMARK    6  A    between atoms: C_18  and  O_19 
REMARK    7  A    between atoms: C_21  and  C_22 
ROOT
HETATM    1  C   UNK N   1      34.263  11.625  10.122  0.00  0.00     0.159 C 
HETATM    2  N   UNK N   1      34.522  13.039  10.396  0.00  0.00    -0.316 N 
HETATM    3  C   UNK N   1      35.176  13.407  11.542  0.00  0.00     0.067 A 
HETATM    4  C   UNK N   1      35.616  12.454  12.485  0.00  0.00     0.041 A 
HETATM    5  C   UNK N   1      36.281  12.867  13.649  0.00  0.00    -0.036 A 
HETATM    6  C   UNK N   1      36.493  14.233  13.839  0.00  0.00     0.096 A 
HETATM    7  N   UNK N   1      36.070  15.140  12.931  0.00  0.00    -0.361 N 
ATOM      8  HN  UNK N   1      36.241  16.131  13.102  1.00  0.00     0.165 HD
HETATM    9  C   UNK N   1      35.423  14.768  11.800  0.00  0.00     0.094 A 
HETATM   10  C   UNK N   1      35.008  15.740  10.899  0.00  0.00     0.116 A 
HETATM   11  C   UNK N   1      34.335  15.373   9.718  0.00  0.00     0.135 A 
HETATM   12  C   UNK N   1      34.099  13.991   9.483  0.00  0.00     0.266 A 
HETATM   13  O   UNK N   1      33.519  13.634   8.469  0.00  0.00    -0.267 OA
ENDROOT
BRANCH   5  14
HETATM   14  C   UNK N   1      36.749  11.832  14.654  0.00  0.00     0.078 C 
BRANCH  14  15
HETATM   15  C   UNK N   1      36.213  11.864  16.077  0.00  0.00    -0.054 A 
HETATM   16  C   UNK N   1      36.335  10.713  16.866  0.00  0.00     0.010 A 
HETATM   17  C   UNK N   1      35.855  10.701  18.184  0.00  0.00     0.043 A 
HETATM   18  C   UNK N   1      35.249  11.841  18.721  0.00  0.00     0.116 A 
HETATM   19  C   UNK N   1      35.121  12.990  17.944  0.00  0.00     0.043 A 
HETATM   20  F   UNK N   1      34.786  11.836  19.994  0.00  0.00    -0.206 F 
HETATM   21  C   UNK N   1      35.599  12.997  16.636  0.00  0.00     0.010 A 
ENDBRANCH  14  15
ENDBRANCH   5  14
BRANCH  10  22
HETATM   22  O   UNK N   1      35.262  17.034  11.180  0.00  0.00    -0.357 OA
HETATM   23  H   UNK N   1      36.145  17.347  11.186  0.00  0.00     0.217 HD
ENDBRANCH  10  22
BRANCH  11  24
HETATM   24  C   UNK N   1      33.887  16.431   8.747  0.00  0.00     0.260 C 
HETATM   25  O   UNK N   1      34.598  17.403   8.529  0.00  0.00    -0.267 OA
HETATM   26  N   UNK N   1      32.699  16.321   8.106  0.00  0.00    -0.355 N 
HETATM   27  H   UNK N   1      32.129  15.539   8.283  0.00  0.00     0.162 HD
BRANCH  26  28
HETATM   28  C   UNK N   1      32.247  17.321   7.171  0.00  0.00     0.148 C 
BRANCH  28  29
HETATM   29  C   UNK N   1      32.852  17.047   5.812  0.00  0.00     0.183 C 
BRANCH  29  30
HETATM   30  O   UNK N   1      34.004  17.816   5.657  0.00  0.00    -0.399 OA
HETATM   31  H   UNK N   1      34.062  18.692   6.069  0.00  0.00     0.209 HD
ENDBRANCH  29  30
ENDBRANCH  28  29
ENDBRANCH  26  28
ENDBRANCH  11  24
TORSDOF 7
ENDMDL
MODEL 5
REMARK VINA RESULT:      -7.5      8.490     13.812
REMARK  7 active torsions:
REMARK  status: ('A' for Active; 'I' for Inactive)
REMARK    1  A    between atoms: C_5  and  C_21 
REMARK    2  A    between atoms: C_10  and  O_20 
REMARK    3  A    between atoms: C_11  and  C_14 
REMARK       I    between atoms: C_14  and  N_16 
REMARK    4  A    between atoms: N_16  and  C_17 
REMARK    5  A    between atoms: C_17  and  C_18 
REMARK    6  A    between atoms: C_18  and  O_19 
REMARK    7  A    between atoms: C_21  and  C_22 
ROOT
HETATM    1  C   UNK N   1      36.936  14.500  15.721  0.00  0.00     0.159 C 
HETATM    2  N   UNK N   1      36.158  13.648  14.822  0.00  0.00    -0.316 N 
HETATM    3  C   UNK N   1      35.726  12.418  15.244  0.00  0.00     0.067 A 
HETATM    4  C   UNK N   1      36.011  11.936  16.540  0.00  0.00     0.041 A 
HETATM    5  C   UNK N   1      35.554  10.672  16.939  0.00  0.00    -0.036 A 
HETATM    6  C   UNK N   1      34.815   9.917  16.025  0.00  0.00     0.096 A 
HETATM    7  N   UNK N   1      34.547  10.385  14.786  0.00  0.00    -0.361 N 
ATOM      8  HN  UNK N   1      34.005   9.807  14.144  1.00  0.00     0.165 HD
HETATM    9  C   UNK N   1      34.978  11.602  14.376  0.00  0.00     0.094 A 
HETATM   10  C   UNK N   1      34.675  12.036  13.091  0.00  0.00     0.116 A 
HETATM   11  C   UNK N   1      35.114  13.298  12.647  0.00  0.00     0.135 A 
HETATM   12  C   UNK N   1      35.868  14.102  13.545  0.00  0.00     0.266 A 
HETATM   13  O   UNK N   1      36.266  15.202  13.195  0.00  0.00    -0.267 OA
ENDROOT
BRANCH   5  14
HETATM   14  C   UNK N   1      35.865  10.165  18.334  0.00  0.00     0.078 C 
BRANCH  14  15
HETATM   15  C   UNK N   1      34.729   9.773  19.267  0.00  0.00    -0.054 A 
HETATM   16  C   UNK N   1      34.632  10.411  20.511  0.00  0.00     0.010 A 
HETATM   17  C   UNK N   1      33.599  10.080  21.399  0.00  0.00     0.043 A 
HETATM   18  C   UNK N   1      32.656   9.108  21.049  0.00  0.00     0.116 A 
HETATM   19  C   UNK N   1      32.745   8.467  19.817  0.00  0.00     0.043 A 
HETATM   20  F   UNK N   1      31.655   8.786  21.903  0.00  0.00    -0.206 F 
HETATM   21  C   UNK N   1      33.773   8.798  18.937  0.00  0.00     0.010 A 
ENDBRANCH  14  15
ENDBRANCH   5  14
BRANCH  10  22
HETATM   22  O   UNK N   1      33.957  11.228  12.287  0.00  0.00    -0.357 OA
HETATM   23  H   UNK N   1      33.616  10.421  12.618  0.00  0.00     0.217 HD
ENDBRANCH  10  22
BRANCH  11  24
HETATM   24  C   UNK N   1      34.784  13.762  11.254  0.00  0.00     0.260 C 
HETATM   25  O   UNK N   1      35.223  13.156  10.286  0.00  0.00    -0.267 OA
HETATM   26  N   UNK N   1      34.001  14.849  11.056  0.00  0.00    -0.355 N 
HETATM   27  H   UNK N   1      33.650  15.335  11.837  0.00  0.00     0.162 HD
BRANCH  26  28
HETATM   28  C   UNK N   1      33.670  15.314   9.733  0.00  0.00     0.148 C 
BRANCH  28  29
HETATM   29  C   UNK N   1      34.539  16.502   9.386  0.00  0.00     0.183 C 
BRANCH  29  30
HETATM   30  O   UNK N   1      34.861  17.195  10.551  0.00  0.00    -0.399 OA
HETATM   31  H   UNK N   1      35.684  16.995  11.022  0.00  0.00     0.209 HD
ENDBRANCH  29  30
ENDBRANCH  28  29
ENDBRANCH  26  28
ENDBRANCH  11  24
TORSDOF 7
ENDMDL
MODEL 6
REMARK VINA RESULT:      -7.4      3.600      5.618
REMARK  7 active torsions:
REMARK  status: ('A' for Active; 'I' for Inactive)
REMARK    1  A    between atoms: C_5  and  C_21 
REMARK    2  A    between atoms: C_10  and  O_20 
REMARK    3  A    between atoms: C_11  and  C_14 
REMARK       I    between atoms: C_14  and  N_16 
REMARK    4  A    between atoms: N_16  and  C_17 
REMARK    5  A    between atoms: C_17  and  C_18 
REMARK    6  A    between atoms: C_18  and  O_19 
REMARK    7  A    between atoms: C_21  and  C_22 
ROOT
HETATM    1  C   UNK N   1      34.510  13.045   7.447  0.00  0.00     0.159 C 
HETATM    2  N   UNK N   1      34.628  14.068   8.486  0.00  0.00    -0.316 N 
HETATM    3  C   UNK N   1      34.422  15.387   8.177  0.00  0.00     0.067 A 
HETATM    4  C   UNK N   1      34.095  15.801   6.868  0.00  0.00     0.041 A 
HETATM    5  C   UNK N   1      33.893  17.160   6.588  0.00  0.00    -0.036 A 
HETATM    6  C   UNK N   1      34.021  18.077   7.632  0.00  0.00     0.096 A 
HETATM    7  N   UNK N   1      34.334  17.674   8.883  0.00  0.00    -0.361 N 
ATOM      8  HN  UNK N   1      34.420  18.371   9.623  1.00  0.00     0.165 HD
HETATM    9  C   UNK N   1      34.537  16.367   9.180  0.00  0.00     0.094 A 
HETATM   10  C   UNK N   1      34.857  16.005  10.483  0.00  0.00     0.116 A 
HETATM   11  C   UNK N   1      35.071  14.652  10.811  0.00  0.00     0.135 A 
HETATM   12  C   UNK N   1      34.948  13.684   9.778  0.00  0.00     0.266 A 
HETATM   13  O   UNK N   1      35.126  12.501  10.025  0.00  0.00    -0.267 OA
ENDROOT
BRANCH   5  14
HETATM   14  C   UNK N   1      33.540  17.592   5.177  0.00  0.00     0.078 C 
BRANCH  14  15
HETATM   15  C   UNK N   1      32.174  17.253   4.601  0.00  0.00    -0.054 A 
HETATM   16  C   UNK N   1      32.086  16.886   3.252  0.00  0.00     0.010 A 
HETATM   17  C   UNK N   1      30.845  16.564   2.684  0.00  0.00     0.043 A 
HETATM   18  C   UNK N   1      29.684  16.608   3.461  0.00  0.00     0.116 A 
HETATM   19  C   UNK N   1      29.760  16.974   4.802  0.00  0.00     0.043 A 
HETATM   20  F   UNK N   1      28.483  16.296   2.917  0.00  0.00    -0.206 F 
HETATM   21  C   UNK N   1      30.994  17.293   5.363  0.00  0.00     0.010 A 
ENDBRANCH  14  15
ENDBRANCH   5  14
BRANCH  10  22
HETATM   22  O   UNK N   1      34.958  16.970  11.417  0.00  0.00    -0.357 OA
HETATM   23  H   UNK N   1      34.206  17.478  11.649  0.00  0.00     0.217 HD
ENDBRANCH  10  22
BRANCH  11  24
HETATM   24  C   UNK N   1      35.418  14.267  12.223  0.00  0.00     0.260 C 
HETATM   25  O   UNK N   1      36.191  14.958  12.874  0.00  0.00    -0.267 OA
HETATM   26  N   UNK N   1      34.884  13.158  12.787  0.00  0.00    -0.355 N 
HETATM   27  H   UNK N   1      34.264  12.604  12.262  0.00  0.00     0.162 HD
BRANCH  26  28
HETATM   28  C   UNK N   1      35.201  12.767  14.138  0.00  0.00     0.148 C 
BRANCH  28  29
HETATM   29  C   UNK N   1      36.408  11.855  14.126  0.00  0.00     0.183 C 
BRANCH  29  30
HETATM   30  O   UNK N   1      37.556  12.605  14.374  0.00  0.00    -0.399 OA
HETATM   31  H   UNK N   1      38.214  12.729  13.673  0.00  0.00     0.209 HD
ENDBRANCH  29  30
ENDBRANCH  28  29
ENDBRANCH  26  28
ENDBRANCH  11  24
TORSDOF 7
ENDMDL
MODEL 7
REMARK VINA RESULT:      -7.4      1.309      2.509
REMARK  7 active torsions:
REMARK  status: ('A' for Active; 'I' for Inactive)
REMARK    1  A    between atoms: C_5  and  C_21 
REMARK    2  A    between atoms: C_10  and  O_20 
REMARK    3  A    between atoms: C_11  and  C_14 
REMARK       I    between atoms: C_14  and  N_16 
REMARK    4  A    between atoms: N_16  and  C_17 
REMARK    5  A    between atoms: C_17  and  C_18 
REMARK    6  A    between atoms: C_18  and  O_19 
REMARK    7  A    between atoms: C_21  and  C_22 
ROOT
HETATM    1  C   UNK N   1      28.185  18.261   8.526  0.00  0.00     0.159 C 
HETATM    2  N   UNK N   1      29.342  17.831   7.740  0.00  0.00    -0.316 N 
HETATM    3  C   UNK N   1      29.171  17.378   6.459  0.00  0.00     0.067 A 
HETATM    4  C   UNK N   1      27.894  17.311   5.859  0.00  0.00     0.041 A 
HETATM    5  C   UNK N   1      27.755  16.841   4.545  0.00  0.00    -0.036 A 
HETATM    6  C   UNK N   1      28.906  16.451   3.858  0.00  0.00     0.096 A 
HETATM    7  N   UNK N   1      30.125  16.518   4.438  0.00  0.00    -0.361 N 
ATOM      8  HN  UNK N   1      30.944  16.224   3.907  1.00  0.00     0.165 HD
HETATM    9  C   UNK N   1      30.286  16.966   5.706  0.00  0.00     0.094 A 
HETATM   10  C   UNK N   1      31.561  17.016   6.256  0.00  0.00     0.116 A 
HETATM   11  C   UNK N   1      31.748  17.479   7.573  0.00  0.00     0.135 A 
HETATM   12  C   UNK N   1      30.604  17.889   8.309  0.00  0.00     0.266 A 
HETATM   13  O   UNK N   1      30.727  18.298   9.454  0.00  0.00    -0.267 OA
ENDROOT
BRANCH   5  14
HETATM   14  C   UNK N   1      26.379  16.774   3.912  0.00  0.00     0.078 C 
BRANCH  14  15
HETATM   15  C   UNK N   1      25.599  18.056   3.660  0.00  0.00    -0.054 A 
HETATM   16  C   UNK N   1      24.225  18.070   3.935  0.00  0.00     0.010 A 
HETATM   17  C   UNK N   1      23.471  19.233   3.718  0.00  0.00     0.043 A 
HETATM   18  C   UNK N   1      24.086  20.388   3.225  0.00  0.00     0.116 A 
HETATM   19  C   UNK N   1      25.450  20.383   2.947  0.00  0.00     0.043 A 
HETATM   20  F   UNK N   1      23.362  21.513   3.016  0.00  0.00    -0.206 F 
HETATM   21  C   UNK N   1      26.196  19.226   3.163  0.00  0.00     0.010 A 
ENDBRANCH  14  15
ENDBRANCH   5  14
BRANCH  10  22
HETATM   22  O   UNK N   1      32.606  16.613   5.507  0.00  0.00    -0.357 OA
HETATM   23  H   UNK N   1      32.463  16.063   4.762  0.00  0.00     0.217 HD
ENDBRANCH  10  22
BRANCH  11  24
HETATM   24  C   UNK N   1      33.131  17.529   8.163  0.00  0.00     0.260 C 
HETATM   25  O   UNK N   1      33.983  18.255   7.666  0.00  0.00    -0.267 OA
HETATM   26  N   UNK N   1      33.449  16.778   9.243  0.00  0.00    -0.355 N 
HETATM   27  H   UNK N   1      32.762  16.195   9.640  0.00  0.00     0.162 HD
BRANCH  26  28
HETATM   28  C   UNK N   1      34.766  16.807   9.827  0.00  0.00     0.148 C 
BRANCH  28  29
HETATM   29  C   UNK N   1      34.866  15.741  10.895  0.00  0.00     0.183 C 
BRANCH  29  30
HETATM   30  O   UNK N   1      33.605  15.191  11.117  0.00  0.00    -0.399 OA
HETATM   31  H   UNK N   1      32.884  15.748  11.450  0.00  0.00     0.209 HD
ENDBRANCH  29  30
ENDBRANCH  28  29
ENDBRANCH  26  28
ENDBRANCH  11  24
TORSDOF 7
ENDMDL
MODEL 8
REMARK VINA RESULT:      -7.4      5.402     10.579
REMARK  7 active torsions:
REMARK  status: ('A' for Active; 'I' for Inactive)
REMARK    1  A    between atoms: C_5  and  C_21 
REMARK    2  A    between atoms: C_10  and  O_20 
REMARK    3  A    between atoms: C_11  and  C_14 
REMARK       I    between atoms: C_14  and  N_16 
REMARK    4  A    between atoms: N_16  and  C_17 
REMARK    5  A    between atoms: C_17  and  C_18 
REMARK    6  A    between atoms: C_18  and  O_19 
REMARK    7  A    between atoms: C_21  and  C_22 
ROOT
HETATM    1  C   UNK N   1      33.636  12.206   8.645  0.00  0.00     0.159 C 
HETATM    2  N   UNK N   1      33.569  13.663   8.753  0.00  0.00    -0.316 N 
HETATM    3  C   UNK N   1      34.248  14.309   9.753  0.00  0.00     0.067 A 
HETATM    4  C   UNK N   1      35.023  13.605  10.699  0.00  0.00     0.041 A 
HETATM    5  C   UNK N   1      35.704  14.298  11.710  0.00  0.00    -0.036 A 
HETATM    6  C   UNK N   1      35.594  15.690  11.747  0.00  0.00     0.096 A 
HETATM    7  N   UNK N   1      34.850  16.357  10.838  0.00  0.00    -0.361 N 
ATOM      8  HN  UNK N   1      34.790  17.374  10.895  1.00  0.00     0.165 HD
HETATM    9  C   UNK N   1      34.180  15.711   9.853  0.00  0.00     0.094 A 
HETATM   10  C   UNK N   1      33.429  16.444   8.943  0.00  0.00     0.116 A 
HETATM   11  C   UNK N   1      32.727  15.791   7.912  0.00  0.00     0.135 A 
HETATM   12  C   UNK N   1      32.813  14.374   7.834  0.00  0.00     0.266 A 
HETATM   13  O   UNK N   1      32.219  13.772   6.953  0.00  0.00    -0.267 OA
ENDROOT
BRANCH   5  14
HETATM   14  C   UNK N   1      36.535  13.530  12.720  0.00  0.00     0.078 C 
BRANCH  14  15
HETATM   15  C   UNK N   1      36.085  13.459  14.172  0.00  0.00    -0.054 A 
HETATM   16  C   UNK N   1      36.787  14.204  15.129  0.00  0.00     0.010 A 
HETATM   17  C   UNK N   1      36.402  14.168  16.477  0.00  0.00     0.043 A 
HETATM   18  C   UNK N   1      35.315  13.386  16.877  0.00  0.00     0.116 A 
HETATM   19  C   UNK N   1      34.612  12.640  15.934  0.00  0.00     0.043 A 
HETATM   20  F   UNK N   1      34.938  13.349  18.177  0.00  0.00    -0.206 F 
HETATM   21  C   UNK N   1      34.997  12.679  14.596  0.00  0.00     0.010 A 
ENDBRANCH  14  15
ENDBRANCH   5  14
BRANCH  10  22
HETATM   22  O   UNK N   1      33.387  17.785   9.069  0.00  0.00    -0.357 OA
HETATM   23  H   UNK N   1      33.811  18.201   9.794  0.00  0.00     0.217 HD
ENDBRANCH  10  22
BRANCH  11  24
HETATM   24  C   UNK N   1      31.914  16.591   6.930  0.00  0.00     0.260 C 
HETATM   25  O   UNK N   1      30.951  17.238   7.318  0.00  0.00    -0.267 OA
HETATM   26  N   UNK N   1      32.237  16.604   5.616  0.00  0.00    -0.355 N 
HETATM   27  H   UNK N   1      33.012  16.082   5.307  0.00  0.00     0.162 HD
BRANCH  26  28
HETATM   28  C   UNK N   1      31.475  17.362   4.656  0.00  0.00     0.148 C 
BRANCH  28  29
HETATM   29  C   UNK N   1      31.252  16.523   3.417  0.00  0.00     0.183 C 
BRANCH  29  30
HETATM   30  O   UNK N   1      31.774  17.188   2.309  0.00  0.00    -0.399 OA
HETATM   31  H   UNK N   1      31.185  17.477   1.595  0.00  0.00     0.209 HD
ENDBRANCH  29  30
ENDBRANCH  28  29
ENDBRANCH  26  28
ENDBRANCH  11  24
TORSDOF 7
ENDMDL
MODEL 9
REMARK VINA RESULT:      -7.3      5.419      9.416
REMARK  7 active torsions:
REMARK  status: ('A' for Active; 'I' for Inactive)
REMARK    1  A    between atoms: C_5  and  C_21 
REMARK    2  A    between atoms: C_10  and  O_20 
REMARK    3  A    between atoms: C_11  and  C_14 
REMARK       I    between atoms: C_14  and  N_16 
REMARK    4  A    between atoms: N_16  and  C_17 
REMARK    5  A    between atoms: C_17  and  C_18 
REMARK    6  A    between atoms: C_18  and  O_19 
REMARK    7  A    between atoms: C_21  and  C_22 
ROOT
HETATM    1  C   UNK N   1      27.944  19.899   4.524  0.00  0.00     0.159 C 
HETATM    2  N   UNK N   1      26.934  18.858   4.712  0.00  0.00    -0.316 N 
HETATM    3  C   UNK N   1      27.317  17.571   4.983  0.00  0.00     0.067 A 
HETATM    4  C   UNK N   1      28.676  17.207   5.089  0.00  0.00     0.041 A 
HETATM    5  C   UNK N   1      29.033  15.880   5.366  0.00  0.00    -0.036 A 
HETATM    6  C   UNK N   1      28.012  14.943   5.535  0.00  0.00     0.096 A 
HETATM    7  N   UNK N   1      26.712  15.298   5.432  0.00  0.00    -0.361 N 
ATOM      8  HN  UNK N   1      25.991  14.588   5.561  1.00  0.00     0.165 HD
HETATM    9  C   UNK N   1      26.341  16.573   5.163  0.00  0.00     0.094 A 
HETATM   10  C   UNK N   1      24.991  16.886   5.068  0.00  0.00     0.116 A 
HETATM   11  C   UNK N   1      24.586  18.206   4.790  0.00  0.00     0.135 A 
HETATM   12  C   UNK N   1      25.593  19.194   4.612  0.00  0.00     0.266 A 
HETATM   13  O   UNK N   1      25.280  20.349   4.370  0.00  0.00    -0.267 OA
ENDROOT
BRANCH   5  14
HETATM   14  C   UNK N   1      30.497  15.502   5.478  0.00  0.00     0.078 C 
BRANCH  14  15
HETATM   15  C   UNK N   1      31.451  16.394   6.258  0.00  0.00    -0.054 A 
HETATM   16  C   UNK N   1      32.655  16.781   5.654  0.00  0.00     0.010 A 
HETATM   17  C   UNK N   1      33.559  17.604   6.338  0.00  0.00     0.043 A 
HETATM   18  C   UNK N   1      33.267  18.047   7.632  0.00  0.00     0.116 A 
HETATM   19  C   UNK N   1      32.075  17.667   8.243  0.00  0.00     0.043 A 
HETATM   20  F   UNK N   1      34.137  18.844   8.297  0.00  0.00    -0.206 F 
HETATM   21  C   UNK N   1      31.179  16.848   7.559  0.00  0.00     0.010 A 
ENDBRANCH  14  15
ENDBRANCH   5  14
BRANCH  10  22
HETATM   22  O   UNK N   1      24.085  15.905   5.246  0.00  0.00    -0.357 OA
HETATM   23  H   UNK N   1      23.328  15.860   4.695  0.00  0.00     0.217 HD
ENDBRANCH  10  22
BRANCH  11  24
HETATM   24  C   UNK N   1      23.122  18.538   4.687  0.00  0.00     0.260 C 
HETATM   25  O   UNK N   1      22.359  18.228   5.592  0.00  0.00    -0.267 OA
HETATM   26  N   UNK N   1      22.635  19.180   3.599  0.00  0.00    -0.355 N 
HETATM   27  H   UNK N   1      23.251  19.427   2.872  0.00  0.00     0.162 HD
BRANCH  26  28
HETATM   28  C   UNK N   1      21.237  19.509   3.476  0.00  0.00     0.148 C 
BRANCH  28  29
HETATM   29  C   UNK N   1      21.070  20.616   2.458  0.00  0.00     0.183 C 
BRANCH  29  30
HETATM   30  O   UNK N   1      21.897  21.685   2.799  0.00  0.00    -0.399 OA
HETATM   31  H   UNK N   1      21.635  22.293   3.507  0.00  0.00     0.209 HD
ENDBRANCH  29  30
ENDBRANCH  28  29
ENDBRANCH  26  28
ENDBRANCH  11  24
TORSDOF 7
ENDMDL
