REMARK  1 active torsions:
REMARK  status: ('A' for Active; 'I' for Inactive)
REMARK    1  A    between atoms: N_17  and  C_12 
REMARK       I    between atoms: N_17  and  C_13 
ROOT
HETATM    1  C   UNK N   1      -0.135   1.847   0.448  0.00  0.00     0.005 C 
HETATM    2  C   UNK N   1      -0.155   0.534  -0.310  0.00  0.00     0.005 C 
HETATM    3  C   UNK N   1       4.777   1.876   0.019  0.00  0.00     0.003 A 
HETATM    4  C   UNK N   1       1.078   2.674   0.031  0.00  0.00     0.039 C 
HETATM    5  C   UNK N   1       3.569   2.572   0.008  0.00  0.00     0.008 A 
HETATM    6  C   UNK N   1       1.057  -0.310   0.068  0.00  0.00     0.041 C 
HETATM    7  C   UNK N   1       4.779   0.481   0.053  0.00  0.00     0.030 A 
HETATM    8  C   UNK N   1       2.355   1.881   0.035  0.00  0.00    -0.050 A 
HETATM    9  C   UNK N   1       2.352   0.466   0.062  0.00  0.00    -0.025 A 
HETATM   10  C   UNK N   1       3.572  -0.235   0.075  0.00  0.00     0.056 A 
ENDROOT
BRANCH  10  11
HETATM   11  N   UNK N   1       3.554  -1.659   0.072  0.00  0.00    -0.192 N 
HETATM   12  C   UNK N   1       4.694  -2.507   0.038  0.00  0.00     0.674 A 
HETATM   13  N   UNK N   1       4.594  -3.760  -0.125  0.00  0.00    -0.225 N 
HETATM   14  N   UNK N   1       6.010  -2.065   0.143  0.00  0.00    -0.225 N 
HETATM   15  C   UNK N   1       5.897  -4.384  -0.156  0.00  0.00     0.158 A 
ATOM     16  HN  UNK N   1       3.711  -4.262  -0.220  1.00  0.00     0.177 HD
HETATM   17  C   UNK N   1       6.884  -3.202   0.033  0.00  0.00     0.158 A 
HETATM   18  H   UNK N   1       6.294  -1.132   0.271  0.00  0.00     0.177 HD
HETATM   19  H   UNK N   1       2.671  -2.096   0.095  0.00  0.00     0.184 HD
ENDBRANCH  10  11
TORSDOF 1
