MODEL 1
REMARK VINA RESULT:      -8.4      0.000      0.000
REMARK  17 active torsions:
REMARK  status: ('A' for Active; 'I' for Inactive)
REMARK    1  A    between atoms: C_6  and  C_7 
REMARK    2  A    between atoms: C_7  and  N_8 
REMARK    3  A    between atoms: C_7  and  N_10 
REMARK    4  A    between atoms: C_12  and  C_15 
REMARK    5  A    between atoms: C_17  and  C_33 
REMARK    6  A    between atoms: C_19  and  C_22 
REMARK    7  A    between atoms: C_20  and  O_21 
REMARK    8  A    between atoms: C_24  and  S_29 
REMARK    9  A    between atoms: C_27  and  O_28 
REMARK   10  A    between atoms: S_29  and  N_32 
REMARK   11  A    between atoms: C_33  and  C_34 
REMARK       I    between atoms: C_34  and  N_36 
REMARK   12  A    between atoms: C_37  and  N_36 
REMARK   13  A    between atoms: C_37  and  C_38 
REMARK   14  A    between atoms: C_37  and  C_42 
REMARK   15  A    between atoms: C_38  and  C_39 
REMARK   16  A    between atoms: C_39  and  O_41 
REMARK   17  A    between atoms: C_42  and  O_44 
ROOT
HETATM    1  C   UNK N   1      27.826  17.454   4.399  0.00  0.00     0.043 A 
HETATM    2  C   UNK N   1      27.392  18.774   4.264  0.00  0.00     0.025 A 
HETATM    3  C   UNK N   1      26.050  19.046   4.011  0.00  0.00    -0.048 A 
HETATM    4  C   UNK N   1      25.119  17.996   3.944  0.00  0.00     0.022 A 
HETATM    5  C   UNK N   1      25.519  16.662   4.094  0.00  0.00     0.011 A 
HETATM    6  C   UNK N   1      26.899  16.395   4.274  0.00  0.00     0.090 A 
ENDROOT
BRANCH   1   7
HETATM    7  C   UNK N   1      29.213  17.178   4.834  0.00  0.00     0.119 A 
HETATM    8  N   UNK N   1      29.535  17.035   6.143  0.00  0.00    -0.340 N 
HETATM    9  C   UNK N   1      30.859  17.137   6.168  0.00  0.00     0.061 A 
HETATM   10  H   UNK N   1      28.926  16.887   6.902  0.00  0.00     0.167 HD
HETATM   11  C   UNK N   1      31.333  17.324   4.910  0.00  0.00     0.060 A 
HETATM   12  C   UNK N   1      31.666  17.191   7.290  0.00  0.00     0.047 A 
HETATM   13  C   UNK N   1      32.682  17.554   4.664  0.00  0.00     0.033 A 
HETATM   14  N   UNK N   1      30.305  17.349   4.041  0.00  0.00    -0.340 N 
HETATM   15  C   UNK N   1      33.542  17.624   5.783  0.00  0.00     0.017 A 
HETATM   16  C   UNK N   1      33.033  17.456   7.102  0.00  0.00     0.009 A 
ATOM     17  HN  UNK N   1      30.338  17.469   3.029  1.00  0.00     0.167 HD
BRANCH  16  18
HETATM   18  C   UNK N   1      33.899  17.629   8.286  0.00  0.00     0.102 C 
BRANCH  18  19
HETATM   19  N   UNK N   1      34.716  18.614   8.353  0.00  0.00    -0.385 N 
HETATM   20  H   UNK N   1      35.563  18.596   8.854  0.00  0.00     0.157 HD
ATOM     21  HN  UNK N   1      34.472  19.472   7.857  1.00  0.00     0.157 HD
ENDBRANCH  18  19
BRANCH  18  22
HETATM   22  N   UNK N   1      33.748  16.776   9.404  0.00  0.00    -0.385 N 
HETATM   23  H   UNK N   1      33.425  15.851   9.311  0.00  0.00     0.157 HD
HETATM   24  H   UNK N   1      33.973  17.116  10.301  0.00  0.00     0.157 HD
ENDBRANCH  18  22
ENDBRANCH  16  18
ENDBRANCH   1   7
BRANCH   6  25
HETATM   25  O   UNK N   1      27.342  15.128   4.321  0.00  0.00    -0.359 OA
HETATM   26  H   UNK N   1      27.891  14.747   4.979  0.00  0.00     0.217 HD
ENDBRANCH   6  25
BRANCH   3  27
HETATM   27  C   UNK N   1      25.605  20.457   3.805  0.00  0.00     0.141 C 
BRANCH  27  28
HETATM   28  C   UNK N   1      24.437  20.437   2.880  0.00  0.00     0.222 C 
HETATM   29  O   UNK N   1      24.611  20.620   1.683  0.00  0.00    -0.273 OA
HETATM   30  N   UNK N   1      23.215  20.103   3.370  0.00  0.00    -0.346 N 
HETATM   31  H   UNK N   1      23.100  20.087   4.347  0.00  0.00     0.163 HD
BRANCH  30  32
HETATM   32  C   UNK N   1      22.071  19.770   2.546  0.00  0.00     0.192 C 
BRANCH  32  33
HETATM   33  C   UNK N   1      21.425  18.448   2.946  0.00  0.00     0.146 C 
BRANCH  33  34
HETATM   34  C   UNK N   1      20.151  18.237   2.206  0.00  0.00     0.141 C 
HETATM   35  O   UNK N   1      19.087  18.361   2.787  0.00  0.00    -0.650 OA
BRANCH  34  36
HETATM   36  O   UNK N   1      20.171  17.927   0.897  0.00  0.00    -0.776 OA
HETATM   37  H   UNK N   1      20.987  17.766   0.465  0.00  0.00     0.167 HD
ENDBRANCH  34  36
ENDBRANCH  33  34
ENDBRANCH  32  33
BRANCH  32  38
HETATM   38  C   UNK N   1      21.079  20.893   2.567  0.00  0.00     0.164 C 
HETATM   39  O   UNK N   1      20.947  21.595   1.579  0.00  0.00    -0.648 OA
BRANCH  38  40
HETATM   40  O   UNK N   1      20.353  21.150   3.672  0.00  0.00    -0.775 OA
HETATM   41  H   UNK N   1      20.434  20.973   4.589  0.00  0.00     0.167 HD
ENDBRANCH  38  40
ENDBRANCH  32  38
ENDBRANCH  30  32
ENDBRANCH  27  28
ENDBRANCH   3  27
BRANCH   5  42
HETATM   42  C   UNK N   1      24.465  15.585   4.110  0.00  0.00     0.011 A 
HETATM   43  C   UNK N   1      23.718  15.331   2.937  0.00  0.00     0.040 A 
HETATM   44  C   UNK N   1      22.699  14.358   2.935  0.00  0.00     0.080 A 
HETATM   45  C   UNK N   1      22.426  13.635   4.091  0.00  0.00     0.028 A 
HETATM   46  C   UNK N   1      23.120  13.894   5.259  0.00  0.00     0.039 A 
HETATM   47  C   UNK N   1      24.116  14.864   5.292  0.00  0.00     0.076 A 
BRANCH  44  48
HETATM   48  S   UNK N   1      21.690  14.016   1.495  0.00  0.00     0.256 S 
HETATM   49  O   UNK N   1      21.717  12.737   0.648  0.00  0.00    -0.201 OA
HETATM   50  O   UNK N   1      21.218  15.171   0.600  0.00  0.00    -0.201 OA
BRANCH  48  51
HETATM   51  N   UNK N   1      23.258  14.310   0.737  0.00  0.00    -0.324 N 
HETATM   52  H   UNK N   1      24.261  14.357   0.557  0.00  0.00     0.169 HD
HETATM   53  H   UNK N   1      22.928  14.725  -0.134  0.00  0.00     0.169 HD
ENDBRANCH  48  51
ENDBRANCH  44  48
BRANCH  47  54
HETATM   54  O   UNK N   1      24.665  15.138   6.485  0.00  0.00    -0.360 OA
HETATM   55  H   UNK N   1      25.282  15.836   6.584  0.00  0.00     0.217 HD
ENDBRANCH  47  54
ENDBRANCH   5  42
TORSDOF 17
ENDMDL
MODEL 2
REMARK VINA RESULT:      -8.3      3.531      7.906
REMARK  17 active torsions:
REMARK  status: ('A' for Active; 'I' for Inactive)
REMARK    1  A    between atoms: C_6  and  C_7 
REMARK    2  A    between atoms: C_7  and  N_8 
REMARK    3  A    between atoms: C_7  and  N_10 
REMARK    4  A    between atoms: C_12  and  C_15 
REMARK    5  A    between atoms: C_17  and  C_33 
REMARK    6  A    between atoms: C_19  and  C_22 
REMARK    7  A    between atoms: C_20  and  O_21 
REMARK    8  A    between atoms: C_24  and  S_29 
REMARK    9  A    between atoms: C_27  and  O_28 
REMARK   10  A    between atoms: S_29  and  N_32 
REMARK   11  A    between atoms: C_33  and  C_34 
REMARK       I    between atoms: C_34  and  N_36 
REMARK   12  A    between atoms: C_37  and  N_36 
REMARK   13  A    between atoms: C_37  and  C_38 
REMARK   14  A    between atoms: C_37  and  C_42 
REMARK   15  A    between atoms: C_38  and  C_39 
REMARK   16  A    between atoms: C_39  and  O_41 
REMARK   17  A    between atoms: C_42  and  O_44 
ROOT
HETATM    1  C   UNK N   1      26.803  16.757   3.685  0.00  0.00     0.043 A 
HETATM    2  C   UNK N   1      26.365  18.037   3.344  0.00  0.00     0.025 A 
HETATM    3  C   UNK N   1      26.773  19.138   4.093  0.00  0.00    -0.048 A 
HETATM    4  C   UNK N   1      27.669  18.970   5.161  0.00  0.00     0.022 A 
HETATM    5  C   UNK N   1      28.142  17.700   5.518  0.00  0.00     0.011 A 
HETATM    6  C   UNK N   1      27.659  16.581   4.796  0.00  0.00     0.090 A 
ENDROOT
BRANCH   1   7
HETATM    7  C   UNK N   1      26.506  15.616   2.791  0.00  0.00     0.119 A 
HETATM    8  N   UNK N   1      25.249  15.361   2.353  0.00  0.00    -0.340 N 
HETATM    9  C   UNK N   1      25.312  14.121   1.879  0.00  0.00     0.061 A 
HETATM   10  H   UNK N   1      24.467  15.958   2.379  0.00  0.00     0.167 HD
HETATM   11  C   UNK N   1      26.573  13.639   2.010  0.00  0.00     0.060 A 
HETATM   12  C   UNK N   1      24.254  13.348   1.436  0.00  0.00     0.047 A 
HETATM   13  C   UNK N   1      26.893  12.328   1.675  0.00  0.00     0.033 A 
HETATM   14  N   UNK N   1      27.354  14.573   2.584  0.00  0.00    -0.340 N 
HETATM   15  C   UNK N   1      25.841  11.499   1.225  0.00  0.00     0.017 A 
HETATM   16  C   UNK N   1      24.514  12.005   1.117  0.00  0.00     0.009 A 
ATOM     17  HN  UNK N   1      28.347  14.512   2.811  1.00  0.00     0.167 HD
BRANCH  16  18
HETATM   18  C   UNK N   1      23.386  11.124   0.748  0.00  0.00     0.102 C 
BRANCH  18  19
HETATM   19  N   UNK N   1      23.586   9.882   0.506  0.00  0.00    -0.385 N 
HETATM   20  H   UNK N   1      24.431   9.516   0.157  0.00  0.00     0.157 HD
ATOM     21  HN  UNK N   1      22.821   9.231   0.684  1.00  0.00     0.157 HD
ENDBRANCH  18  19
BRANCH  18  22
HETATM   22  N   UNK N   1      22.062  11.622   0.775  0.00  0.00    -0.385 N 
HETATM   23  H   UNK N   1      21.866  12.564   0.985  0.00  0.00     0.157 HD
HETATM   24  H   UNK N   1      21.315  11.010   0.578  0.00  0.00     0.157 HD
ENDBRANCH  18  22
ENDBRANCH  16  18
ENDBRANCH   1   7
BRANCH   6  25
HETATM   25  O   UNK N   1      28.005  15.337   5.166  0.00  0.00    -0.359 OA
HETATM   26  H   UNK N   1      27.582  14.803   5.811  0.00  0.00     0.217 HD
ENDBRANCH   6  25
BRANCH   3  27
HETATM   27  C   UNK N   1      26.250  20.497   3.759  0.00  0.00     0.141 C 
BRANCH  27  28
HETATM   28  C   UNK N   1      24.908  20.329   3.135  0.00  0.00     0.222 C 
HETATM   29  O   UNK N   1      24.760  20.573   1.946  0.00  0.00    -0.273 OA
HETATM   30  N   UNK N   1      23.900  19.800   3.875  0.00  0.00    -0.346 N 
HETATM   31  H   UNK N   1      24.029  19.736   4.849  0.00  0.00     0.163 HD
BRANCH  30  32
HETATM   32  C   UNK N   1      22.649  19.322   3.324  0.00  0.00     0.192 C 
BRANCH  32  33
HETATM   33  C   UNK N   1      22.109  18.102   4.061  0.00  0.00     0.146 C 
BRANCH  33  34
HETATM   34  C   UNK N   1      22.678  18.019   5.434  0.00  0.00     0.141 C 
HETATM   35  O   UNK N   1      22.063  18.494   6.373  0.00  0.00    -0.650 OA
BRANCH  34  36
HETATM   36  O   UNK N   1      23.859  17.408   5.643  0.00  0.00    -0.776 OA
HETATM   37  H   UNK N   1      24.633  17.725   5.220  0.00  0.00     0.167 HD
ENDBRANCH  34  36
ENDBRANCH  33  34
ENDBRANCH  32  33
BRANCH  32  38
HETATM   38  C   UNK N   1      21.644  20.434   3.294  0.00  0.00     0.164 C 
HETATM   39  O   UNK N   1      20.578  20.295   3.868  0.00  0.00    -0.648 OA
BRANCH  38  40
HETATM   40  O   UNK N   1      21.897  21.572   2.619  0.00  0.00    -0.775 OA
HETATM   41  H   UNK N   1      21.470  22.067   1.947  0.00  0.00     0.167 HD
ENDBRANCH  38  40
ENDBRANCH  32  38
ENDBRANCH  30  32
ENDBRANCH  27  28
ENDBRANCH   3  27
BRANCH   5  42
HETATM   42  C   UNK N   1      29.176  17.591   6.609  0.00  0.00     0.011 A 
HETATM   43  C   UNK N   1      30.530  17.387   6.261  0.00  0.00     0.040 A 
HETATM   44  C   UNK N   1      31.512  17.241   7.261  0.00  0.00     0.080 A 
HETATM   45  C   UNK N   1      31.151  17.305   8.603  0.00  0.00     0.028 A 
HETATM   46  C   UNK N   1      29.826  17.466   8.965  0.00  0.00     0.039 A 
HETATM   47  C   UNK N   1      28.836  17.591   7.996  0.00  0.00     0.076 A 
BRANCH  44  48
HETATM   48  S   UNK N   1      33.238  16.940   6.888  0.00  0.00     0.256 S 
HETATM   49  O   UNK N   1      34.254  16.233   7.793  0.00  0.00    -0.201 OA
HETATM   50  O   UNK N   1      34.004  17.910   5.977  0.00  0.00    -0.201 OA
BRANCH  48  51
HETATM   51  N   UNK N   1      33.379  18.235   8.080  0.00  0.00    -0.324 N 
HETATM   52  H   UNK N   1      33.753  18.917   8.740  0.00  0.00     0.169 HD
HETATM   53  H   UNK N   1      32.389  18.460   8.176  0.00  0.00     0.169 HD
ENDBRANCH  48  51
ENDBRANCH  44  48
BRANCH  47  54
HETATM   54  O   UNK N   1      27.565  17.631   8.421  0.00  0.00    -0.360 OA
HETATM   55  H   UNK N   1      27.268  17.067   9.109  0.00  0.00     0.217 HD
ENDBRANCH  47  54
ENDBRANCH   5  42
TORSDOF 17
ENDMDL
MODEL 3
REMARK VINA RESULT:      -8.2      4.867     10.596
REMARK  17 active torsions:
REMARK  status: ('A' for Active; 'I' for Inactive)
REMARK    1  A    between atoms: C_6  and  C_7 
REMARK    2  A    between atoms: C_7  and  N_8 
REMARK    3  A    between atoms: C_7  and  N_10 
REMARK    4  A    between atoms: C_12  and  C_15 
REMARK    5  A    between atoms: C_17  and  C_33 
REMARK    6  A    between atoms: C_19  and  C_22 
REMARK    7  A    between atoms: C_20  and  O_21 
REMARK    8  A    between atoms: C_24  and  S_29 
REMARK    9  A    between atoms: C_27  and  O_28 
REMARK   10  A    between atoms: S_29  and  N_32 
REMARK   11  A    between atoms: C_33  and  C_34 
REMARK       I    between atoms: C_34  and  N_36 
REMARK   12  A    between atoms: C_37  and  N_36 
REMARK   13  A    between atoms: C_37  and  C_38 
REMARK   14  A    between atoms: C_37  and  C_42 
REMARK   15  A    between atoms: C_38  and  C_39 
REMARK   16  A    between atoms: C_39  and  O_41 
REMARK   17  A    between atoms: C_42  and  O_44 
ROOT
HETATM    1  C   UNK N   1      28.620  17.888   5.738  0.00  0.00     0.043 A 
HETATM    2  C   UNK N   1      28.944  17.926   7.095  0.00  0.00     0.025 A 
HETATM    3  C   UNK N   1      30.070  17.253   7.564  0.00  0.00    -0.048 A 
HETATM    4  C   UNK N   1      30.911  16.577   6.665  0.00  0.00     0.022 A 
HETATM    5  C   UNK N   1      30.624  16.536   5.294  0.00  0.00     0.011 A 
HETATM    6  C   UNK N   1      29.435  17.160   4.842  0.00  0.00     0.090 A 
ENDROOT
BRANCH   1   7
HETATM    7  C   UNK N   1      27.526  18.739   5.220  0.00  0.00     0.119 A 
HETATM    8  N   UNK N   1      26.232  18.524   5.561  0.00  0.00    -0.340 N 
HETATM    9  C   UNK N   1      25.538  19.231   4.675  0.00  0.00     0.061 A 
HETATM   10  H   UNK N   1      25.885  17.972   6.298  0.00  0.00     0.167 HD
HETATM   11  C   UNK N   1      26.383  19.869   3.827  0.00  0.00     0.060 A 
HETATM   12  C   UNK N   1      24.164  19.238   4.514  0.00  0.00     0.047 A 
HETATM   13  C   UNK N   1      25.915  20.606   2.744  0.00  0.00     0.033 A 
HETATM   14  N   UNK N   1      27.655  19.576   4.155  0.00  0.00    -0.340 N 
HETATM   15  C   UNK N   1      24.517  20.634   2.537  0.00  0.00     0.017 A 
HETATM   16  C   UNK N   1      23.638  19.938   3.415  0.00  0.00     0.009 A 
ATOM     17  HN  UNK N   1      28.512  19.904   3.710  1.00  0.00     0.167 HD
BRANCH  16  18
HETATM   18  C   UNK N   1      22.186  19.873   3.152  0.00  0.00     0.102 C 
BRANCH  18  19
HETATM   19  N   UNK N   1      21.691  20.428   2.109  0.00  0.00    -0.385 N 
HETATM   20  H   UNK N   1      21.649  21.401   1.968  0.00  0.00     0.157 HD
ATOM     21  HN  UNK N   1      21.315  19.823   1.378  1.00  0.00     0.157 HD
ENDBRANCH  18  19
BRANCH  18  22
HETATM   22  N   UNK N   1      21.349  19.096   3.988  0.00  0.00    -0.385 N 
HETATM   23  H   UNK N   1      20.372  19.077   3.870  0.00  0.00     0.157 HD
HETATM   24  H   UNK N   1      21.755  18.560   4.708  0.00  0.00     0.157 HD
ENDBRANCH  18  22
ENDBRANCH  16  18
ENDBRANCH   1   7
BRANCH   6  25
HETATM   25  O   UNK N   1      29.066  17.060   3.554  0.00  0.00    -0.359 OA
HETATM   26  H   UNK N   1      28.477  17.623   3.091  0.00  0.00     0.217 HD
ENDBRANCH   6  25
BRANCH   3  27
HETATM   27  C   UNK N   1      30.375  17.247   9.026  0.00  0.00     0.141 C 
BRANCH  27  28
HETATM   28  C   UNK N   1      31.542  16.347   9.245  0.00  0.00     0.222 C 
HETATM   29  O   UNK N   1      31.362  15.143   9.365  0.00  0.00    -0.273 OA
HETATM   30  N   UNK N   1      32.794  16.869   9.194  0.00  0.00    -0.346 N 
HETATM   31  H   UNK N   1      32.886  17.848   9.220  0.00  0.00     0.163 HD
BRANCH  30  32
HETATM   32  C   UNK N   1      34.003  16.076   9.103  0.00  0.00     0.192 C 
BRANCH  32  33
HETATM   33  C   UNK N   1      34.903  16.508   7.951  0.00  0.00     0.146 C 
BRANCH  33  34
HETATM   34  C   UNK N   1      34.606  17.908   7.543  0.00  0.00     0.141 C 
HETATM   35  O   UNK N   1      34.056  18.123   6.477  0.00  0.00    -0.650 OA
BRANCH  34  36
HETATM   36  O   UNK N   1      34.927  18.933   8.354  0.00  0.00    -0.776 OA
HETATM   37  H   UNK N   1      34.270  19.550   8.612  0.00  0.00     0.167 HD
ENDBRANCH  34  36
ENDBRANCH  33  34
ENDBRANCH  32  33
BRANCH  32  38
HETATM   38  C   UNK N   1      34.735  16.105  10.411  0.00  0.00     0.164 C 
HETATM   39  O   UNK N   1      34.929  15.063  11.013  0.00  0.00    -0.648 OA
BRANCH  38  40
HETATM   40  O   UNK N   1      35.155  17.271  10.939  0.00  0.00    -0.775 OA
HETATM   41  H   UNK N   1      35.954  17.597  11.306  0.00  0.00     0.167 HD
ENDBRANCH  38  40
ENDBRANCH  32  38
ENDBRANCH  30  32
ENDBRANCH  27  28
ENDBRANCH   3  27
BRANCH   5  42
HETATM   42  C   UNK N   1      31.613  15.880   4.364  0.00  0.00     0.011 A 
HETATM   43  C   UNK N   1      31.598  14.475   4.219  0.00  0.00     0.040 A 
HETATM   44  C   UNK N   1      32.536  13.831   3.388  0.00  0.00     0.080 A 
HETATM   45  C   UNK N   1      33.482  14.581   2.698  0.00  0.00     0.028 A 
HETATM   46  C   UNK N   1      33.538  15.954   2.856  0.00  0.00     0.039 A 
HETATM   47  C   UNK N   1      32.636  16.610   3.687  0.00  0.00     0.076 A 
BRANCH  44  48
HETATM   48  S   UNK N   1      32.597  12.052   3.192  0.00  0.00     0.256 S 
HETATM   49  O   UNK N   1      33.716  11.249   2.517  0.00  0.00    -0.201 OA
HETATM   50  O   UNK N   1      31.293  11.251   3.066  0.00  0.00    -0.201 OA
BRANCH  48  51
HETATM   51  N   UNK N   1      32.234  12.554   1.538  0.00  0.00    -0.324 N 
HETATM   52  H   UNK N   1      32.321  12.799   0.552  0.00  0.00     0.169 HD
HETATM   53  H   UNK N   1      31.231  12.705   1.643  0.00  0.00     0.169 HD
ENDBRANCH  48  51
ENDBRANCH  44  48
BRANCH  47  54
HETATM   54  O   UNK N   1      32.823  17.924   3.877  0.00  0.00    -0.360 OA
HETATM   55  H   UNK N   1      33.244  18.245   4.651  0.00  0.00     0.217 HD
ENDBRANCH  47  54
ENDBRANCH   5  42
TORSDOF 17
ENDMDL
MODEL 4
REMARK VINA RESULT:      -8.2      1.796      2.527
REMARK  17 active torsions:
REMARK  status: ('A' for Active; 'I' for Inactive)
REMARK    1  A    between atoms: C_6  and  C_7 
REMARK    2  A    between atoms: C_7  and  N_8 
REMARK    3  A    between atoms: C_7  and  N_10 
REMARK    4  A    between atoms: C_12  and  C_15 
REMARK    5  A    between atoms: C_17  and  C_33 
REMARK    6  A    between atoms: C_19  and  C_22 
REMARK    7  A    between atoms: C_20  and  O_21 
REMARK    8  A    between atoms: C_24  and  S_29 
REMARK    9  A    between atoms: C_27  and  O_28 
REMARK   10  A    between atoms: S_29  and  N_32 
REMARK   11  A    between atoms: C_33  and  C_34 
REMARK       I    between atoms: C_34  and  N_36 
REMARK   12  A    between atoms: C_37  and  N_36 
REMARK   13  A    between atoms: C_37  and  C_38 
REMARK   14  A    between atoms: C_37  and  C_42 
REMARK   15  A    between atoms: C_38  and  C_39 
REMARK   16  A    between atoms: C_39  and  O_41 
REMARK   17  A    between atoms: C_42  and  O_44 
ROOT
HETATM    1  C   UNK N   1      28.041  17.403   4.029  0.00  0.00     0.043 A 
HETATM    2  C   UNK N   1      27.519  18.695   4.116  0.00  0.00     0.025 A 
HETATM    3  C   UNK N   1      26.187  18.933   3.786  0.00  0.00    -0.048 A 
HETATM    4  C   UNK N   1      25.351  17.867   3.417  0.00  0.00     0.022 A 
HETATM    5  C   UNK N   1      25.840  16.556   3.339  0.00  0.00     0.011 A 
HETATM    6  C   UNK N   1      27.215  16.339   3.603  0.00  0.00     0.090 A 
ENDROOT
BRANCH   1   7
HETATM    7  C   UNK N   1      29.402  17.126   4.540  0.00  0.00     0.119 A 
HETATM    8  N   UNK N   1      29.653  16.994   5.866  0.00  0.00    -0.340 N 
HETATM    9  C   UNK N   1      30.975  17.092   5.960  0.00  0.00     0.061 A 
HETATM   10  H   UNK N   1      29.005  16.857   6.593  0.00  0.00     0.167 HD
HETATM   11  C   UNK N   1      31.516  17.263   4.727  0.00  0.00     0.060 A 
HETATM   12  C   UNK N   1      31.721  17.153   7.123  0.00  0.00     0.047 A 
HETATM   13  C   UNK N   1      32.877  17.485   4.550  0.00  0.00     0.033 A 
HETATM   14  N   UNK N   1      30.536  17.284   3.805  0.00  0.00    -0.340 N 
HETATM   15  C   UNK N   1      33.677  17.563   5.713  0.00  0.00     0.017 A 
HETATM   16  C   UNK N   1      33.098  17.410   7.005  0.00  0.00     0.009 A 
ATOM     17  HN  UNK N   1      30.623  17.393   2.795  1.00  0.00     0.167 HD
BRANCH  16  18
HETATM   18  C   UNK N   1      33.901  17.592   8.231  0.00  0.00     0.102 C 
BRANCH  18  19
HETATM   19  N   UNK N   1      33.964  16.661   9.109  0.00  0.00    -0.385 N 
HETATM   20  H   UNK N   1      34.735  16.513   9.703  0.00  0.00     0.157 HD
ATOM     21  HN  UNK N   1      33.165  16.033   9.197  1.00  0.00     0.157 HD
ENDBRANCH  18  19
BRANCH  18  22
HETATM   22  N   UNK N   1      34.701  18.749   8.388  0.00  0.00    -0.385 N 
HETATM   23  H   UNK N   1      34.498  19.430   9.070  0.00  0.00     0.157 HD
HETATM   24  H   UNK N   1      35.481  18.876   7.801  0.00  0.00     0.157 HD
ENDBRANCH  18  22
ENDBRANCH  16  18
ENDBRANCH   1   7
BRANCH   6  25
HETATM   25  O   UNK N   1      27.750  15.118   3.442  0.00  0.00    -0.359 OA
HETATM   26  H   UNK N   1      27.685  14.570   2.684  0.00  0.00     0.217 HD
ENDBRANCH   6  25
BRANCH   3  27
HETATM   27  C   UNK N   1      25.653  20.328   3.821  0.00  0.00     0.141 C 
BRANCH  27  28
HETATM   28  C   UNK N   1      24.324  20.324   3.147  0.00  0.00     0.222 C 
HETATM   29  O   UNK N   1      24.227  20.745   2.002  0.00  0.00    -0.273 OA
HETATM   30  N   UNK N   1      23.268  19.749   3.776  0.00  0.00    -0.346 N 
HETATM   31  H   UNK N   1      23.362  19.539   4.733  0.00  0.00     0.163 HD
BRANCH  30  32
HETATM   32  C   UNK N   1      22.013  19.425   3.130  0.00  0.00     0.192 C 
BRANCH  32  33
HETATM   33  C   UNK N   1      21.286  18.268   3.806  0.00  0.00     0.146 C 
BRANCH  33  34
HETATM   34  C   UNK N   1      21.666  18.171   5.242  0.00  0.00     0.141 C 
HETATM   35  O   UNK N   1      22.496  17.350   5.593  0.00  0.00    -0.650 OA
BRANCH  34  36
HETATM   36  O   UNK N   1      21.110  18.995   6.148  0.00  0.00    -0.776 OA
HETATM   37  H   UNK N   1      21.215  19.923   6.064  0.00  0.00     0.167 HD
ENDBRANCH  34  36
ENDBRANCH  33  34
ENDBRANCH  32  33
BRANCH  32  38
HETATM   38  C   UNK N   1      21.147  20.645   3.050  0.00  0.00     0.164 C 
HETATM   39  O   UNK N   1      20.231  20.785   3.842  0.00  0.00    -0.648 OA
BRANCH  38  40
HETATM   40  O   UNK N   1      21.354  21.575   2.097  0.00  0.00    -0.775 OA
HETATM   41  H   UNK N   1      21.208  22.497   2.010  0.00  0.00     0.167 HD
ENDBRANCH  38  40
ENDBRANCH  32  38
ENDBRANCH  30  32
ENDBRANCH  27  28
ENDBRANCH   3  27
BRANCH   5  42
HETATM   42  C   UNK N   1      24.875  15.439   3.033  0.00  0.00     0.011 A 
HETATM   43  C   UNK N   1      24.060  14.927   4.067  0.00  0.00     0.040 A 
HETATM   44  C   UNK N   1      23.178  13.856   3.819  0.00  0.00     0.080 A 
HETATM   45  C   UNK N   1      23.101  13.300   2.547  0.00  0.00     0.028 A 
HETATM   46  C   UNK N   1      23.917  13.762   1.530  0.00  0.00     0.039 A 
HETATM   47  C   UNK N   1      24.811  14.803   1.756  0.00  0.00     0.076 A 
BRANCH  44  48
HETATM   48  S   UNK N   1      22.147  13.135   5.094  0.00  0.00     0.256 S 
HETATM   49  O   UNK N   1      20.942  13.798   5.773  0.00  0.00    -0.201 OA
HETATM   50  O   UNK N   1      22.743  12.113   6.073  0.00  0.00    -0.201 OA
BRANCH  48  51
HETATM   51  N   UNK N   1      23.070  14.306   6.039  0.00  0.00    -0.324 N 
HETATM   52  H   UNK N   1      23.809  14.763   6.574  0.00  0.00     0.169 HD
HETATM   53  H   UNK N   1      22.376  15.053   6.073  0.00  0.00     0.169 HD
ENDBRANCH  48  51
ENDBRANCH  44  48
BRANCH  47  54
HETATM   54  O   UNK N   1      25.647  15.120   0.757  0.00  0.00    -0.360 OA
HETATM   55  H   UNK N   1      25.326  15.284  -0.109  0.00  0.00     0.217 HD
ENDBRANCH  47  54
ENDBRANCH   5  42
TORSDOF 17
ENDMDL
MODEL 5
REMARK VINA RESULT:      -8.0      9.276     14.345
REMARK  17 active torsions:
REMARK  status: ('A' for Active; 'I' for Inactive)
REMARK    1  A    between atoms: C_6  and  C_7 
REMARK    2  A    between atoms: C_7  and  N_8 
REMARK    3  A    between atoms: C_7  and  N_10 
REMARK    4  A    between atoms: C_12  and  C_15 
REMARK    5  A    between atoms: C_17  and  C_33 
REMARK    6  A    between atoms: C_19  and  C_22 
REMARK    7  A    between atoms: C_20  and  O_21 
REMARK    8  A    between atoms: C_24  and  S_29 
REMARK    9  A    between atoms: C_27  and  O_28 
REMARK   10  A    between atoms: S_29  and  N_32 
REMARK   11  A    between atoms: C_33  and  C_34 
REMARK       I    between atoms: C_34  and  N_36 
REMARK   12  A    between atoms: C_37  and  N_36 
REMARK   13  A    between atoms: C_37  and  C_38 
REMARK   14  A    between atoms: C_37  and  C_42 
REMARK   15  A    between atoms: C_38  and  C_39 
REMARK   16  A    between atoms: C_39  and  O_41 
REMARK   17  A    between atoms: C_42  and  O_44 
ROOT
HETATM    1  C   UNK N   1      35.956  13.047  12.080  0.00  0.00     0.043 A 
HETATM    2  C   UNK N   1      37.273  12.823  11.676  0.00  0.00     0.025 A 
HETATM    3  C   UNK N   1      37.743  13.378  10.488  0.00  0.00    -0.048 A 
HETATM    4  C   UNK N   1      36.911  14.209   9.721  0.00  0.00     0.022 A 
HETATM    5  C   UNK N   1      35.590  14.469  10.109  0.00  0.00     0.011 A 
HETATM    6  C   UNK N   1      35.100  13.837  11.278  0.00  0.00     0.090 A 
ENDROOT
BRANCH   1   7
HETATM    7  C   UNK N   1      35.512  12.600  13.419  0.00  0.00     0.119 A 
HETATM    8  N   UNK N   1      35.295  13.478  14.429  0.00  0.00    -0.340 N 
HETATM    9  C   UNK N   1      35.247  12.719  15.518  0.00  0.00     0.061 A 
HETATM   10  H   UNK N   1      35.195  14.456  14.369  0.00  0.00     0.167 HD
HETATM   11  C   UNK N   1      35.415  11.416  15.182  0.00  0.00     0.060 A 
HETATM   12  C   UNK N   1      35.176  13.155  16.829  0.00  0.00     0.047 A 
HETATM   13  C   UNK N   1      35.498  10.417  16.146  0.00  0.00     0.033 A 
HETATM   14  N   UNK N   1      35.582  11.312  13.851  0.00  0.00    -0.340 N 
HETATM   15  C   UNK N   1      35.438  10.818  17.500  0.00  0.00     0.017 A 
HETATM   16  C   UNK N   1      35.290  12.191  17.846  0.00  0.00     0.009 A 
ATOM     17  HN  UNK N   1      35.726  10.468  13.297  1.00  0.00     0.167 HD
BRANCH  16  18
HETATM   18  C   UNK N   1      35.330  12.636  19.254  0.00  0.00     0.102 C 
BRANCH  18  19
HETATM   19  N   UNK N   1      34.937  13.812  19.574  0.00  0.00    -0.385 N 
HETATM   20  H   UNK N   1      34.554  14.048  20.450  0.00  0.00     0.157 HD
ATOM     21  HN  UNK N   1      35.024  14.552  18.876  1.00  0.00     0.157 HD
ENDBRANCH  18  19
BRANCH  18  22
HETATM   22  N   UNK N   1      35.692  11.724  20.274  0.00  0.00    -0.385 N 
HETATM   23  H   UNK N   1      35.099  11.538  21.037  0.00  0.00     0.157 HD
HETATM   24  H   UNK N   1      36.560  11.263  20.219  0.00  0.00     0.157 HD
ENDBRANCH  18  22
ENDBRANCH  16  18
ENDBRANCH   1   7
BRANCH   6  25
HETATM   25  O   UNK N   1      33.813  13.975  11.633  0.00  0.00    -0.359 OA
HETATM   26  H   UNK N   1      33.299  13.374  12.139  0.00  0.00     0.217 HD
ENDBRANCH   6  25
BRANCH   3  27
HETATM   27  C   UNK N   1      39.134  13.081  10.031  0.00  0.00     0.141 C 
BRANCH  27  28
HETATM   28  C   UNK N   1      39.068  12.682   8.597  0.00  0.00     0.222 C 
HETATM   29  O   UNK N   1      38.529  11.628   8.288  0.00  0.00    -0.273 OA
HETATM   30  N   UNK N   1      39.508  13.551   7.651  0.00  0.00    -0.346 N 
HETATM   31  H   UNK N   1      40.042  14.322   7.948  0.00  0.00     0.163 HD
BRANCH  30  32
HETATM   32  C   UNK N   1      39.243  13.414   6.234  0.00  0.00     0.192 C 
BRANCH  32  33
HETATM   33  C   UNK N   1      38.409  14.563   5.679  0.00  0.00     0.146 C 
BRANCH  33  34
HETATM   34  C   UNK N   1      36.960  14.336   5.932  0.00  0.00     0.141 C 
HETATM   35  O   UNK N   1      36.155  15.210   5.661  0.00  0.00    -0.650 OA
BRANCH  34  36
HETATM   36  O   UNK N   1      36.537  13.165   6.443  0.00  0.00    -0.776 OA
HETATM   37  H   UNK N   1      36.351  13.093   7.359  0.00  0.00     0.167 HD
ENDBRANCH  34  36
ENDBRANCH  33  34
ENDBRANCH  32  33
BRANCH  32  38
HETATM   38  C   UNK N   1      40.531  13.259   5.483  0.00  0.00     0.164 C 
HETATM   39  O   UNK N   1      41.069  12.167   5.434  0.00  0.00    -0.648 OA
BRANCH  38  40
HETATM   40  O   UNK N   1      41.110  14.318   4.885  0.00  0.00    -0.775 OA
HETATM   41  H   UNK N   1      41.873  14.843   5.033  0.00  0.00     0.167 HD
ENDBRANCH  38  40
ENDBRANCH  32  38
ENDBRANCH  30  32
ENDBRANCH  27  28
ENDBRANCH   3  27
BRANCH   5  42
HETATM   42  C   UNK N   1      34.774  15.445   9.299  0.00  0.00     0.011 A 
HETATM   43  C   UNK N   1      33.971  14.963   8.241  0.00  0.00     0.040 A 
HETATM   44  C   UNK N   1      33.229  15.856   7.443  0.00  0.00     0.080 A 
HETATM   45  C   UNK N   1      33.280  17.222   7.697  0.00  0.00     0.028 A 
HETATM   46  C   UNK N   1      34.089  17.717   8.704  0.00  0.00     0.039 A 
HETATM   47  C   UNK N   1      34.847  16.857   9.492  0.00  0.00     0.076 A 
BRANCH  44  48
HETATM   48  S   UNK N   1      32.224  15.315   6.062  0.00  0.00     0.256 S 
HETATM   49  O   UNK N   1      31.186  14.186   6.080  0.00  0.00    -0.201 OA
HETATM   50  O   UNK N   1      32.757  15.450   4.628  0.00  0.00    -0.201 OA
BRANCH  48  51
HETATM   51  N   UNK N   1      33.378  13.984   6.172  0.00  0.00    -0.324 N 
HETATM   52  H   UNK N   1      33.899  13.126   5.987  0.00  0.00     0.169 HD
HETATM   53  H   UNK N   1      33.875  14.284   7.010  0.00  0.00     0.169 HD
ENDBRANCH  48  51
ENDBRANCH  44  48
BRANCH  47  54
HETATM   54  O   UNK N   1      35.691  17.417  10.371  0.00  0.00    -0.360 OA
HETATM   55  H   UNK N   1      35.679  17.172  11.276  0.00  0.00     0.217 HD
ENDBRANCH  47  54
ENDBRANCH   5  42
TORSDOF 17
ENDMDL
MODEL 6
REMARK VINA RESULT:      -8.0      2.322      3.183
REMARK  17 active torsions:
REMARK  status: ('A' for Active; 'I' for Inactive)
REMARK    1  A    between atoms: C_6  and  C_7 
REMARK    2  A    between atoms: C_7  and  N_8 
REMARK    3  A    between atoms: C_7  and  N_10 
REMARK    4  A    between atoms: C_12  and  C_15 
REMARK    5  A    between atoms: C_17  and  C_33 
REMARK    6  A    between atoms: C_19  and  C_22 
REMARK    7  A    between atoms: C_20  and  O_21 
REMARK    8  A    between atoms: C_24  and  S_29 
REMARK    9  A    between atoms: C_27  and  O_28 
REMARK   10  A    between atoms: S_29  and  N_32 
REMARK   11  A    between atoms: C_33  and  C_34 
REMARK       I    between atoms: C_34  and  N_36 
REMARK   12  A    between atoms: C_37  and  N_36 
REMARK   13  A    between atoms: C_37  and  C_38 
REMARK   14  A    between atoms: C_37  and  C_42 
REMARK   15  A    between atoms: C_38  and  C_39 
REMARK   16  A    between atoms: C_39  and  O_41 
REMARK   17  A    between atoms: C_42  and  O_44 
ROOT
HETATM    1  C   UNK N   1      27.427  17.845   5.003  0.00  0.00     0.043 A 
HETATM    2  C   UNK N   1      27.033  18.907   4.188  0.00  0.00     0.025 A 
HETATM    3  C   UNK N   1      25.732  18.966   3.696  0.00  0.00    -0.048 A 
HETATM    4  C   UNK N   1      24.796  17.984   4.062  0.00  0.00     0.022 A 
HETATM    5  C   UNK N   1      25.155  16.915   4.894  0.00  0.00     0.011 A 
HETATM    6  C   UNK N   1      26.501  16.826   5.324  0.00  0.00     0.090 A 
ENDROOT
BRANCH   1   7
HETATM    7  C   UNK N   1      28.753  17.874   5.658  0.00  0.00     0.119 A 
HETATM    8  N   UNK N   1      29.891  17.581   4.981  0.00  0.00    -0.340 N 
HETATM    9  C   UNK N   1      30.797  17.382   5.933  0.00  0.00     0.061 A 
HETATM   10  H   UNK N   1      30.017  17.528   4.006  0.00  0.00     0.167 HD
HETATM   11  C   UNK N   1      30.233  17.563   7.154  0.00  0.00     0.060 A 
HETATM   12  C   UNK N   1      32.091  16.927   5.763  0.00  0.00     0.047 A 
HETATM   13  C   UNK N   1      30.940  17.326   8.328  0.00  0.00     0.033 A 
HETATM   14  N   UNK N   1      28.934  17.880   7.007  0.00  0.00    -0.340 N 
HETATM   15  C   UNK N   1      32.265  16.851   8.201  0.00  0.00     0.017 A 
HETATM   16  C   UNK N   1      32.840  16.637   6.916  0.00  0.00     0.009 A 
ATOM     17  HN  UNK N   1      28.247  18.079   7.734  1.00  0.00     0.167 HD
BRANCH  16  18
HETATM   18  C   UNK N   1      34.185  16.044   6.768  0.00  0.00     0.102 C 
BRANCH  18  19
HETATM   19  N   UNK N   1      34.873  15.730   7.802  0.00  0.00    -0.385 N 
HETATM   20  H   UNK N   1      34.486  15.563   8.692  0.00  0.00     0.157 HD
ATOM     21  HN  UNK N   1      35.884  15.650   7.698  1.00  0.00     0.157 HD
ENDBRANCH  18  19
BRANCH  18  22
HETATM   22  N   UNK N   1      34.673  15.710   5.482  0.00  0.00    -0.385 N 
HETATM   23  H   UNK N   1      34.530  16.297   4.705  0.00  0.00     0.157 HD
HETATM   24  H   UNK N   1      35.171  14.869   5.362  0.00  0.00     0.157 HD
ENDBRANCH  18  22
ENDBRANCH  16  18
ENDBRANCH   1   7
BRANCH   6  25
HETATM   25  O   UNK N   1      26.915  15.766   6.038  0.00  0.00    -0.359 OA
HETATM   26  H   UNK N   1      26.626  14.879   5.947  0.00  0.00     0.217 HD
ENDBRANCH   6  25
BRANCH   3  27
HETATM   27  C   UNK N   1      25.336  20.072   2.774  0.00  0.00     0.141 C 
BRANCH  27  28
HETATM   28  C   UNK N   1      23.924  20.435   3.077  0.00  0.00     0.222 C 
HETATM   29  O   UNK N   1      23.587  21.611   3.066  0.00  0.00    -0.273 OA
HETATM   30  N   UNK N   1      23.012  19.444   3.250  0.00  0.00    -0.346 N 
HETATM   31  H   UNK N   1      23.347  18.527   3.374  0.00  0.00     0.163 HD
BRANCH  30  32
HETATM   32  C   UNK N   1      21.578  19.650   3.263  0.00  0.00     0.192 C 
BRANCH  32  33
HETATM   33  C   UNK N   1      20.929  19.349   1.917  0.00  0.00     0.146 C 
BRANCH  33  34
HETATM   34  C   UNK N   1      20.791  20.590   1.108  0.00  0.00     0.141 C 
HETATM   35  O   UNK N   1      20.897  21.678   1.646  0.00  0.00    -0.650 OA
BRANCH  34  36
HETATM   36  O   UNK N   1      20.566  20.514  -0.217  0.00  0.00    -0.776 OA
HETATM   37  H   UNK N   1      19.728  20.241  -0.536  0.00  0.00     0.167 HD
ENDBRANCH  34  36
ENDBRANCH  33  34
ENDBRANCH  32  33
BRANCH  32  38
HETATM   38  C   UNK N   1      20.955  18.847   4.365  0.00  0.00     0.164 C 
HETATM   39  O   UNK N   1      20.301  17.856   4.089  0.00  0.00    -0.648 OA
BRANCH  38  40
HETATM   40  O   UNK N   1      21.089  19.223   5.651  0.00  0.00    -0.775 OA
HETATM   41  H   UNK N   1      20.511  19.385   6.371  0.00  0.00     0.167 HD
ENDBRANCH  38  40
ENDBRANCH  32  38
ENDBRANCH  30  32
ENDBRANCH  27  28
ENDBRANCH   3  27
BRANCH   5  42
HETATM   42  C   UNK N   1      24.086  15.946   5.331  0.00  0.00     0.011 A 
HETATM   43  C   UNK N   1      23.095  16.375   6.242  0.00  0.00     0.040 A 
HETATM   44  C   UNK N   1      22.107  15.480   6.699  0.00  0.00     0.080 A 
HETATM   45  C   UNK N   1      22.100  14.165   6.248  0.00  0.00     0.028 A 
HETATM   46  C   UNK N   1      23.083  13.715   5.386  0.00  0.00     0.039 A 
HETATM   47  C   UNK N   1      24.081  14.574   4.937  0.00  0.00     0.076 A 
BRANCH  44  48
HETATM   48  S   UNK N   1      20.848  15.949   7.884  0.00  0.00     0.256 S 
HETATM   49  O   UNK N   1      19.629  15.114   8.293  0.00  0.00    -0.201 OA
HETATM   50  O   UNK N   1      20.500  17.431   8.084  0.00  0.00    -0.201 OA
BRANCH  48  51
HETATM   51  N   UNK N   1      19.961  16.134   6.368  0.00  0.00    -0.324 N 
HETATM   52  H   UNK N   1      19.512  16.531   5.543  0.00  0.00     0.169 HD
HETATM   53  H   UNK N   1      19.749  15.151   6.197  0.00  0.00     0.169 HD
ENDBRANCH  48  51
ENDBRANCH  44  48
BRANCH  47  54
HETATM   54  O   UNK N   1      25.061  14.039   4.195  0.00  0.00    -0.360 OA
HETATM   55  H   UNK N   1      24.902  13.292   3.650  0.00  0.00     0.217 HD
ENDBRANCH  47  54
ENDBRANCH   5  42
TORSDOF 17
ENDMDL
MODEL 7
REMARK VINA RESULT:      -7.8      7.183     12.341
REMARK  17 active torsions:
REMARK  status: ('A' for Active; 'I' for Inactive)
REMARK    1  A    between atoms: C_6  and  C_7 
REMARK    2  A    between atoms: C_7  and  N_8 
REMARK    3  A    between atoms: C_7  and  N_10 
REMARK    4  A    between atoms: C_12  and  C_15 
REMARK    5  A    between atoms: C_17  and  C_33 
REMARK    6  A    between atoms: C_19  and  C_22 
REMARK    7  A    between atoms: C_20  and  O_21 
REMARK    8  A    between atoms: C_24  and  S_29 
REMARK    9  A    between atoms: C_27  and  O_28 
REMARK   10  A    between atoms: S_29  and  N_32 
REMARK   11  A    between atoms: C_33  and  C_34 
REMARK       I    between atoms: C_34  and  N_36 
REMARK   12  A    between atoms: C_37  and  N_36 
REMARK   13  A    between atoms: C_37  and  C_38 
REMARK   14  A    between atoms: C_37  and  C_42 
REMARK   15  A    between atoms: C_38  and  C_39 
REMARK   16  A    between atoms: C_39  and  O_41 
REMARK   17  A    between atoms: C_42  and  O_44 
ROOT
HETATM    1  C   UNK N   1      32.957  15.523   8.476  0.00  0.00     0.043 A 
HETATM    2  C   UNK N   1      33.832  15.467   7.390  0.00  0.00     0.025 A 
HETATM    3  C   UNK N   1      35.031  14.767   7.494  0.00  0.00    -0.048 A 
HETATM    4  C   UNK N   1      35.340  14.071   8.674  0.00  0.00     0.022 A 
HETATM    5  C   UNK N   1      34.474  14.092   9.776  0.00  0.00     0.011 A 
HETATM    6  C   UNK N   1      33.295  14.871   9.683  0.00  0.00     0.090 A 
ENDROOT
BRANCH   1   7
HETATM    7  C   UNK N   1      31.614  16.121   8.308  0.00  0.00     0.119 A 
HETATM    8  N   UNK N   1      31.019  16.207   7.093  0.00  0.00    -0.340 N 
HETATM    9  C   UNK N   1      30.025  17.071   7.275  0.00  0.00     0.061 A 
HETATM   10  H   UNK N   1      31.265  15.735   6.264  0.00  0.00     0.167 HD
HETATM   11  C   UNK N   1      30.006  17.489   8.566  0.00  0.00     0.060 A 
HETATM   12  C   UNK N   1      29.197  17.599   6.301  0.00  0.00     0.047 A 
HETATM   13  C   UNK N   1      29.121  18.468   9.004  0.00  0.00     0.033 A 
HETATM   14  N   UNK N   1      31.005  16.896   9.245  0.00  0.00    -0.340 N 
HETATM   15  C   UNK N   1      28.261  19.041   8.040  0.00  0.00     0.017 A 
HETATM   16  C   UNK N   1      28.306  18.617   6.682  0.00  0.00     0.009 A 
ATOM     17  HN  UNK N   1      31.248  17.003  10.230  1.00  0.00     0.167 HD
BRANCH  16  18
HETATM   18  C   UNK N   1      27.488  19.278   5.645  0.00  0.00     0.102 C 
BRANCH  18  19
HETATM   19  N   UNK N   1      26.341  19.767   5.938  0.00  0.00    -0.385 N 
HETATM   20  H   UNK N   1      26.195  20.460   6.622  0.00  0.00     0.157 HD
ATOM     21  HN  UNK N   1      25.528  19.416   5.432  1.00  0.00     0.157 HD
ENDBRANCH  18  19
BRANCH  18  22
HETATM   22  N   UNK N   1      28.018  19.480   4.348  0.00  0.00    -0.385 N 
HETATM   23  H   UNK N   1      28.892  19.910   4.206  0.00  0.00     0.157 HD
HETATM   24  H   UNK N   1      27.498  19.183   3.566  0.00  0.00     0.157 HD
ENDBRANCH  18  22
ENDBRANCH  16  18
ENDBRANCH   1   7
BRANCH   6  25
HETATM   25  O   UNK N   1      32.487  15.003  10.748  0.00  0.00    -0.359 OA
HETATM   26  H   UNK N   1      32.449  15.729  11.340  0.00  0.00     0.217 HD
ENDBRANCH   6  25
BRANCH   3  27
HETATM   27  C   UNK N   1      35.990  14.764   6.348  0.00  0.00     0.141 C 
BRANCH  27  28
HETATM   28  C   UNK N   1      35.470  13.818   5.321  0.00  0.00     0.222 C 
HETATM   29  O   UNK N   1      35.576  12.613   5.501  0.00  0.00    -0.273 OA
HETATM   30  N   UNK N   1      34.788  14.313   4.257  0.00  0.00    -0.346 N 
HETATM   31  H   UNK N   1      34.836  15.281   4.090  0.00  0.00     0.163 HD
BRANCH  30  32
HETATM   32  C   UNK N   1      33.995  13.506   3.352  0.00  0.00     0.192 C 
BRANCH  32  33
HETATM   33  C   UNK N   1      32.609  14.092   3.105  0.00  0.00     0.146 C 
BRANCH  33  34
HETATM   34  C   UNK N   1      32.597  15.555   3.375  0.00  0.00     0.141 C 
HETATM   35  O   UNK N   1      32.079  15.977   4.394  0.00  0.00    -0.650 OA
BRANCH  34  36
HETATM   36  O   UNK N   1      33.170  16.409   2.508  0.00  0.00    -0.776 OA
HETATM   37  H   UNK N   1      32.696  17.160   2.206  0.00  0.00     0.167 HD
ENDBRANCH  34  36
ENDBRANCH  33  34
ENDBRANCH  32  33
BRANCH  32  38
HETATM   38  C   UNK N   1      34.738  13.294   2.068  0.00  0.00     0.164 C 
HETATM   39  O   UNK N   1      34.602  14.093   1.157  0.00  0.00    -0.648 OA
BRANCH  38  40
HETATM   40  O   UNK N   1      35.533  12.219   1.902  0.00  0.00    -0.775 OA
HETATM   41  H   UNK N   1      36.184  11.776   2.411  0.00  0.00     0.167 HD
ENDBRANCH  38  40
ENDBRANCH  32  38
ENDBRANCH  30  32
ENDBRANCH  27  28
ENDBRANCH   3  27
BRANCH   5  42
HETATM   42  C   UNK N   1      34.811  13.248  10.979  0.00  0.00     0.011 A 
HETATM   43  C   UNK N   1      35.184  13.883  12.185  0.00  0.00     0.040 A 
HETATM   44  C   UNK N   1      35.542  13.119  13.314  0.00  0.00     0.080 A 
HETATM   45  C   UNK N   1      35.523  11.730  13.247  0.00  0.00     0.028 A 
HETATM   46  C   UNK N   1      35.196  11.090  12.066  0.00  0.00     0.039 A 
HETATM   47  C   UNK N   1      34.860  11.822  10.932  0.00  0.00     0.076 A 
BRANCH  44  48
HETATM   48  S   UNK N   1      36.063  13.860  14.859  0.00  0.00     0.256 S 
HETATM   49  O   UNK N   1      37.132  14.946  15.032  0.00  0.00    -0.201 OA
HETATM   50  O   UNK N   1      35.996  13.045  16.160  0.00  0.00    -0.201 OA
BRANCH  48  51
HETATM   51  N   UNK N   1      37.453  12.831  14.501  0.00  0.00    -0.324 N 
HETATM   52  H   UNK N   1      38.079  12.155  14.063  0.00  0.00     0.169 HD
HETATM   53  H   UNK N   1      38.051  13.109  15.278  0.00  0.00     0.169 HD
ENDBRANCH  48  51
ENDBRANCH  44  48
BRANCH  47  54
HETATM   54  O   UNK N   1      34.666  11.137   9.796  0.00  0.00    -0.360 OA
HETATM   55  H   UNK N   1      34.236  10.304   9.801  0.00  0.00     0.217 HD
ENDBRANCH  47  54
ENDBRANCH   5  42
TORSDOF 17
ENDMDL
MODEL 8
REMARK VINA RESULT:      -7.8      4.335      8.419
REMARK  17 active torsions:
REMARK  status: ('A' for Active; 'I' for Inactive)
REMARK    1  A    between atoms: C_6  and  C_7 
REMARK    2  A    between atoms: C_7  and  N_8 
REMARK    3  A    between atoms: C_7  and  N_10 
REMARK    4  A    between atoms: C_12  and  C_15 
REMARK    5  A    between atoms: C_17  and  C_33 
REMARK    6  A    between atoms: C_19  and  C_22 
REMARK    7  A    between atoms: C_20  and  O_21 
REMARK    8  A    between atoms: C_24  and  S_29 
REMARK    9  A    between atoms: C_27  and  O_28 
REMARK   10  A    between atoms: S_29  and  N_32 
REMARK   11  A    between atoms: C_33  and  C_34 
REMARK       I    between atoms: C_34  and  N_36 
REMARK   12  A    between atoms: C_37  and  N_36 
REMARK   13  A    between atoms: C_37  and  C_38 
REMARK   14  A    between atoms: C_37  and  C_42 
REMARK   15  A    between atoms: C_38  and  C_39 
REMARK   16  A    between atoms: C_39  and  O_41 
REMARK   17  A    between atoms: C_42  and  O_44 
ROOT
HETATM    1  C   UNK N   1      25.348  14.973   5.937  0.00  0.00     0.043 A 
HETATM    2  C   UNK N   1      26.736  14.854   6.027  0.00  0.00     0.025 A 
HETATM    3  C   UNK N   1      27.559  15.803   5.425  0.00  0.00    -0.048 A 
HETATM    4  C   UNK N   1      26.995  16.912   4.773  0.00  0.00     0.022 A 
HETATM    5  C   UNK N   1      25.606  17.070   4.682  0.00  0.00     0.011 A 
HETATM    6  C   UNK N   1      24.781  16.058   5.231  0.00  0.00     0.090 A 
ENDROOT
BRANCH   1   7
HETATM    7  C   UNK N   1      24.481  14.062   6.717  0.00  0.00     0.119 A 
HETATM    8  N   UNK N   1      23.708  14.511   7.736  0.00  0.00    -0.340 N 
HETATM    9  C   UNK N   1      23.354  13.409   8.389  0.00  0.00     0.061 A 
HETATM   10  H   UNK N   1      23.463  15.442   7.944  0.00  0.00     0.167 HD
HETATM   11  C   UNK N   1      23.884  12.319   7.779  0.00  0.00     0.060 A 
HETATM   12  C   UNK N   1      22.668  13.341   9.588  0.00  0.00     0.047 A 
HETATM   13  C   UNK N   1      23.743  11.042   8.313  0.00  0.00     0.033 A 
HETATM   14  N   UNK N   1      24.602  12.707   6.709  0.00  0.00    -0.340 N 
HETATM   15  C   UNK N   1      23.055  10.926   9.542  0.00  0.00     0.017 A 
HETATM   16  C   UNK N   1      22.527  12.079  10.190  0.00  0.00     0.009 A 
ATOM     17  HN  UNK N   1      25.116  12.123   6.050  1.00  0.00     0.167 HD
BRANCH  16  18
HETATM   18  C   UNK N   1      21.899  11.987  11.524  0.00  0.00     0.102 C 
BRANCH  18  19
HETATM   19  N   UNK N   1      20.625  12.041  11.645  0.00  0.00    -0.385 N 
HETATM   20  H   UNK N   1      20.139  12.805  12.033  0.00  0.00     0.157 HD
ATOM     21  HN  UNK N   1      20.079  11.243  11.320  1.00  0.00     0.157 HD
ENDBRANCH  18  19
BRANCH  18  22
HETATM   22  N   UNK N   1      22.693  11.719  12.664  0.00  0.00    -0.385 N 
HETATM   23  H   UNK N   1      22.865  12.405  13.349  0.00  0.00     0.157 HD
HETATM   24  H   UNK N   1      23.084  10.822  12.776  0.00  0.00     0.157 HD
ENDBRANCH  18  22
ENDBRANCH  16  18
ENDBRANCH   1   7
BRANCH   6  25
HETATM   25  O   UNK N   1      23.448  16.115   5.079  0.00  0.00    -0.359 OA
HETATM   26  H   UNK N   1      22.975  16.597   4.428  0.00  0.00     0.217 HD
ENDBRANCH   6  25
BRANCH   3  27
HETATM   27  C   UNK N   1      29.043  15.635   5.472  0.00  0.00     0.141 C 
BRANCH  27  28
HETATM   28  C   UNK N   1      29.614  16.818   6.175  0.00  0.00     0.222 C 
HETATM   29  O   UNK N   1      30.520  17.452   5.652  0.00  0.00    -0.273 OA
HETATM   30  N   UNK N   1      29.040  17.236   7.332  0.00  0.00    -0.346 N 
HETATM   31  H   UNK N   1      28.404  16.630   7.775  0.00  0.00     0.163 HD
BRANCH  30  32
HETATM   32  C   UNK N   1      29.306  18.516   7.957  0.00  0.00     0.192 C 
BRANCH  32  33
HETATM   33  C   UNK N   1      28.035  19.318   8.216  0.00  0.00     0.146 C 
BRANCH  33  34
HETATM   34  C   UNK N   1      27.518  19.912   6.954  0.00  0.00     0.141 C 
HETATM   35  O   UNK N   1      28.237  19.964   5.971  0.00  0.00    -0.650 OA
BRANCH  34  36
HETATM   36  O   UNK N   1      26.256  20.375   6.890  0.00  0.00    -0.776 OA
HETATM   37  H   UNK N   1      25.824  20.447   6.061  0.00  0.00     0.167 HD
ENDBRANCH  34  36
ENDBRANCH  33  34
ENDBRANCH  32  33
BRANCH  32  38
HETATM   38  C   UNK N   1      30.096  18.319   9.214  0.00  0.00     0.164 C 
HETATM   39  O   UNK N   1      29.670  18.761  10.267  0.00  0.00    -0.648 OA
BRANCH  38  40
HETATM   40  O   UNK N   1      31.283  17.682   9.188  0.00  0.00    -0.775 OA
HETATM   41  H   UNK N   1      32.179  17.928   9.065  0.00  0.00     0.167 HD
ENDBRANCH  38  40
ENDBRANCH  32  38
ENDBRANCH  30  32
ENDBRANCH  27  28
ENDBRANCH   3  27
BRANCH   5  42
HETATM   42  C   UNK N   1      25.058  18.327   4.056  0.00  0.00     0.011 A 
HETATM   43  C   UNK N   1      23.660  18.475   3.912  0.00  0.00     0.040 A 
HETATM   44  C   UNK N   1      23.122  19.622   3.294  0.00  0.00     0.080 A 
HETATM   45  C   UNK N   1      23.969  20.621   2.827  0.00  0.00     0.028 A 
HETATM   46  C   UNK N   1      25.341  20.478   2.925  0.00  0.00     0.039 A 
HETATM   47  C   UNK N   1      25.897  19.346   3.511  0.00  0.00     0.076 A 
BRANCH  44  48
HETATM   48  S   UNK N   1      21.364  19.853   3.045  0.00  0.00     0.256 S 
HETATM   49  O   UNK N   1      20.394  20.557   4.002  0.00  0.00    -0.201 OA
HETATM   50  O   UNK N   1      20.566  18.827   2.227  0.00  0.00    -0.201 OA
BRANCH  48  51
HETATM   51  N   UNK N   1      21.359  18.596   4.285  0.00  0.00    -0.324 N 
HETATM   52  H   UNK N   1      21.064  17.944   5.012  0.00  0.00     0.169 HD
HETATM   53  H   UNK N   1      22.346  18.344   4.248  0.00  0.00     0.169 HD
ENDBRANCH  48  51
ENDBRANCH  44  48
BRANCH  47  54
HETATM   54  O   UNK N   1      27.232  19.227   3.468  0.00  0.00    -0.360 OA
HETATM   55  H   UNK N   1      27.669  18.975   2.678  0.00  0.00     0.217 HD
ENDBRANCH  47  54
ENDBRANCH   5  42
TORSDOF 17
ENDMDL
MODEL 9
REMARK VINA RESULT:      -7.7      9.513     14.366
REMARK  17 active torsions:
REMARK  status: ('A' for Active; 'I' for Inactive)
REMARK    1  A    between atoms: C_6  and  C_7 
REMARK    2  A    between atoms: C_7  and  N_8 
REMARK    3  A    between atoms: C_7  and  N_10 
REMARK    4  A    between atoms: C_12  and  C_15 
REMARK    5  A    between atoms: C_17  and  C_33 
REMARK    6  A    between atoms: C_19  and  C_22 
REMARK    7  A    between atoms: C_20  and  O_21 
REMARK    8  A    between atoms: C_24  and  S_29 
REMARK    9  A    between atoms: C_27  and  O_28 
REMARK   10  A    between atoms: S_29  and  N_32 
REMARK   11  A    between atoms: C_33  and  C_34 
REMARK       I    between atoms: C_34  and  N_36 
REMARK   12  A    between atoms: C_37  and  N_36 
REMARK   13  A    between atoms: C_37  and  C_38 
REMARK   14  A    between atoms: C_37  and  C_42 
REMARK   15  A    between atoms: C_38  and  C_39 
REMARK   16  A    between atoms: C_39  and  O_41 
REMARK   17  A    between atoms: C_42  and  O_44 
ROOT
HETATM    1  C   UNK N   1      35.620  12.535  11.580  0.00  0.00     0.043 A 
HETATM    2  C   UNK N   1      34.582  12.757  10.673  0.00  0.00     0.025 A 
HETATM    3  C   UNK N   1      34.853  12.850   9.310  0.00  0.00    -0.048 A 
HETATM    4  C   UNK N   1      36.163  12.667   8.838  0.00  0.00     0.022 A 
HETATM    5  C   UNK N   1      37.224  12.423   9.721  0.00  0.00     0.011 A 
HETATM    6  C   UNK N   1      36.947  12.408  11.110  0.00  0.00     0.090 A 
ENDROOT
BRANCH   1   7
HETATM    7  C   UNK N   1      35.308  12.268  13.001  0.00  0.00     0.119 A 
HETATM    8  N   UNK N   1      34.944  13.261  13.850  0.00  0.00    -0.340 N 
HETATM    9  C   UNK N   1      35.076  12.724  15.058  0.00  0.00     0.061 A 
HETATM   10  H   UNK N   1      34.647  14.171  13.623  0.00  0.00     0.167 HD
HETATM   11  C   UNK N   1      35.496  11.438  14.950  0.00  0.00     0.060 A 
HETATM   12  C   UNK N   1      34.952  13.374  16.272  0.00  0.00     0.047 A 
HETATM   13  C   UNK N   1      35.803  10.673  16.070  0.00  0.00     0.033 A 
HETATM   14  N   UNK N   1      35.647  11.122  13.651  0.00  0.00    -0.340 N 
HETATM   15  C   UNK N   1      35.697  11.300  17.332  0.00  0.00     0.017 A 
HETATM   16  C   UNK N   1      35.283  12.659  17.435  0.00  0.00     0.009 A 
ATOM     17  HN  UNK N   1      35.946  10.234  13.249  1.00  0.00     0.167 HD
BRANCH  16  18
HETATM   18  C   UNK N   1      35.267  13.358  18.737  0.00  0.00     0.102 C 
BRANCH  18  19
HETATM   19  N   UNK N   1      35.440  12.705  19.825  0.00  0.00    -0.385 N 
HETATM   20  H   UNK N   1      34.973  11.867  20.047  0.00  0.00     0.157 HD
ATOM     21  HN  UNK N   1      36.102  13.078  20.506  1.00  0.00     0.157 HD
ENDBRANCH  18  19
BRANCH  18  22
HETATM   22  N   UNK N   1      35.179  14.770  18.780  0.00  0.00    -0.385 N 
HETATM   23  H   UNK N   1      34.958  15.250  19.611  0.00  0.00     0.157 HD
HETATM   24  H   UNK N   1      35.345  15.286  17.958  0.00  0.00     0.157 HD
ENDBRANCH  18  22
ENDBRANCH  16  18
ENDBRANCH   1   7
BRANCH   6  25
HETATM   25  O   UNK N   1      37.946  12.279  11.998  0.00  0.00    -0.359 OA
HETATM   26  H   UNK N   1      37.914  12.473  12.915  0.00  0.00     0.217 HD
ENDBRANCH   6  25
BRANCH   3  27
HETATM   27  C   UNK N   1      33.746  13.151   8.353  0.00  0.00     0.141 C 
BRANCH  27  28
HETATM   28  C   UNK N   1      34.083  14.421   7.650  0.00  0.00     0.222 C 
HETATM   29  O   UNK N   1      34.254  14.414   6.439  0.00  0.00    -0.273 OA
HETATM   30  N   UNK N   1      34.085  15.581   8.354  0.00  0.00    -0.346 N 
HETATM   31  H   UNK N   1      34.067  15.524   9.336  0.00  0.00     0.163 HD
BRANCH  30  32
HETATM   32  C   UNK N   1      34.111  16.899   7.751  0.00  0.00     0.192 C 
BRANCH  32  33
HETATM   33  C   UNK N   1      32.726  17.381   7.334  0.00  0.00     0.146 C 
BRANCH  33  34
HETATM   34  C   UNK N   1      31.818  17.465   8.509  0.00  0.00     0.141 C 
HETATM   35  O   UNK N   1      31.304  18.531   8.802  0.00  0.00    -0.650 OA
BRANCH  34  36
HETATM   36  O   UNK N   1      31.551  16.366   9.239  0.00  0.00    -0.776 OA
HETATM   37  H   UNK N   1      30.990  16.425   9.988  0.00  0.00     0.167 HD
ENDBRANCH  34  36
ENDBRANCH  33  34
ENDBRANCH  32  33
BRANCH  32  38
HETATM   38  C   UNK N   1      34.775  17.873   8.676  0.00  0.00     0.164 C 
HETATM   39  O   UNK N   1      35.147  17.499   9.776  0.00  0.00    -0.648 OA
BRANCH  38  40
HETATM   40  O   UNK N   1      34.942  19.160   8.316  0.00  0.00    -0.775 OA
HETATM   41  H   UNK N   1      34.451  19.954   8.400  0.00  0.00     0.167 HD
ENDBRANCH  38  40
ENDBRANCH  32  38
ENDBRANCH  30  32
ENDBRANCH  27  28
ENDBRANCH   3  27
BRANCH   5  42
HETATM   42  C   UNK N   1      38.590  12.138   9.152  0.00  0.00     0.011 A 
HETATM   43  C   UNK N   1      39.176  13.067   8.262  0.00  0.00     0.040 A 
HETATM   44  C   UNK N   1      40.435  12.808   7.685  0.00  0.00     0.080 A 
HETATM   45  C   UNK N   1      41.113  11.634   7.994  0.00  0.00     0.028 A 
HETATM   46  C   UNK N   1      40.540  10.695   8.832  0.00  0.00     0.039 A 
HETATM   47  C   UNK N   1      39.290  10.918   9.398  0.00  0.00     0.076 A 
BRANCH  44  48
HETATM   48  S   UNK N   1      41.214  13.924   6.520  0.00  0.00     0.256 S 
HETATM   49  O   UNK N   1      40.503  14.947   5.626  0.00  0.00    -0.201 OA
HETATM   50  O   UNK N   1      42.525  13.517   5.830  0.00  0.00    -0.201 OA
BRANCH  48  51
HETATM   51  N   UNK N   1      40.484  12.753   5.418  0.00  0.00    -0.324 N 
HETATM   52  H   UNK N   1      39.812  12.228   4.858  0.00  0.00     0.169 HD
HETATM   53  H   UNK N   1      41.328  12.243   5.159  0.00  0.00     0.169 HD
ENDBRANCH  48  51
ENDBRANCH  44  48
BRANCH  47  54
HETATM   54  O   UNK N   1      38.751   9.916  10.109  0.00  0.00    -0.360 OA
HETATM   55  H   UNK N   1      38.877   9.859  11.036  0.00  0.00     0.217 HD
ENDBRANCH  47  54
ENDBRANCH   5  42
TORSDOF 17
ENDMDL
