MODEL 1
REMARK VINA RESULT:      -8.8      0.000      0.000
REMARK  20 active torsions:
REMARK  status: ('A' for Active; 'I' for Inactive)
REMARK    1  A    between atoms: C_11  and  C_97 
REMARK    2  A    between atoms: C_14  and  C_94 
REMARK    3  A    between atoms: C_25  and  C_86 
REMARK    4  A    between atoms: C_41  and  C_60 
REMARK    5  A    between atoms: C_54  and  C_55 
REMARK    6  A    between atoms: C_55  and  C_56 
REMARK       I    between atoms: C_56  and  N_58 
REMARK    7  A    between atoms: C_63  and  N_66 
REMARK       I    between atoms: N_66  and  C_67 
REMARK    8  A    between atoms: N_66  and  C_79 
REMARK    9  A    between atoms: C_67  and  O_69 
REMARK   10  A    between atoms: C_70  and  O_69 
REMARK   11  A    between atoms: C_73  and  C_76 
REMARK   12  A    between atoms: C_76  and  O_78 
REMARK   13  A    between atoms: C_79  and  C_80 
REMARK   14  A    between atoms: C_80  and  C_81 
REMARK   15  A    between atoms: C_81  and  C_82 
REMARK   16  A    between atoms: C_82  and  C_83 
REMARK   17  A    between atoms: C_83  and  O_85 
REMARK   18  A    between atoms: C_86  and  O_87 
REMARK   19  A    between atoms: C_86  and  C_88 
REMARK   20  A    between atoms: C_94  and  O_95 
ROOT
HETATM    1  C   UNK N   1      20.025  18.429   2.951  0.00  0.00     0.059 C 
HETATM    2  C   UNK N   1      21.356  17.901   3.348  0.00  0.00     0.013 A 
HETATM    3  S   UNK N   1      22.465  18.731   4.214  0.00  0.00    -0.077 SA
HETATM    4  C   UNK N   1      23.657  17.586   4.218  0.00  0.00     0.075 A 
HETATM    5  N   UNK N   1      23.225  16.483   3.533  0.00  0.00    -0.347 N 
ATOM      6  HN  UNK N   1      23.782  15.640   3.396  1.00  0.00     0.166 HD
HETATM    7  C   UNK N   1      21.932  16.653   3.045  0.00  0.00     0.114 A 
HETATM    8  C   UNK N   1      21.240  15.642   2.205  0.00  0.00     0.269 C 
HETATM    9  O   UNK N   1      20.220  15.946   1.605  0.00  0.00    -0.266 OA
HETATM   10  N   UNK N   1      21.767  14.408   2.060  0.00  0.00    -0.345 N 
HETATM   11  C   UNK N   1      21.263  13.408   1.132  0.00  0.00     0.145 C 
HETATM   12  C   UNK N   1      22.408  12.484   0.840  0.00  0.00     0.075 A 
HETATM   13  S   UNK N   1      23.915  12.601   1.493  0.00  0.00    -0.074 SA
HETATM   14  C   UNK N   1      24.566  11.263   0.804  0.00  0.00     0.040 A 
HETATM   15  C   UNK N   1      23.530  10.676   0.024  0.00  0.00     0.116 A 
HETATM   16  N   UNK N   1      22.349  11.392   0.038  0.00  0.00    -0.347 N 
ATOM     17  HN  UNK N   1      21.521  11.127  -0.496  1.00  0.00     0.166 HD
HETATM   18  C   UNK N   1      23.593   9.418  -0.770  0.00  0.00     0.269 C 
HETATM   19  O   UNK N   1      22.849   9.313  -1.733  0.00  0.00    -0.266 OA
HETATM   20  N   UNK N   1      24.342   8.339  -0.424  0.00  0.00    -0.347 N 
HETATM   21  C   UNK N   1      25.098   8.198   0.798  0.00  0.00     0.225 C 
HETATM   22  C   UNK N   1      26.544   7.986   0.481  0.00  0.00     0.236 C 
HETATM   23  O   UNK N   1      27.278   7.477   1.314  0.00  0.00    -0.272 OA
HETATM   24  N   UNK N   1      27.014   8.357  -0.737  0.00  0.00    -0.346 N 
HETATM   25  C   UNK N   1      28.363   8.154  -1.223  0.00  0.00     0.175 C 
HETATM   26  C   UNK N   1      29.378   8.977  -0.518  0.00  0.00     0.077 A 
HETATM   27  S   UNK N   1      30.931   9.117  -1.041  0.00  0.00    -0.084 SA
HETATM   28  C   UNK N   1      31.534   9.910   0.238  0.00  0.00     0.084 A 
HETATM   29  C   UNK N   1      30.454  10.071   1.112  0.00  0.00     0.073 A 
HETATM   30  N   UNK N   1      29.241   9.589   0.683  0.00  0.00    -0.349 N 
ATOM     31  HN  UNK N   1      28.364   9.678   1.196  1.00  0.00     0.166 HD
HETATM   32  C   UNK N   1      30.640  10.934   2.231  0.00  0.00     0.102 A 
HETATM   33  S   UNK N   1      32.011  10.812   3.138  0.00  0.00    -0.080 SA
HETATM   34  C   UNK N   1      32.282  12.404   3.375  0.00  0.00     0.079 A 
HETATM   35  C   UNK N   1      31.263  13.065   2.667  0.00  0.00     0.040 A 
HETATM   36  N   UNK N   1      30.353  12.242   2.055  0.00  0.00    -0.350 N 
ATOM     37  HN  UNK N   1      29.550  12.581   1.526  1.00  0.00     0.166 HD
HETATM   38  C   UNK N   1      31.099  14.537   2.684  0.00  0.00     0.142 C 
HETATM   39  N   UNK N   1      32.201  15.134   3.197  0.00  0.00    -0.380 N 
ATOM     40  HN  UNK N   1      32.926  15.484   2.569  1.00  0.00     0.160 HD
HETATM   41  C   UNK N   1      32.351  15.272   4.543  0.00  0.00     0.038 C 
HETATM   42  C   UNK N   1      31.308  14.842   5.371  0.00  0.00     0.024 C 
HETATM   43  C   UNK N   1      30.055  14.676   4.783  0.00  0.00    -0.015 C 
HETATM   44  C   UNK N   1      29.923  14.756   3.366  0.00  0.00     0.070 C 
HETATM   45  C   UNK N   1      29.105  15.911   3.047  0.00  0.00     0.158 A 
HETATM   46  S   UNK N   1      29.803  17.396   3.341  0.00  0.00    -0.113 SA
HETATM   47  C   UNK N   1      28.731  17.940   4.473  0.00  0.00     0.082 A 
HETATM   48  C   UNK N   1      27.734  16.948   4.514  0.00  0.00     0.103 A 
HETATM   49  N   UNK N   1      27.941  15.879   3.705  0.00  0.00    -0.371 N 
ATOM     50  HN  UNK N   1      27.269  15.119   3.606  1.00  0.00     0.161 HD
HETATM   51  C   UNK N   1      26.895  16.683   5.684  0.00  0.00     0.269 C 
HETATM   52  O   UNK N   1      27.374  16.048   6.610  0.00  0.00    -0.266 OA
HETATM   53  N   UNK N   1      25.567  16.922   5.654  0.00  0.00    -0.345 N 
HETATM   54  C   UNK N   1      25.062  17.852   4.693  0.00  0.00     0.150 C 
HETATM   55  H   UNK N   1      22.543  14.169   2.618  0.00  0.00     0.163 HD
HETATM   56  H   UNK N   1      24.371   7.589  -1.060  0.00  0.00     0.163 HD
HETATM   57  H   UNK N   1      26.381   8.802  -1.346  0.00  0.00     0.163 HD
HETATM   58  H   UNK N   1      24.961  16.465   6.280  0.00  0.00     0.163 HD
ENDROOT
BRANCH  41  59
HETATM   59  C   UNK N   1      33.699  15.123   4.989  0.00  0.00     0.199 A 
HETATM   60  S   UNK N   1      34.769  14.036   4.346  0.00  0.00    -0.106 SA
HETATM   61  C   UNK N   1      35.464  13.508   5.762  0.00  0.00     0.096 A 
HETATM   62  C   UNK N   1      34.758  14.199   6.766  0.00  0.00     0.115 A 
HETATM   63  N   UNK N   1      33.802  15.049   6.321  0.00  0.00    -0.357 N 
ATOM     64  HN  UNK N   1      33.209  15.590   6.951  1.00  0.00     0.162 HD
BRANCH  62  65
HETATM   65  N   UNK N   1      34.682  13.720   8.090  0.00  0.00    -0.279 N 
HETATM   66  C   UNK N   1      35.787  13.365   8.774  0.00  0.00     0.368 C 
HETATM   67  O   UNK N   1      36.895  13.553   8.288  0.00  0.00    -0.238 OA
BRANCH  66  68
HETATM   68  O   UNK N   1      35.679  12.789   9.994  0.00  0.00    -0.298 OA
BRANCH  68  69
HETATM   69  C   UNK N   1      36.713  12.802  10.933  0.00  0.00     0.133 C 
HETATM   70  C   UNK N   1      36.573  11.615  11.861  0.00  0.00     0.033 C 
HETATM   71  C   UNK N   1      35.219  11.693  12.557  0.00  0.00     0.018 C 
HETATM   72  C   UNK N   1      34.976  13.023  13.301  0.00  0.00     0.084 C 
HETATM   73  C   UNK N   1      35.541  14.297  12.644  0.00  0.00     0.018 C 
HETATM   74  C   UNK N   1      36.805  14.069  11.808  0.00  0.00     0.033 C 
BRANCH  72  75
HETATM   75  C   UNK N   1      35.263  12.982  14.760  0.00  0.00     0.143 C 
HETATM   76  O   UNK N   1      36.420  12.916  15.141  0.00  0.00    -0.650 OA
BRANCH  75  77
HETATM   77  O   UNK N   1      34.266  13.062  15.660  0.00  0.00    -0.776 OA
HETATM   78  H   UNK N   1      33.760  12.302  15.869  0.00  0.00     0.167 HD
ENDBRANCH  75  77
ENDBRANCH  72  75
ENDBRANCH  68  69
ENDBRANCH  66  68
BRANCH  65  79
HETATM   79  C   UNK N   1      33.387  13.737   8.744  0.00  0.00     0.136 C 
BRANCH  79  80
HETATM   80  C   UNK N   1      33.163  14.944   9.647  0.00  0.00     0.021 C 
BRANCH  80  81
HETATM   81  C   UNK N   1      34.254  15.976   9.393  0.00  0.00     0.012 C 
BRANCH  81  82
HETATM   82  C   UNK N   1      33.649  17.324   9.045  0.00  0.00     0.110 C 
BRANCH  82  83
HETATM   83  C   UNK N   1      34.549  18.123   8.160  0.00  0.00     0.139 C 
HETATM   84  O   UNK N   1      34.562  17.924   6.956  0.00  0.00    -0.650 OA
BRANCH  83  85
HETATM   85  O   UNK N   1      35.312  19.098   8.687  0.00  0.00    -0.776 OA
HETATM   86  H   UNK N   1      36.191  19.035   9.006  0.00  0.00     0.167 HD
ENDBRANCH  83  85
ENDBRANCH  82  83
ENDBRANCH  81  82
ENDBRANCH  80  81
ENDBRANCH  79  80
ENDBRANCH  65  79
ENDBRANCH  62  65
ENDBRANCH  41  59
BRANCH  25  87
HETATM   87  C   UNK N   1      28.794   6.675  -1.140  0.00  0.00     0.180 C 
BRANCH  87  88
HETATM   88  O   UNK N   1      29.711   6.477  -0.103  0.00  0.00    -0.388 OA
HETATM   89  H   UNK N   1      30.653   6.280  -0.221  0.00  0.00     0.210 HD
ENDBRANCH  87  88
BRANCH  87  90
HETATM   90  C   UNK N   1      29.383   6.102  -2.380  0.00  0.00    -0.027 A 
HETATM   91  C   UNK N   1      29.354   6.781  -3.605  0.00  0.00     0.010 A 
HETATM   92  C   UNK N   1      29.938   6.209  -4.734  0.00  0.00     0.001 A 
HETATM   93  C   UNK N   1      30.561   4.961  -4.640  0.00  0.00     0.000 A 
HETATM   94  C   UNK N   1      30.595   4.284  -3.419  0.00  0.00     0.001 A 
HETATM   95  C   UNK N   1      30.005   4.854  -2.292  0.00  0.00     0.010 A 
ENDBRANCH  87  90
ENDBRANCH  25  87
BRANCH  54  96
HETATM   96  C   UNK N   1      25.184  19.213   5.369  0.00  0.00     0.134 C 
BRANCH  96  97
HETATM   97  C   UNK N   1      25.946  20.182   4.530  0.00  0.00     0.219 C 
HETATM   98  O   UNK N   1      25.647  20.313   3.355  0.00  0.00    -0.274 OA
HETATM   99  N   UNK N   1      26.941  20.938   5.055  0.00  0.00    -0.365 N 
HETATM  100  C   UNK N   1      27.343  20.840   6.438  0.00  0.00     0.149 C 
HETATM  101  H   UNK N   1      27.408  21.579   4.471  0.00  0.00     0.161 HD
ENDBRANCH  96  97
ENDBRANCH  54  96
BRANCH  11 102
HETATM  102  C   UNK N   1      20.072  12.602   1.701  0.00  0.00     0.007 C 
HETATM  103  C   UNK N   1      18.771  13.020   1.029  0.00  0.00     0.012 C 
HETATM  104  C   UNK N   1      19.876  12.790   3.192  0.00  0.00     0.012 C 
ENDBRANCH  11 102
BRANCH  14 105
HETATM  105  C   UNK N   1      25.997  10.892   0.989  0.00  0.00     0.215 C 
BRANCH 105 106
HETATM  106  O   UNK N   1      26.600  11.730   1.933  0.00  0.00    -0.391 OA
HETATM  107  C   UNK N   1      26.908  10.895   3.009  0.00  0.00     0.201 C 
ENDBRANCH 105 106
ENDBRANCH  14 105
TORSDOF 20
ENDMDL
MODEL 2
REMARK VINA RESULT:      -8.8      1.523      2.380
REMARK  20 active torsions:
REMARK  status: ('A' for Active; 'I' for Inactive)
REMARK    1  A    between atoms: C_11  and  C_97 
REMARK    2  A    between atoms: C_14  and  C_94 
REMARK    3  A    between atoms: C_25  and  C_86 
REMARK    4  A    between atoms: C_41  and  C_60 
REMARK    5  A    between atoms: C_54  and  C_55 
REMARK    6  A    between atoms: C_55  and  C_56 
REMARK       I    between atoms: C_56  and  N_58 
REMARK    7  A    between atoms: C_63  and  N_66 
REMARK       I    between atoms: N_66  and  C_67 
REMARK    8  A    between atoms: N_66  and  C_79 
REMARK    9  A    between atoms: C_67  and  O_69 
REMARK   10  A    between atoms: C_70  and  O_69 
REMARK   11  A    between atoms: C_73  and  C_76 
REMARK   12  A    between atoms: C_76  and  O_78 
REMARK   13  A    between atoms: C_79  and  C_80 
REMARK   14  A    between atoms: C_80  and  C_81 
REMARK   15  A    between atoms: C_81  and  C_82 
REMARK   16  A    between atoms: C_82  and  C_83 
REMARK   17  A    between atoms: C_83  and  O_85 
REMARK   18  A    between atoms: C_86  and  O_87 
REMARK   19  A    between atoms: C_86  and  C_88 
REMARK   20  A    between atoms: C_94  and  O_95 
ROOT
HETATM    1  C   UNK N   1      19.939  18.021   2.454  0.00  0.00     0.059 C 
HETATM    2  C   UNK N   1      21.254  17.575   2.982  0.00  0.00     0.013 A 
HETATM    3  S   UNK N   1      22.222  18.472   3.945  0.00  0.00    -0.077 SA
HETATM    4  C   UNK N   1      23.474  17.402   4.075  0.00  0.00     0.075 A 
HETATM    5  N   UNK N   1      23.177  16.273   3.360  0.00  0.00    -0.347 N 
ATOM      6  HN  UNK N   1      23.794  15.464   3.285  1.00  0.00     0.166 HD
HETATM    7  C   UNK N   1      21.930  16.363   2.747  0.00  0.00     0.114 A 
HETATM    8  C   UNK N   1      21.385  15.311   1.853  0.00  0.00     0.269 C 
HETATM    9  O   UNK N   1      20.412  15.550   1.153  0.00  0.00    -0.266 OA
HETATM   10  N   UNK N   1      21.997  14.110   1.770  0.00  0.00    -0.345 N 
HETATM   11  C   UNK N   1      21.646  13.079   0.806  0.00  0.00     0.145 C 
HETATM   12  C   UNK N   1      22.867  12.225   0.634  0.00  0.00     0.075 A 
HETATM   13  S   UNK N   1      24.293  12.434   1.430  0.00  0.00    -0.074 SA
HETATM   14  C   UNK N   1      25.088  11.136   0.819  0.00  0.00     0.040 A 
HETATM   15  C   UNK N   1      24.169  10.486  -0.053  0.00  0.00     0.116 A 
HETATM   16  N   UNK N   1      22.952  11.129  -0.160  0.00  0.00    -0.347 N 
ATOM     17  HN  UNK N   1      22.197  10.814  -0.770  1.00  0.00     0.166 HD
HETATM   18  C   UNK N   1      24.384   9.231  -0.827  0.00  0.00     0.269 C 
HETATM   19  O   UNK N   1      23.745   9.080  -1.856  0.00  0.00    -0.266 OA
HETATM   20  N   UNK N   1      25.159   8.200  -0.401  0.00  0.00    -0.347 N 
HETATM   21  C   UNK N   1      25.799   8.108   0.890  0.00  0.00     0.225 C 
HETATM   22  C   UNK N   1      27.279   7.983   0.718  0.00  0.00     0.236 C 
HETATM   23  O   UNK N   1      27.957   7.521   1.622  0.00  0.00    -0.272 OA
HETATM   24  N   UNK N   1      27.843   8.378  -0.452  0.00  0.00    -0.346 N 
HETATM   25  C   UNK N   1      29.243   8.255  -0.803  0.00  0.00     0.175 C 
HETATM   26  C   UNK N   1      30.133   9.140  -0.009  0.00  0.00     0.077 A 
HETATM   27  S   UNK N   1      31.718   9.372  -0.380  0.00  0.00    -0.084 SA
HETATM   28  C   UNK N   1      32.145  10.202   0.945  0.00  0.00     0.084 A 
HETATM   29  C   UNK N   1      30.978  10.301   1.708  0.00  0.00     0.073 A 
HETATM   30  N   UNK N   1      29.843   9.745   1.168  0.00  0.00    -0.349 N 
ATOM     31  HN  UNK N   1      28.916   9.783   1.592  1.00  0.00     0.166 HD
HETATM   32  C   UNK N   1      31.002  11.177   2.833  0.00  0.00     0.102 A 
HETATM   33  S   UNK N   1      32.283  11.139   3.870  0.00  0.00    -0.080 SA
HETATM   34  C   UNK N   1      32.433  12.745   4.119  0.00  0.00     0.079 A 
HETATM   35  C   UNK N   1      31.451  13.342   3.310  0.00  0.00     0.040 A 
HETATM   36  N   UNK N   1      30.656  12.465   2.619  0.00  0.00    -0.350 N 
ATOM     37  HN  UNK N   1      29.889  12.753   2.011  1.00  0.00     0.166 HD
HETATM   38  C   UNK N   1      31.198  14.802   3.298  0.00  0.00     0.142 C 
HETATM   39  N   UNK N   1      32.208  15.465   3.911  0.00  0.00    -0.380 N 
ATOM     40  HN  UNK N   1      32.968  15.857   3.354  1.00  0.00     0.160 HD
HETATM   41  C   UNK N   1      32.217  15.615   5.264  0.00  0.00     0.038 C 
HETATM   42  C   UNK N   1      31.125  15.126   5.990  0.00  0.00     0.024 C 
HETATM   43  C   UNK N   1      29.948  14.883   5.284  0.00  0.00    -0.015 C 
HETATM   44  C   UNK N   1      29.950  14.951   3.861  0.00  0.00     0.070 C 
HETATM   45  C   UNK N   1      29.100  16.054   3.453  0.00  0.00     0.158 A 
HETATM   46  S   UNK N   1      29.676  17.579   3.802  0.00  0.00    -0.113 SA
HETATM   47  C   UNK N   1      28.469  18.060   4.819  0.00  0.00     0.082 A 
HETATM   48  C   UNK N   1      27.533  17.010   4.772  0.00  0.00     0.103 A 
HETATM   49  N   UNK N   1      27.881  15.954   3.996  0.00  0.00    -0.371 N 
ATOM     50  HN  UNK N   1      27.269  15.154   3.838  1.00  0.00     0.161 HD
HETATM   51  C   UNK N   1      26.601  16.699   5.856  0.00  0.00     0.269 C 
HETATM   52  O   UNK N   1      27.024  16.096   6.830  0.00  0.00    -0.266 OA
HETATM   53  N   UNK N   1      25.271  16.857   5.695  0.00  0.00    -0.345 N 
HETATM   54  C   UNK N   1      24.807  17.752   4.682  0.00  0.00     0.150 C 
HETATM   55  H   UNK N   1      22.727  13.920   2.402  0.00  0.00     0.163 HD
HETATM   56  H   UNK N   1      25.295   7.452  -1.025  0.00  0.00     0.163 HD
HETATM   57  H   UNK N   1      27.247   8.783  -1.123  0.00  0.00     0.163 HD
HETATM   58  H   UNK N   1      24.634  16.366   6.264  0.00  0.00     0.163 HD
ENDROOT
BRANCH  41  59
HETATM   59  C   UNK N   1      33.522  15.549   5.840  0.00  0.00     0.199 A 
HETATM   60  S   UNK N   1      34.838  14.907   5.070  0.00  0.00    -0.106 SA
HETATM   61  C   UNK N   1      35.492  14.074   6.353  0.00  0.00     0.096 A 
HETATM   62  C   UNK N   1      34.575  14.288   7.401  0.00  0.00     0.115 A 
HETATM   63  N   UNK N   1      33.515  15.073   7.091  0.00  0.00    -0.357 N 
ATOM     64  HN  UNK N   1      32.772  15.284   7.758  1.00  0.00     0.162 HD
BRANCH  62  65
HETATM   65  N   UNK N   1      34.474  13.408   8.497  0.00  0.00    -0.279 N 
HETATM   66  C   UNK N   1      33.589  12.391   8.504  0.00  0.00     0.368 C 
HETATM   67  O   UNK N   1      32.925  12.151   7.505  0.00  0.00    -0.238 OA
BRANCH  66  68
HETATM   68  O   UNK N   1      33.422  11.640   9.617  0.00  0.00    -0.298 OA
BRANCH  68  69
HETATM   69  C   UNK N   1      33.623  10.258   9.636  0.00  0.00     0.133 C 
HETATM   70  C   UNK N   1      33.093   9.684  10.932  0.00  0.00     0.033 C 
HETATM   71  C   UNK N   1      33.823  10.346  12.096  0.00  0.00     0.018 C 
HETATM   72  C   UNK N   1      35.359  10.232  12.015  0.00  0.00     0.084 C 
HETATM   73  C   UNK N   1      35.986  10.316  10.610  0.00  0.00     0.018 C 
HETATM   74  C   UNK N   1      35.086   9.794   9.485  0.00  0.00     0.033 C 
BRANCH  72  75
HETATM   75  C   UNK N   1      35.945   9.122  12.814  0.00  0.00     0.143 C 
HETATM   76  O   UNK N   1      37.003   8.625  12.464  0.00  0.00    -0.650 OA
BRANCH  75  77
HETATM   77  O   UNK N   1      35.345   8.695  13.940  0.00  0.00    -0.776 OA
HETATM   78  H   UNK N   1      35.074   7.802  14.017  0.00  0.00     0.167 HD
ENDBRANCH  75  77
ENDBRANCH  72  75
ENDBRANCH  68  69
ENDBRANCH  66  68
BRANCH  65  79
HETATM   79  C   UNK N   1      35.439  13.550   9.572  0.00  0.00     0.136 C 
BRANCH  79  80
HETATM   80  C   UNK N   1      35.070  14.608  10.603  0.00  0.00     0.021 C 
BRANCH  80  81
HETATM   81  C   UNK N   1      34.934  13.954  11.973  0.00  0.00     0.012 C 
BRANCH  81  82
HETATM   82  C   UNK N   1      36.273  13.921  12.688  0.00  0.00     0.110 C 
BRANCH  82  83
HETATM   83  C   UNK N   1      36.110  13.728  14.161  0.00  0.00     0.139 C 
HETATM   84  O   UNK N   1      35.019  13.437  14.626  0.00  0.00    -0.650 OA
BRANCH  83  85
HETATM   85  O   UNK N   1      37.179  13.828  14.972  0.00  0.00    -0.776 OA
HETATM   86  H   UNK N   1      37.591  14.606  15.291  0.00  0.00     0.167 HD
ENDBRANCH  83  85
ENDBRANCH  82  83
ENDBRANCH  81  82
ENDBRANCH  80  81
ENDBRANCH  79  80
ENDBRANCH  65  79
ENDBRANCH  62  65
ENDBRANCH  41  59
BRANCH  25  87
HETATM   87  C   UNK N   1      29.750   6.806  -0.665  0.00  0.00     0.180 C 
BRANCH  87  88
HETATM   88  O   UNK N   1      30.478   6.638   0.517  0.00  0.00    -0.388 OA
HETATM   89  H   UNK N   1      31.017   5.863   0.736  0.00  0.00     0.210 HD
ENDBRANCH  87  88
BRANCH  87  90
HETATM   90  C   UNK N   1      30.590   6.305  -1.787  0.00  0.00    -0.027 A 
HETATM   91  C   UNK N   1      31.749   5.546  -1.573  0.00  0.00     0.010 A 
HETATM   92  C   UNK N   1      32.490   5.084  -2.659  0.00  0.00     0.001 A 
HETATM   93  C   UNK N   1      32.070   5.369  -3.962  0.00  0.00     0.000 A 
HETATM   94  C   UNK N   1      30.913   6.120  -4.177  0.00  0.00     0.001 A 
HETATM   95  C   UNK N   1      30.176   6.588  -3.091  0.00  0.00     0.010 A 
ENDBRANCH  87  90
ENDBRANCH  25  87
BRANCH  54  96
HETATM   96  C   UNK N   1      24.781  19.120   5.355  0.00  0.00     0.134 C 
BRANCH  96  97
HETATM   97  C   UNK N   1      25.573  20.128   4.592  0.00  0.00     0.219 C 
HETATM   98  O   UNK N   1      25.406  20.225   3.388  0.00  0.00    -0.274 OA
HETATM   99  N   UNK N   1      26.447  20.956   5.215  0.00  0.00    -0.365 N 
HETATM  100  C   UNK N   1      26.688  20.901   6.637  0.00  0.00     0.149 C 
HETATM  101  H   UNK N   1      26.936  21.620   4.677  0.00  0.00     0.161 HD
ENDBRANCH  96  97
ENDBRANCH  54  96
BRANCH  11 102
HETATM  102  C   UNK N   1      20.455  12.204   1.263  0.00  0.00     0.007 C 
HETATM  103  C   UNK N   1      19.208  12.529   0.451  0.00  0.00     0.012 C 
HETATM  104  C   UNK N   1      20.092  12.398   2.721  0.00  0.00     0.012 C 
ENDBRANCH  11 102
BRANCH  14 105
HETATM  105  C   UNK N   1      26.513  10.852   1.146  0.00  0.00     0.215 C 
BRANCH 105 106
HETATM  106  O   UNK N   1      26.936  11.647   2.215  0.00  0.00    -0.391 OA
HETATM  107  C   UNK N   1      27.115  10.757   3.276  0.00  0.00     0.201 C 
ENDBRANCH 105 106
ENDBRANCH  14 105
TORSDOF 20
ENDMDL
MODEL 3
REMARK VINA RESULT:      -8.7      1.502      2.365
REMARK  20 active torsions:
REMARK  status: ('A' for Active; 'I' for Inactive)
REMARK    1  A    between atoms: C_11  and  C_97 
REMARK    2  A    between atoms: C_14  and  C_94 
REMARK    3  A    between atoms: C_25  and  C_86 
REMARK    4  A    between atoms: C_41  and  C_60 
REMARK    5  A    between atoms: C_54  and  C_55 
REMARK    6  A    between atoms: C_55  and  C_56 
REMARK       I    between atoms: C_56  and  N_58 
REMARK    7  A    between atoms: C_63  and  N_66 
REMARK       I    between atoms: N_66  and  C_67 
REMARK    8  A    between atoms: N_66  and  C_79 
REMARK    9  A    between atoms: C_67  and  O_69 
REMARK   10  A    between atoms: C_70  and  O_69 
REMARK   11  A    between atoms: C_73  and  C_76 
REMARK   12  A    between atoms: C_76  and  O_78 
REMARK   13  A    between atoms: C_79  and  C_80 
REMARK   14  A    between atoms: C_80  and  C_81 
REMARK   15  A    between atoms: C_81  and  C_82 
REMARK   16  A    between atoms: C_82  and  C_83 
REMARK   17  A    between atoms: C_83  and  O_85 
REMARK   18  A    between atoms: C_86  and  O_87 
REMARK   19  A    between atoms: C_86  and  C_88 
REMARK   20  A    between atoms: C_94  and  O_95 
ROOT
HETATM    1  C   UNK N   1      19.937  18.041   2.361  0.00  0.00     0.059 C 
HETATM    2  C   UNK N   1      21.244  17.590   2.908  0.00  0.00     0.013 A 
HETATM    3  S   UNK N   1      22.205  18.488   3.877  0.00  0.00    -0.077 SA
HETATM    4  C   UNK N   1      23.450  17.412   4.027  0.00  0.00     0.075 A 
HETATM    5  N   UNK N   1      23.155  16.281   3.314  0.00  0.00    -0.347 N 
ATOM      6  HN  UNK N   1      23.769  15.469   3.251  1.00  0.00     0.166 HD
HETATM    7  C   UNK N   1      21.916  16.374   2.686  0.00  0.00     0.114 A 
HETATM    8  C   UNK N   1      21.376  15.320   1.791  0.00  0.00     0.269 C 
HETATM    9  O   UNK N   1      20.413  15.561   1.079  0.00  0.00    -0.266 OA
HETATM   10  N   UNK N   1      21.983  14.116   1.722  0.00  0.00    -0.345 N 
HETATM   11  C   UNK N   1      21.638  13.082   0.758  0.00  0.00     0.145 C 
HETATM   12  C   UNK N   1      22.857  12.221   0.605  0.00  0.00     0.075 A 
HETATM   13  S   UNK N   1      24.275  12.426   1.417  0.00  0.00    -0.074 SA
HETATM   14  C   UNK N   1      25.069  11.122   0.821  0.00  0.00     0.040 A 
HETATM   15  C   UNK N   1      24.158  10.471  -0.058  0.00  0.00     0.116 A 
HETATM   16  N   UNK N   1      22.945  11.120  -0.182  0.00  0.00    -0.347 N 
ATOM     17  HN  UNK N   1      22.196  10.806  -0.800  1.00  0.00     0.166 HD
HETATM   18  C   UNK N   1      24.376   9.212  -0.823  0.00  0.00     0.269 C 
HETATM   19  O   UNK N   1      23.748   9.058  -1.859  0.00  0.00    -0.266 OA
HETATM   20  N   UNK N   1      25.141   8.179  -0.382  0.00  0.00    -0.347 N 
HETATM   21  C   UNK N   1      25.765   8.091   0.917  0.00  0.00     0.225 C 
HETATM   22  C   UNK N   1      27.246   7.958   0.762  0.00  0.00     0.236 C 
HETATM   23  O   UNK N   1      27.911   7.497   1.676  0.00  0.00    -0.272 OA
HETATM   24  N   UNK N   1      27.826   8.344  -0.403  0.00  0.00    -0.346 N 
HETATM   25  C   UNK N   1      29.229   8.212  -0.737  0.00  0.00     0.175 C 
HETATM   26  C   UNK N   1      30.114   9.097   0.063  0.00  0.00     0.077 A 
HETATM   27  S   UNK N   1      31.705   9.319  -0.290  0.00  0.00    -0.084 SA
HETATM   28  C   UNK N   1      32.120  10.154   1.036  0.00  0.00     0.084 A 
HETATM   29  C   UNK N   1      30.945  10.262   1.784  0.00  0.00     0.073 A 
HETATM   30  N   UNK N   1      29.814   9.709   1.233  0.00  0.00    -0.349 N 
ATOM     31  HN  UNK N   1      28.882   9.753   1.646  1.00  0.00     0.166 HD
HETATM   32  C   UNK N   1      30.960  11.143   2.905  0.00  0.00     0.102 A 
HETATM   33  S   UNK N   1      32.228  11.104   3.957  0.00  0.00    -0.080 SA
HETATM   34  C   UNK N   1      32.384  12.711   4.200  0.00  0.00     0.079 A 
HETATM   35  C   UNK N   1      31.414  13.309   3.376  0.00  0.00     0.040 A 
HETATM   36  N   UNK N   1      30.623  12.432   2.680  0.00  0.00    -0.350 N 
ATOM     37  HN  UNK N   1      29.865  12.720   2.062  1.00  0.00     0.166 HD
HETATM   38  C   UNK N   1      31.169  14.770   3.354  0.00  0.00     0.142 C 
HETATM   39  N   UNK N   1      32.175  15.431   3.975  0.00  0.00    -0.380 N 
ATOM     40  HN  UNK N   1      32.943  15.816   3.425  1.00  0.00     0.160 HD
HETATM   41  C   UNK N   1      32.169  15.588   5.328  0.00  0.00     0.038 C 
HETATM   42  C   UNK N   1      31.066  15.108   6.043  0.00  0.00     0.024 C 
HETATM   43  C   UNK N   1      29.896  14.867   5.325  0.00  0.00    -0.015 C 
HETATM   44  C   UNK N   1      29.915  14.928   3.901  0.00  0.00     0.070 C 
HETATM   45  C   UNK N   1      29.076  16.033   3.478  0.00  0.00     0.158 A 
HETATM   46  S   UNK N   1      29.655  17.557   3.826  0.00  0.00    -0.113 SA
HETATM   47  C   UNK N   1      28.438  18.049   4.827  0.00  0.00     0.082 A 
HETATM   48  C   UNK N   1      27.498  17.004   4.773  0.00  0.00     0.103 A 
HETATM   49  N   UNK N   1      27.850  15.942   4.007  0.00  0.00    -0.371 N 
ATOM     50  HN  UNK N   1      27.235  15.144   3.846  1.00  0.00     0.161 HD
HETATM   51  C   UNK N   1      26.552  16.702   5.848  0.00  0.00     0.269 C 
HETATM   52  O   UNK N   1      26.960  16.103   6.830  0.00  0.00    -0.266 OA
HETATM   53  N   UNK N   1      25.224  16.866   5.671  0.00  0.00    -0.345 N 
HETATM   54  C   UNK N   1      24.777  17.759   4.648  0.00  0.00     0.150 C 
HETATM   55  H   UNK N   1      22.704  13.925   2.363  0.00  0.00     0.163 HD
HETATM   56  H   UNK N   1      25.280   7.427  -1.001  0.00  0.00     0.163 HD
HETATM   57  H   UNK N   1      27.240   8.748  -1.083  0.00  0.00     0.163 HD
HETATM   58  H   UNK N   1      24.579  16.382   6.234  0.00  0.00     0.163 HD
ENDROOT
BRANCH  41  59
HETATM   59  C   UNK N   1      33.466  15.518   5.919  0.00  0.00     0.199 A 
HETATM   60  S   UNK N   1      34.765  14.780   5.208  0.00  0.00    -0.106 SA
HETATM   61  C   UNK N   1      35.381  14.017   6.553  0.00  0.00     0.096 A 
HETATM   62  C   UNK N   1      34.465  14.335   7.574  0.00  0.00     0.115 A 
HETATM   63  N   UNK N   1      33.434  15.131   7.200  0.00  0.00    -0.357 N 
ATOM     64  HN  UNK N   1      32.694  15.414   7.844  1.00  0.00     0.162 HD
BRANCH  62  65
HETATM   65  N   UNK N   1      34.326  13.538   8.728  0.00  0.00    -0.279 N 
HETATM   66  C   UNK N   1      34.720  13.979   9.940  0.00  0.00     0.368 C 
HETATM   67  O   UNK N   1      35.112  15.130  10.074  0.00  0.00    -0.238 OA
BRANCH  66  68
HETATM   68  O   UNK N   1      34.695  13.150  11.009  0.00  0.00    -0.298 OA
BRANCH  68  69
HETATM   69  C   UNK N   1      35.838  12.524  11.510  0.00  0.00     0.133 C 
HETATM   70  C   UNK N   1      35.438  11.380  12.416  0.00  0.00     0.033 C 
HETATM   71  C   UNK N   1      34.587  11.932  13.555  0.00  0.00     0.018 C 
HETATM   72  C   UNK N   1      35.268  13.068  14.348  0.00  0.00     0.084 C 
HETATM   73  C   UNK N   1      36.142  14.047  13.541  0.00  0.00     0.018 C 
HETATM   74  C   UNK N   1      36.802  13.431  12.303  0.00  0.00     0.033 C 
BRANCH  72  75
HETATM   75  C   UNK N   1      35.938  12.636  15.604  0.00  0.00     0.143 C 
HETATM   76  O   UNK N   1      35.691  13.222  16.646  0.00  0.00    -0.650 OA
BRANCH  75  77
HETATM   77  O   UNK N   1      36.775  11.583  15.611  0.00  0.00    -0.776 OA
HETATM   78  H   UNK N   1      37.139  11.278  16.418  0.00  0.00     0.167 HD
ENDBRANCH  75  77
ENDBRANCH  72  75
ENDBRANCH  68  69
ENDBRANCH  66  68
BRANCH  65  79
HETATM   79  C   UNK N   1      33.629  12.271   8.598  0.00  0.00     0.136 C 
BRANCH  79  80
HETATM   80  C   UNK N   1      34.540  11.089   8.292  0.00  0.00     0.021 C 
BRANCH  80  81
HETATM   81  C   UNK N   1      34.180   9.922   9.203  0.00  0.00     0.012 C 
BRANCH  81  82
HETATM   82  C   UNK N   1      32.814  10.134   9.832  0.00  0.00     0.110 C 
BRANCH  82  83
HETATM   83  C   UNK N   1      31.849   9.066   9.431  0.00  0.00     0.139 C 
HETATM   84  O   UNK N   1      31.853   7.987  10.002  0.00  0.00    -0.650 OA
BRANCH  83  85
HETATM   85  O   UNK N   1      30.941   9.311   8.469  0.00  0.00    -0.776 OA
HETATM   86  H   UNK N   1      30.266   9.961   8.462  0.00  0.00     0.167 HD
ENDBRANCH  83  85
ENDBRANCH  82  83
ENDBRANCH  81  82
ENDBRANCH  80  81
ENDBRANCH  79  80
ENDBRANCH  65  79
ENDBRANCH  62  65
ENDBRANCH  41  59
BRANCH  25  87
HETATM   87  C   UNK N   1      29.728   6.761  -0.586  0.00  0.00     0.180 C 
BRANCH  87  88
HETATM   88  O   UNK N   1      30.484   6.608   0.580  0.00  0.00    -0.388 OA
HETATM   89  H   UNK N   1      30.889   5.780   0.878  0.00  0.00     0.210 HD
ENDBRANCH  87  88
BRANCH  87  90
HETATM   90  C   UNK N   1      30.534   6.232  -1.719  0.00  0.00    -0.027 A 
HETATM   91  C   UNK N   1      30.509   6.819  -2.992  0.00  0.00     0.010 A 
HETATM   92  C   UNK N   1      31.299   6.298  -4.016  0.00  0.00     0.001 A 
HETATM   93  C   UNK N   1      32.122   5.195  -3.768  0.00  0.00     0.000 A 
HETATM   94  C   UNK N   1      32.152   4.613  -2.500  0.00  0.00     0.001 A 
HETATM   95  C   UNK N   1      31.357   5.130  -1.479  0.00  0.00     0.010 A 
ENDBRANCH  87  90
ENDBRANCH  25  87
BRANCH  54  96
HETATM   96  C   UNK N   1      24.750  19.131   5.314  0.00  0.00     0.134 C 
BRANCH  96  97
HETATM   97  C   UNK N   1      25.564  20.128   4.561  0.00  0.00     0.219 C 
HETATM   98  O   UNK N   1      25.407  20.232   3.356  0.00  0.00    -0.274 OA
HETATM   99  N   UNK N   1      26.448  20.938   5.194  0.00  0.00    -0.365 N 
HETATM  100  C   UNK N   1      26.678  20.873   6.617  0.00  0.00     0.149 C 
HETATM  101  H   UNK N   1      26.952  21.595   4.662  0.00  0.00     0.161 HD
ENDBRANCH  96  97
ENDBRANCH  54  96
BRANCH  11 102
HETATM  102  C   UNK N   1      20.437  12.215   1.206  0.00  0.00     0.007 C 
HETATM  103  C   UNK N   1      19.180  12.602   0.437  0.00  0.00     0.012 C 
HETATM  104  C   UNK N   1      20.111  12.355   2.679  0.00  0.00     0.012 C 
ENDBRANCH  11 102
BRANCH  14 105
HETATM  105  C   UNK N   1      26.490  10.832   1.166  0.00  0.00     0.215 C 
BRANCH 105 106
HETATM  106  O   UNK N   1      26.978  11.788   2.062  0.00  0.00    -0.391 OA
HETATM  107  C   UNK N   1      27.191  11.089   3.252  0.00  0.00     0.201 C 
ENDBRANCH 105 106
ENDBRANCH  14 105
TORSDOF 20
ENDMDL
MODEL 4
REMARK VINA RESULT:      -8.7      3.744     13.200
REMARK  20 active torsions:
REMARK  status: ('A' for Active; 'I' for Inactive)
REMARK    1  A    between atoms: C_11  and  C_97 
REMARK    2  A    between atoms: C_14  and  C_94 
REMARK    3  A    between atoms: C_25  and  C_86 
REMARK    4  A    between atoms: C_41  and  C_60 
REMARK    5  A    between atoms: C_54  and  C_55 
REMARK    6  A    between atoms: C_55  and  C_56 
REMARK       I    between atoms: C_56  and  N_58 
REMARK    7  A    between atoms: C_63  and  N_66 
REMARK       I    between atoms: N_66  and  C_67 
REMARK    8  A    between atoms: N_66  and  C_79 
REMARK    9  A    between atoms: C_67  and  O_69 
REMARK   10  A    between atoms: C_70  and  O_69 
REMARK   11  A    between atoms: C_73  and  C_76 
REMARK   12  A    between atoms: C_76  and  O_78 
REMARK   13  A    between atoms: C_79  and  C_80 
REMARK   14  A    between atoms: C_80  and  C_81 
REMARK   15  A    between atoms: C_81  and  C_82 
REMARK   16  A    between atoms: C_82  and  C_83 
REMARK   17  A    between atoms: C_83  and  O_85 
REMARK   18  A    between atoms: C_86  and  O_87 
REMARK   19  A    between atoms: C_86  and  C_88 
REMARK   20  A    between atoms: C_94  and  O_95 
ROOT
HETATM    1  C   UNK N   1      32.342   7.723  -5.340  0.00  0.00     0.059 C 
HETATM    2  C   UNK N   1      31.385   7.778  -4.204  0.00  0.00     0.013 A 
HETATM    3  S   UNK N   1      29.965   6.973  -4.145  0.00  0.00    -0.077 SA
HETATM    4  C   UNK N   1      29.442   7.537  -2.683  0.00  0.00     0.075 A 
HETATM    5  N   UNK N   1      30.379   8.392  -2.169  0.00  0.00    -0.347 N 
ATOM      6  HN  UNK N   1      30.286   8.871  -1.273  1.00  0.00     0.166 HD
HETATM    7  C   UNK N   1      31.474   8.529  -3.017  0.00  0.00     0.114 A 
HETATM    8  C   UNK N   1      32.607   9.448  -2.741  0.00  0.00     0.269 C 
HETATM    9  O   UNK N   1      33.407   9.711  -3.628  0.00  0.00    -0.266 OA
HETATM   10  N   UNK N   1      32.722  10.036  -1.532  0.00  0.00    -0.345 N 
HETATM   11  C   UNK N   1      33.690  11.074  -1.217  0.00  0.00     0.145 C 
HETATM   12  C   UNK N   1      33.125  11.846  -0.062  0.00  0.00     0.075 A 
HETATM   13  S   UNK N   1      31.697  11.521   0.692  0.00  0.00    -0.074 SA
HETATM   14  C   UNK N   1      31.785  12.674   1.854  0.00  0.00     0.040 A 
HETATM   15  C   UNK N   1      33.023  13.347   1.650  0.00  0.00     0.116 A 
HETATM   16  N   UNK N   1      33.734  12.886   0.560  0.00  0.00    -0.347 N 
ATOM     17  HN  UNK N   1      34.623  13.285   0.254  1.00  0.00     0.166 HD
HETATM   18  C   UNK N   1      33.601  14.452   2.465  0.00  0.00     0.269 C 
HETATM   19  O   UNK N   1      34.368  15.226   1.914  0.00  0.00    -0.266 OA
HETATM   20  N   UNK N   1      33.417  14.584   3.804  0.00  0.00    -0.347 N 
HETATM   21  C   UNK N   1      32.736  13.637   4.656  0.00  0.00     0.225 C 
HETATM   22  C   UNK N   1      31.576  14.299   5.328  0.00  0.00     0.236 C 
HETATM   23  O   UNK N   1      31.110  13.814   6.348  0.00  0.00    -0.272 OA
HETATM   24  N   UNK N   1      31.066  15.439   4.796  0.00  0.00    -0.346 N 
HETATM   25  C   UNK N   1      29.999  16.236   5.363  0.00  0.00     0.175 C 
HETATM   26  C   UNK N   1      28.675  15.563   5.334  0.00  0.00     0.077 A 
HETATM   27  S   UNK N   1      27.272  16.344   5.685  0.00  0.00    -0.084 SA
HETATM   28  C   UNK N   1      26.290  15.054   5.706  0.00  0.00     0.084 A 
HETATM   29  C   UNK N   1      27.114  13.962   5.418  0.00  0.00     0.073 A 
HETATM   30  N   UNK N   1      28.437  14.240   5.173  0.00  0.00    -0.349 N 
ATOM     31  HN  UNK N   1      29.138  13.548   4.907  1.00  0.00     0.166 HD
HETATM   32  C   UNK N   1      26.478  12.714   5.151  0.00  0.00     0.102 A 
HETATM   33  S   UNK N   1      25.266  12.188   6.137  0.00  0.00    -0.080 SA
HETATM   34  C   UNK N   1      24.273  11.584   4.989  0.00  0.00     0.079 A 
HETATM   35  C   UNK N   1      24.913  11.850   3.766  0.00  0.00     0.040 A 
HETATM   36  N   UNK N   1      26.137  12.457   3.870  0.00  0.00    -0.350 N 
ATOM     37  HN  UNK N   1      26.724  12.690   3.069  1.00  0.00     0.166 HD
HETATM   38  C   UNK N   1      24.375  11.393   2.463  0.00  0.00     0.142 C 
HETATM   39  N   UNK N   1      23.091  10.981   2.595  0.00  0.00    -0.380 N 
ATOM     40  HN  UNK N   1      22.328  11.627   2.388  1.00  0.00     0.160 HD
HETATM   41  C   UNK N   1      22.809   9.713   3.002  0.00  0.00     0.038 C 
HETATM   42  C   UNK N   1      23.878   8.834   3.212  0.00  0.00     0.024 C 
HETATM   43  C   UNK N   1      25.100   9.166   2.629  0.00  0.00    -0.015 C 
HETATM   44  C   UNK N   1      25.269  10.444   2.022  0.00  0.00     0.070 C 
HETATM   45  C   UNK N   1      25.477  10.252   0.599  0.00  0.00     0.158 A 
HETATM   46  S   UNK N   1      24.154   9.715  -0.260  0.00  0.00    -0.113 SA
HETATM   47  C   UNK N   1      24.777   8.276  -0.778  0.00  0.00     0.082 A 
HETATM   48  C   UNK N   1      26.116   8.300  -0.344  0.00  0.00     0.103 A 
HETATM   49  N   UNK N   1      26.479   9.397   0.365  0.00  0.00    -0.371 N 
ATOM     50  HN  UNK N   1      27.432   9.556   0.692  1.00  0.00     0.161 HD
HETATM   51  C   UNK N   1      26.906   7.098  -0.071  0.00  0.00     0.269 C 
HETATM   52  O   UNK N   1      26.717   6.506   0.980  0.00  0.00    -0.266 OA
HETATM   53  N   UNK N   1      27.970   6.779  -0.836  0.00  0.00    -0.345 N 
HETATM   54  C   UNK N   1      28.047   7.316  -2.158  0.00  0.00     0.150 C 
HETATM   55  H   UNK N   1      32.112   9.743  -0.817  0.00  0.00     0.163 HD
HETATM   56  H   UNK N   1      33.779  15.393   4.230  0.00  0.00     0.163 HD
HETATM   57  H   UNK N   1      31.458  15.752   3.949  0.00  0.00     0.163 HD
HETATM   58  H   UNK N   1      28.678   6.189  -0.490  0.00  0.00     0.163 HD
ENDROOT
BRANCH  41  59
HETATM   59  C   UNK N   1      21.658   9.622   3.842  0.00  0.00     0.199 A 
HETATM   60  S   UNK N   1      20.132   9.311   3.283  0.00  0.00    -0.106 SA
HETATM   61  C   UNK N   1      19.299  10.404   4.222  0.00  0.00     0.096 A 
HETATM   62  C   UNK N   1      20.307  11.063   4.952  0.00  0.00     0.115 A 
HETATM   63  N   UNK N   1      21.570  10.633   4.714  0.00  0.00    -0.357 N 
ATOM     64  HN  UNK N   1      22.386  11.046   5.166  1.00  0.00     0.162 HD
BRANCH  62  65
HETATM   65  N   UNK N   1      20.117  12.350   5.494  0.00  0.00    -0.279 N 
HETATM   66  C   UNK N   1      20.657  12.702   6.678  0.00  0.00     0.368 C 
HETATM   67  O   UNK N   1      21.415  11.935   7.257  0.00  0.00    -0.238 OA
BRANCH  66  68
HETATM   68  O   UNK N   1      20.355  13.896   7.238  0.00  0.00    -0.298 OA
BRANCH  68  69
HETATM   69  C   UNK N   1      21.328  14.772   7.727  0.00  0.00     0.133 C 
HETATM   70  C   UNK N   1      20.693  16.104   8.061  0.00  0.00     0.033 C 
HETATM   71  C   UNK N   1      20.051  16.670   6.799  0.00  0.00     0.018 C 
HETATM   72  C   UNK N   1      21.022  16.790   5.605  0.00  0.00     0.084 C 
HETATM   73  C   UNK N   1      22.078  15.679   5.458  0.00  0.00     0.018 C 
HETATM   74  C   UNK N   1      22.516  15.045   6.783  0.00  0.00     0.033 C 
BRANCH  72  75
HETATM   75  C   UNK N   1      21.613  18.142   5.417  0.00  0.00     0.143 C 
HETATM   76  O   UNK N   1      21.237  18.836   4.486  0.00  0.00    -0.650 OA
BRANCH  75  77
HETATM   77  O   UNK N   1      22.522  18.623   6.285  0.00  0.00    -0.776 OA
HETATM   78  H   UNK N   1      22.666  18.188   7.101  0.00  0.00     0.167 HD
ENDBRANCH  75  77
ENDBRANCH  72  75
ENDBRANCH  68  69
ENDBRANCH  66  68
BRANCH  65  79
HETATM   79  C   UNK N   1      19.424  13.334   4.682  0.00  0.00     0.136 C 
BRANCH  79  80
HETATM   80  C   UNK N   1      20.164  13.719   3.407  0.00  0.00     0.021 C 
BRANCH  80  81
HETATM   81  C   UNK N   1      19.604  15.032   2.874  0.00  0.00     0.012 C 
BRANCH  81  82
HETATM   82  C   UNK N   1      20.037  15.257   1.437  0.00  0.00     0.110 C 
BRANCH  82  83
HETATM   83  C   UNK N   1      20.050  16.709   1.083  0.00  0.00     0.139 C 
HETATM   84  O   UNK N   1      20.395  17.067  -0.032  0.00  0.00    -0.650 OA
BRANCH  83  85
HETATM   85  O   UNK N   1      19.636  17.620   1.982  0.00  0.00    -0.776 OA
HETATM   86  H   UNK N   1      20.131  18.020   2.670  0.00  0.00     0.167 HD
ENDBRANCH  83  85
ENDBRANCH  82  83
ENDBRANCH  81  82
ENDBRANCH  80  81
ENDBRANCH  79  80
ENDBRANCH  65  79
ENDBRANCH  62  65
ENDBRANCH  41  59
BRANCH  25  87
HETATM   87  C   UNK N   1      30.298  16.657   6.817  0.00  0.00     0.180 C 
BRANCH  87  88
HETATM   88  O   UNK N   1      29.502  17.741   7.200  0.00  0.00    -0.388 OA
HETATM   89  H   UNK N   1      29.390  18.558   6.691  0.00  0.00     0.210 HD
ENDBRANCH  87  88
BRANCH  87  90
HETATM   90  C   UNK N   1      31.714  17.010   7.109  0.00  0.00    -0.027 A 
HETATM   91  C   UNK N   1      32.586  17.483   6.120  0.00  0.00     0.010 A 
HETATM   92  C   UNK N   1      33.898  17.819   6.450  0.00  0.00     0.001 A 
HETATM   93  C   UNK N   1      34.339  17.693   7.771  0.00  0.00     0.000 A 
HETATM   94  C   UNK N   1      33.470  17.226   8.759  0.00  0.00     0.001 A 
HETATM   95  C   UNK N   1      32.160  16.884   8.427  0.00  0.00     0.010 A 
ENDBRANCH  87  90
ENDBRANCH  25  87
BRANCH  54  96
HETATM   96  C   UNK N   1      27.266   6.333  -3.023  0.00  0.00     0.134 C 
BRANCH  96  97
HETATM   97  C   UNK N   1      26.200   7.015  -3.812  0.00  0.00     0.219 C 
HETATM   98  O   UNK N   1      26.460   8.065  -4.376  0.00  0.00    -0.274 OA
HETATM   99  N   UNK N   1      24.963   6.476  -3.940  0.00  0.00    -0.365 N 
HETATM  100  C   UNK N   1      24.589   5.234  -3.306  0.00  0.00     0.149 C 
HETATM  101  H   UNK N   1      24.293   6.950  -4.484  0.00  0.00     0.161 HD
ENDBRANCH  96  97
ENDBRANCH  54  96
BRANCH  11 102
HETATM  102  C   UNK N   1      35.081  10.511  -0.840  0.00  0.00     0.007 C 
HETATM  103  C   UNK N   1      36.074  10.731  -1.974  0.00  0.00     0.012 C 
HETATM  104  C   UNK N   1      35.068   9.023  -0.551  0.00  0.00     0.012 C 
ENDBRANCH  11 102
BRANCH  14 105
HETATM  105  C   UNK N   1      30.681  12.906   2.827  0.00  0.00     0.215 C 
BRANCH 105 106
HETATM  106  O   UNK N   1      29.915  14.010   2.441  0.00  0.00    -0.391 OA
HETATM  107  C   UNK N   1      28.839  13.471   1.732  0.00  0.00     0.201 C 
ENDBRANCH 105 106
ENDBRANCH  14 105
TORSDOF 20
ENDMDL
MODEL 5
REMARK VINA RESULT:      -8.4      4.198     10.026
REMARK  20 active torsions:
REMARK  status: ('A' for Active; 'I' for Inactive)
REMARK    1  A    between atoms: C_11  and  C_97 
REMARK    2  A    between atoms: C_14  and  C_94 
REMARK    3  A    between atoms: C_25  and  C_86 
REMARK    4  A    between atoms: C_41  and  C_60 
REMARK    5  A    between atoms: C_54  and  C_55 
REMARK    6  A    between atoms: C_55  and  C_56 
REMARK       I    between atoms: C_56  and  N_58 
REMARK    7  A    between atoms: C_63  and  N_66 
REMARK       I    between atoms: N_66  and  C_67 
REMARK    8  A    between atoms: N_66  and  C_79 
REMARK    9  A    between atoms: C_67  and  O_69 
REMARK   10  A    between atoms: C_70  and  O_69 
REMARK   11  A    between atoms: C_73  and  C_76 
REMARK   12  A    between atoms: C_76  and  O_78 
REMARK   13  A    between atoms: C_79  and  C_80 
REMARK   14  A    between atoms: C_80  and  C_81 
REMARK   15  A    between atoms: C_81  and  C_82 
REMARK   16  A    between atoms: C_82  and  C_83 
REMARK   17  A    between atoms: C_83  and  O_85 
REMARK   18  A    between atoms: C_86  and  O_87 
REMARK   19  A    between atoms: C_86  and  C_88 
REMARK   20  A    between atoms: C_94  and  O_95 
ROOT
HETATM    1  C   UNK N   1      21.708  17.534   3.620  0.00  0.00     0.059 C 
HETATM    2  C   UNK N   1      22.748  16.501   3.380  0.00  0.00     0.013 A 
HETATM    3  S   UNK N   1      22.504  15.110   2.558  0.00  0.00    -0.077 SA
HETATM    4  C   UNK N   1      24.016  14.467   2.740  0.00  0.00     0.075 A 
HETATM    5  N   UNK N   1      24.790  15.335   3.462  0.00  0.00    -0.347 N 
ATOM      6  HN  UNK N   1      25.766  15.164   3.707  1.00  0.00     0.166 HD
HETATM    7  C   UNK N   1      24.085  16.481   3.821  0.00  0.00     0.114 A 
HETATM    8  C   UNK N   1      24.658  17.558   4.666  0.00  0.00     0.269 C 
HETATM    9  O   UNK N   1      23.925  18.406   5.151  0.00  0.00    -0.266 OA
HETATM   10  N   UNK N   1      25.979  17.569   4.944  0.00  0.00    -0.345 N 
HETATM   11  C   UNK N   1      26.607  18.475   5.893  0.00  0.00     0.145 C 
HETATM   12  C   UNK N   1      27.869  17.804   6.350  0.00  0.00     0.075 A 
HETATM   13  S   UNK N   1      28.412  16.341   5.825  0.00  0.00    -0.074 SA
HETATM   14  C   UNK N   1      29.821  16.307   6.662  0.00  0.00     0.040 A 
HETATM   15  C   UNK N   1      29.880  17.530   7.387  0.00  0.00     0.116 A 
HETATM   16  N   UNK N   1      28.767  18.331   7.218  0.00  0.00    -0.347 N 
ATOM     17  HN  UNK N   1      28.634  19.224   7.696  1.00  0.00     0.166 HD
HETATM   18  C   UNK N   1      30.978  18.011   8.271  0.00  0.00     0.269 C 
HETATM   19  O   UNK N   1      30.689  18.786   9.170  0.00  0.00    -0.266 OA
HETATM   20  N   UNK N   1      32.291  17.731   8.070  0.00  0.00    -0.347 N 
HETATM   21  C   UNK N   1      32.836  17.028   6.932  0.00  0.00     0.225 C 
HETATM   22  C   UNK N   1      33.559  15.802   7.389  0.00  0.00     0.236 C 
HETATM   23  O   UNK N   1      34.393  15.285   6.662  0.00  0.00    -0.272 OA
HETATM   24  N   UNK N   1      33.280  15.289   8.615  0.00  0.00    -0.346 N 
HETATM   25  C   UNK N   1      33.942  14.157   9.230  0.00  0.00     0.175 C 
HETATM   26  C   UNK N   1      33.651  12.864   8.560  0.00  0.00     0.077 A 
HETATM   27  S   UNK N   1      34.073  11.412   9.206  0.00  0.00    -0.084 SA
HETATM   28  C   UNK N   1      33.709  10.479   7.932  0.00  0.00     0.084 A 
HETATM   29  C   UNK N   1      33.229  11.359   6.958  0.00  0.00     0.073 A 
HETATM   30  N   UNK N   1      33.158  12.685   7.311  0.00  0.00    -0.349 N 
ATOM     31  HN  UNK N   1      32.787  13.428   6.718  1.00  0.00     0.166 HD
HETATM   32  C   UNK N   1      32.622  10.789   5.800  0.00  0.00     0.102 A 
HETATM   33  S   UNK N   1      33.357   9.531   5.029  0.00  0.00    -0.080 SA
HETATM   34  C   UNK N   1      32.027   8.643   4.703  0.00  0.00     0.079 A 
HETATM   35  C   UNK N   1      30.955   9.354   5.271  0.00  0.00     0.040 A 
HETATM   36  N   UNK N   1      31.295  10.546   5.857  0.00  0.00    -0.350 N 
ATOM     37  HN  UNK N   1      30.620  11.177   6.289  1.00  0.00     0.166 HD
HETATM   38  C   UNK N   1      29.544   8.924   5.135  0.00  0.00     0.142 C 
HETATM   39  N   UNK N   1      29.476   7.649   4.679  0.00  0.00    -0.380 N 
ATOM     40  HN  UNK N   1      29.374   6.880   5.342  1.00  0.00     0.160 HD
HETATM   41  C   UNK N   1      29.542   7.386   3.345  0.00  0.00     0.038 C 
HETATM   42  C   UNK N   1      29.614   8.469   2.462  0.00  0.00     0.024 C 
HETATM   43  C   UNK N   1      29.221   9.716   2.948  0.00  0.00    -0.015 C 
HETATM   44  C   UNK N   1      28.955   9.880   4.338  0.00  0.00     0.070 C 
HETATM   45  C   UNK N   1      27.548  10.192   4.502  0.00  0.00     0.158 A 
HETATM   46  S   UNK N   1      26.487   8.951   4.165  0.00  0.00    -0.113 SA
HETATM   47  C   UNK N   1      25.686   9.659   2.908  0.00  0.00     0.082 A 
HETATM   48  C   UNK N   1      26.212  10.963   2.850  0.00  0.00     0.103 A 
HETATM   49  N   UNK N   1      27.191  11.237   3.748  0.00  0.00    -0.371 N 
ATOM     50  HN  UNK N   1      27.617  12.159   3.841  1.00  0.00     0.161 HD
HETATM   51  C   UNK N   1      26.246  11.776   1.633  0.00  0.00     0.269 C 
HETATM   52  O   UNK N   1      27.106  11.538   0.799  0.00  0.00    -0.266 OA
HETATM   53  N   UNK N   1      25.509  12.901   1.529  0.00  0.00    -0.345 N 
HETATM   54  C   UNK N   1      24.365  13.049   2.372  0.00  0.00     0.150 C 
HETATM   55  H   UNK N   1      26.554  16.922   4.475  0.00  0.00     0.163 HD
HETATM   56  H   UNK N   1      32.926  18.034   8.758  0.00  0.00     0.163 HD
HETATM   57  H   UNK N   1      32.566  15.726   9.132  0.00  0.00     0.163 HD
HETATM   58  H   UNK N   1      25.755  13.605   0.885  0.00  0.00     0.163 HD
ENDROOT
BRANCH  41  59
HETATM   59  C   UNK N   1      30.246   6.185   3.032  0.00  0.00     0.199 A 
HETATM   60  S   UNK N   1      29.531   4.696   2.933  0.00  0.00    -0.106 SA
HETATM   61  C   UNK N   1      30.702   3.807   3.714  0.00  0.00     0.096 A 
HETATM   62  C   UNK N   1      31.654   4.769   4.103  0.00  0.00     0.115 A 
HETATM   63  N   UNK N   1      31.374   6.043   3.738  0.00  0.00    -0.357 N 
ATOM     64  HN  UNK N   1      31.976   6.831   3.980  1.00  0.00     0.162 HD
BRANCH  62  65
HETATM   65  N   UNK N   1      32.544   4.547   5.174  0.00  0.00    -0.279 N 
HETATM   66  C   UNK N   1      33.881   4.591   4.998  0.00  0.00     0.368 C 
HETATM   67  O   UNK N   1      34.345   4.931   3.918  0.00  0.00    -0.238 OA
BRANCH  66  68
HETATM   68  O   UNK N   1      34.713   4.250   6.009  0.00  0.00    -0.298 OA
BRANCH  68  69
HETATM   69  C   UNK N   1      35.860   4.981   6.326  0.00  0.00     0.133 C 
HETATM   70  C   UNK N   1      36.460   4.455   7.612  0.00  0.00     0.033 C 
HETATM   71  C   UNK N   1      35.423   4.579   8.723  0.00  0.00     0.018 C 
HETATM   72  C   UNK N   1      34.868   6.008   8.902  0.00  0.00     0.084 C 
HETATM   73  C   UNK N   1      34.676   6.841   7.620  0.00  0.00     0.018 C 
HETATM   74  C   UNK N   1      35.658   6.501   6.494  0.00  0.00     0.033 C 
BRANCH  72  75
HETATM   75  C   UNK N   1      35.518   6.798   9.982  0.00  0.00     0.143 C 
HETATM   76  O   UNK N   1      36.513   6.355  10.531  0.00  0.00    -0.650 OA
BRANCH  75  77
HETATM   77  O   UNK N   1      35.048   8.011  10.325  0.00  0.00    -0.776 OA
HETATM   78  H   UNK N   1      34.513   8.493   9.727  0.00  0.00     0.167 HD
ENDBRANCH  75  77
ENDBRANCH  72  75
ENDBRANCH  68  69
ENDBRANCH  66  68
BRANCH  65  79
HETATM   79  C   UNK N   1      31.983   4.393   6.503  0.00  0.00     0.136 C 
BRANCH  79  80
HETATM   80  C   UNK N   1      31.473   5.690   7.117  0.00  0.00     0.021 C 
BRANCH  80  81
HETATM   81  C   UNK N   1      31.271   5.497   8.615  0.00  0.00     0.012 C 
BRANCH  81  82
HETATM   82  C   UNK N   1      30.384   6.590   9.183  0.00  0.00     0.110 C 
BRANCH  82  83
HETATM   83  C   UNK N   1      31.104   7.897   9.271  0.00  0.00     0.139 C 
HETATM   84  O   UNK N   1      32.106   8.002   9.960  0.00  0.00    -0.650 OA
BRANCH  83  85
HETATM   85  O   UNK N   1      30.672   8.948   8.551  0.00  0.00    -0.776 OA
HETATM   86  H   UNK N   1      29.801   9.288   8.489  0.00  0.00     0.167 HD
ENDBRANCH  83  85
ENDBRANCH  82  83
ENDBRANCH  81  82
ENDBRANCH  80  81
ENDBRANCH  79  80
ENDBRANCH  65  79
ENDBRANCH  62  65
ENDBRANCH  41  59
BRANCH  25  87
HETATM   87  C   UNK N   1      35.471  14.341   9.290  0.00  0.00     0.180 C 
BRANCH  87  88
HETATM   88  O   UNK N   1      36.090  13.770   8.173  0.00  0.00    -0.388 OA
HETATM   89  H   UNK N   1      37.001  13.941   7.891  0.00  0.00     0.210 HD
ENDBRANCH  87  88
BRANCH  87  90
HETATM   90  C   UNK N   1      36.141  13.799  10.503  0.00  0.00    -0.027 A 
HETATM   91  C   UNK N   1      35.658  14.043  11.796  0.00  0.00     0.010 A 
HETATM   92  C   UNK N   1      36.311  13.495  12.899  0.00  0.00     0.001 A 
HETATM   93  C   UNK N   1      37.443  12.695  12.713  0.00  0.00     0.000 A 
HETATM   94  C   UNK N   1      37.923  12.448  11.426  0.00  0.00     0.001 A 
HETATM   95  C   UNK N   1      37.273  13.000  10.324  0.00  0.00     0.010 A 
ENDBRANCH  87  90
ENDBRANCH  25  87
BRANCH  54  96
HETATM   96  C   UNK N   1      23.232  12.365   1.615  0.00  0.00     0.134 C 
BRANCH  96  97
HETATM   97  C   UNK N   1      23.434  12.429   0.139  0.00  0.00     0.219 C 
HETATM   98  O   UNK N   1      23.555  13.519  -0.395  0.00  0.00    -0.274 OA
HETATM   99  N   UNK N   1      23.515  11.303  -0.611  0.00  0.00    -0.365 N 
HETATM  100  C   UNK N   1      23.387   9.982  -0.043  0.00  0.00     0.149 C 
HETATM  101  H   UNK N   1      23.666  11.390  -1.580  0.00  0.00     0.161 HD
ENDBRANCH  96  97
ENDBRANCH  54  96
BRANCH  11 102
HETATM  102  C   UNK N   1      26.940  19.856   5.281  0.00  0.00     0.007 C 
HETATM  103  C   UNK N   1      28.199  19.774   4.427  0.00  0.00     0.012 C 
HETATM  104  C   UNK N   1      27.184  20.931   6.320  0.00  0.00     0.012 C 
ENDBRANCH  11 102
BRANCH  14 105
HETATM  105  C   UNK N   1      30.736  15.131   6.630  0.00  0.00     0.215 C 
BRANCH 105 106
HETATM  106  O   UNK N   1      30.328  14.224   5.646  0.00  0.00    -0.391 OA
HETATM  107  C   UNK N   1      31.345  14.252   4.689  0.00  0.00     0.201 C 
ENDBRANCH 105 106
ENDBRANCH  14 105
TORSDOF 20
ENDMDL
MODEL 6
REMARK VINA RESULT:      -8.4      8.792     16.689
REMARK  20 active torsions:
REMARK  status: ('A' for Active; 'I' for Inactive)
REMARK    1  A    between atoms: C_11  and  C_97 
REMARK    2  A    between atoms: C_14  and  C_94 
REMARK    3  A    between atoms: C_25  and  C_86 
REMARK    4  A    between atoms: C_41  and  C_60 
REMARK    5  A    between atoms: C_54  and  C_55 
REMARK    6  A    between atoms: C_55  and  C_56 
REMARK       I    between atoms: C_56  and  N_58 
REMARK    7  A    between atoms: C_63  and  N_66 
REMARK       I    between atoms: N_66  and  C_67 
REMARK    8  A    between atoms: N_66  and  C_79 
REMARK    9  A    between atoms: C_67  and  O_69 
REMARK   10  A    between atoms: C_70  and  O_69 
REMARK   11  A    between atoms: C_73  and  C_76 
REMARK   12  A    between atoms: C_76  and  O_78 
REMARK   13  A    between atoms: C_79  and  C_80 
REMARK   14  A    between atoms: C_80  and  C_81 
REMARK   15  A    between atoms: C_81  and  C_82 
REMARK   16  A    between atoms: C_82  and  C_83 
REMARK   17  A    between atoms: C_83  and  O_85 
REMARK   18  A    between atoms: C_86  and  O_87 
REMARK   19  A    between atoms: C_86  and  C_88 
REMARK   20  A    between atoms: C_94  and  O_95 
ROOT
HETATM    1  C   UNK N   1      42.716   5.525  15.918  0.00  0.00     0.059 C 
HETATM    2  C   UNK N   1      42.613   6.052  14.533  0.00  0.00     0.013 A 
HETATM    3  S   UNK N   1      43.860   6.150  13.481  0.00  0.00    -0.077 SA
HETATM    4  C   UNK N   1      43.047   6.855  12.226  0.00  0.00     0.075 A 
HETATM    5  N   UNK N   1      41.739   7.041  12.585  0.00  0.00    -0.347 N 
ATOM      6  HN  UNK N   1      41.034   7.460  11.979  1.00  0.00     0.166 HD
HETATM    7  C   UNK N   1      41.489   6.588  13.878  0.00  0.00     0.114 A 
HETATM    8  C   UNK N   1      40.172   6.730  14.548  0.00  0.00     0.269 C 
HETATM    9  O   UNK N   1      40.080   6.546  15.753  0.00  0.00    -0.266 OA
HETATM   10  N   UNK N   1      39.090   7.115  13.840  0.00  0.00    -0.345 N 
HETATM   11  C   UNK N   1      37.802   7.445  14.430  0.00  0.00     0.145 C 
HETATM   12  C   UNK N   1      37.112   8.358  13.459  0.00  0.00     0.075 A 
HETATM   13  S   UNK N   1      37.721   8.837  12.006  0.00  0.00    -0.074 SA
HETATM   14  C   UNK N   1      36.431   9.712  11.496  0.00  0.00     0.040 A 
HETATM   15  C   UNK N   1      35.452   9.608  12.523  0.00  0.00     0.116 A 
HETATM   16  N   UNK N   1      35.867   8.874  13.617  0.00  0.00    -0.347 N 
ATOM     17  HN  UNK N   1      35.300   8.734  14.453  1.00  0.00     0.166 HD
HETATM   18  C   UNK N   1      34.080  10.188  12.533  0.00  0.00     0.269 C 
HETATM   19  O   UNK N   1      33.574  10.438  13.616  0.00  0.00    -0.266 OA
HETATM   20  N   UNK N   1      33.317  10.350  11.420  0.00  0.00    -0.347 N 
HETATM   21  C   UNK N   1      33.660   9.898  10.093  0.00  0.00     0.225 C 
HETATM   22  C   UNK N   1      33.702  11.060   9.153  0.00  0.00     0.236 C 
HETATM   23  O   UNK N   1      33.595  10.871   7.952  0.00  0.00    -0.272 OA
HETATM   24  N   UNK N   1      33.848  12.312   9.657  0.00  0.00    -0.346 N 
HETATM   25  C   UNK N   1      33.833  13.541   8.892  0.00  0.00     0.175 C 
HETATM   26  C   UNK N   1      35.012  13.701   8.003  0.00  0.00     0.077 A 
HETATM   27  S   UNK N   1      35.356  15.107   7.224  0.00  0.00    -0.084 SA
HETATM   28  C   UNK N   1      36.559  14.562   6.284  0.00  0.00     0.084 A 
HETATM   29  C   UNK N   1      36.692  13.209   6.608  0.00  0.00     0.073 A 
HETATM   30  N   UNK N   1      35.860  12.729   7.591  0.00  0.00    -0.349 N 
ATOM     31  HN  UNK N   1      35.879  11.777   7.957  1.00  0.00     0.166 HD
HETATM   32  C   UNK N   1      37.829  12.520   6.092  0.00  0.00     0.102 A 
HETATM   33  S   UNK N   1      38.246  12.705   4.508  0.00  0.00    -0.080 SA
HETATM   34  C   UNK N   1      39.866  12.782   4.697  0.00  0.00     0.079 A 
HETATM   35  C   UNK N   1      40.084  12.700   6.084  0.00  0.00     0.040 A 
HETATM   36  N   UNK N   1      38.952  12.538   6.841  0.00  0.00    -0.350 N 
ATOM     37  HN  UNK N   1      38.959  12.442   7.856  1.00  0.00     0.166 HD
HETATM   38  C   UNK N   1      41.438  12.659   6.682  0.00  0.00     0.142 C 
HETATM   39  N   UNK N   1      42.375  13.010   5.768  0.00  0.00    -0.380 N 
ATOM     40  HN  UNK N   1      42.706  13.974   5.727  1.00  0.00     0.160 HD
HETATM   41  C   UNK N   1      42.877  12.087   4.902  0.00  0.00     0.038 C 
HETATM   42  C   UNK N   1      42.450  10.760   5.031  0.00  0.00     0.024 C 
HETATM   43  C   UNK N   1      41.867  10.393   6.243  0.00  0.00    -0.015 C 
HETATM   44  C   UNK N   1      41.556  11.392   7.209  0.00  0.00     0.070 C 
HETATM   45  C   UNK N   1      42.381  11.170   8.381  0.00  0.00     0.158 A 
HETATM   46  S   UNK N   1      44.009  11.474   8.188  0.00  0.00    -0.113 SA
HETATM   47  C   UNK N   1      44.569   9.948   8.479  0.00  0.00     0.082 A 
HETATM   48  C   UNK N   1      43.424   9.222   8.855  0.00  0.00     0.103 A 
HETATM   49  N   UNK N   1      42.260   9.916   8.831  0.00  0.00    -0.371 N 
ATOM     50  HN  UNK N   1      41.369   9.518   9.129  1.00  0.00     0.161 HD
HETATM   51  C   UNK N   1      43.284   7.775   8.685  0.00  0.00     0.269 C 
HETATM   52  O   UNK N   1      43.026   7.343   7.572  0.00  0.00    -0.266 OA
HETATM   53  N   UNK N   1      43.206   6.955   9.754  0.00  0.00    -0.345 N 
HETATM   54  C   UNK N   1      43.728   7.411  11.004  0.00  0.00     0.150 C 
HETATM   55  H   UNK N   1      39.178   7.177  12.861  0.00  0.00     0.163 HD
HETATM   56  H   UNK N   1      32.457  10.815  11.529  0.00  0.00     0.163 HD
HETATM   57  H   UNK N   1      33.973  12.392  10.631  0.00  0.00     0.163 HD
HETATM   58  H   UNK N   1      42.800   6.062   9.673  0.00  0.00     0.163 HD
ENDROOT
BRANCH  41  59
HETATM   59  C   UNK N   1      43.148  12.608   3.601  0.00  0.00     0.199 A 
HETATM   60  S   UNK N   1      44.377  12.072   2.631  0.00  0.00    -0.106 SA
HETATM   61  C   UNK N   1      44.904  13.546   2.065  0.00  0.00     0.096 A 
HETATM   62  C   UNK N   1      44.090  14.479   2.737  0.00  0.00     0.115 A 
HETATM   63  N   UNK N   1      43.164  13.946   3.570  0.00  0.00    -0.357 N 
ATOM     64  HN  UNK N   1      42.530  14.519   4.128  1.00  0.00     0.162 HD
BRANCH  62  65
HETATM   65  N   UNK N   1      44.488  15.817   2.927  0.00  0.00    -0.279 N 
HETATM   66  C   UNK N   1      43.585  16.815   3.017  0.00  0.00     0.368 C 
HETATM   67  O   UNK N   1      42.389  16.557   3.038  0.00  0.00    -0.238 OA
BRANCH  66  68
HETATM   68  O   UNK N   1      43.995  18.103   3.071  0.00  0.00    -0.298 OA
BRANCH  68  69
HETATM   69  C   UNK N   1      43.774  19.013   2.035  0.00  0.00     0.133 C 
HETATM   70  C   UNK N   1      44.934  19.981   1.951  0.00  0.00     0.033 C 
HETATM   71  C   UNK N   1      45.062  20.710   3.285  0.00  0.00     0.018 C 
HETATM   72  C   UNK N   1      43.767  21.418   3.735  0.00  0.00     0.084 C 
HETATM   73  C   UNK N   1      42.440  20.707   3.409  0.00  0.00     0.018 C 
HETATM   74  C   UNK N   1      42.480  19.846   2.142  0.00  0.00     0.033 C 
BRANCH  72  75
HETATM   75  C   UNK N   1      43.708  22.870   3.414  0.00  0.00     0.143 C 
HETATM   76  O   UNK N   1      44.735  23.530   3.436  0.00  0.00    -0.650 OA
BRANCH  75  77
HETATM   77  O   UNK N   1      42.547  23.450   3.058  0.00  0.00    -0.776 OA
HETATM   78  H   UNK N   1      41.742  22.981   3.149  0.00  0.00     0.167 HD
ENDBRANCH  75  77
ENDBRANCH  72  75
ENDBRANCH  68  69
ENDBRANCH  66  68
BRANCH  65  79
HETATM   79  C   UNK N   1      45.898  16.081   3.151  0.00  0.00     0.136 C 
BRANCH  79  80
HETATM   80  C   UNK N   1      46.327  15.968   4.608  0.00  0.00     0.021 C 
BRANCH  80  81
HETATM   81  C   UNK N   1      47.301  17.094   4.937  0.00  0.00     0.012 C 
BRANCH  81  82
HETATM   82  C   UNK N   1      47.564  17.951   3.713  0.00  0.00     0.110 C 
BRANCH  82  83
HETATM   83  C   UNK N   1      49.001  18.348   3.613  0.00  0.00     0.139 C 
HETATM   84  O   UNK N   1      49.381  19.061   2.698  0.00  0.00    -0.650 OA
BRANCH  83  85
HETATM   85  O   UNK N   1      49.871  17.957   4.563  0.00  0.00    -0.776 OA
HETATM   86  H   UNK N   1      50.791  18.130   4.611  0.00  0.00     0.167 HD
ENDBRANCH  83  85
ENDBRANCH  82  83
ENDBRANCH  81  82
ENDBRANCH  80  81
ENDBRANCH  79  80
ENDBRANCH  65  79
ENDBRANCH  62  65
ENDBRANCH  41  59
BRANCH  25  87
HETATM   87  C   UNK N   1      32.557  13.677   8.037  0.00  0.00     0.180 C 
BRANCH  87  88
HETATM   88  O   UNK N   1      32.749  13.142   6.759  0.00  0.00    -0.388 OA
HETATM   89  H   UNK N   1      33.477  12.553   6.504  0.00  0.00     0.210 HD
ENDBRANCH  87  88
BRANCH  87  90
HETATM   90  C   UNK N   1      32.032  15.060   7.872  0.00  0.00    -0.027 A 
HETATM   91  C   UNK N   1      32.098  16.012   8.899  0.00  0.00     0.010 A 
HETATM   92  C   UNK N   1      31.610  17.300   8.688  0.00  0.00     0.001 A 
HETATM   93  C   UNK N   1      31.063  17.644   7.448  0.00  0.00     0.000 A 
HETATM   94  C   UNK N   1      31.001  16.698   6.422  0.00  0.00     0.001 A 
HETATM   95  C   UNK N   1      31.483  15.409   6.636  0.00  0.00     0.010 A 
ENDBRANCH  87  90
ENDBRANCH  25  87
BRANCH  54  96
HETATM   96  C   UNK N   1      45.208   7.046  10.964  0.00  0.00     0.134 C 
BRANCH  96  97
HETATM   97  C   UNK N   1      46.074   8.199  11.344  0.00  0.00     0.219 C 
HETATM   98  O   UNK N   1      45.839   8.801  12.378  0.00  0.00    -0.274 OA
HETATM   99  N   UNK N   1      47.131   8.569  10.580  0.00  0.00    -0.365 N 
HETATM  100  C   UNK N   1      47.470   7.896   9.348  0.00  0.00     0.149 C 
HETATM  101  H   UNK N   1      47.688   9.325  10.875  0.00  0.00     0.161 HD
ENDBRANCH  96  97
ENDBRANCH  54  96
BRANCH  11 102
HETATM  102  C   UNK N   1      36.922   6.202  14.695  0.00  0.00     0.007 C 
HETATM  103  C   UNK N   1      36.869   5.890  16.185  0.00  0.00     0.012 C 
HETATM  104  C   UNK N   1      37.424   4.951  14.002  0.00  0.00     0.012 C 
ENDBRANCH  11 102
BRANCH  14 105
HETATM  105  C   UNK N   1      36.445  10.473  10.215  0.00  0.00     0.215 C 
BRANCH 105 106
HETATM  106  O   UNK N   1      36.660  11.833  10.459  0.00  0.00    -0.391 OA
HETATM  107  C   UNK N   1      38.037  12.012  10.309  0.00  0.00     0.201 C 
ENDBRANCH 105 106
ENDBRANCH  14 105
TORSDOF 20
ENDMDL
MODEL 7
REMARK VINA RESULT:      -8.4      3.845     10.296
REMARK  20 active torsions:
REMARK  status: ('A' for Active; 'I' for Inactive)
REMARK    1  A    between atoms: C_11  and  C_97 
REMARK    2  A    between atoms: C_14  and  C_94 
REMARK    3  A    between atoms: C_25  and  C_86 
REMARK    4  A    between atoms: C_41  and  C_60 
REMARK    5  A    between atoms: C_54  and  C_55 
REMARK    6  A    between atoms: C_55  and  C_56 
REMARK       I    between atoms: C_56  and  N_58 
REMARK    7  A    between atoms: C_63  and  N_66 
REMARK       I    between atoms: N_66  and  C_67 
REMARK    8  A    between atoms: N_66  and  C_79 
REMARK    9  A    between atoms: C_67  and  O_69 
REMARK   10  A    between atoms: C_70  and  O_69 
REMARK   11  A    between atoms: C_73  and  C_76 
REMARK   12  A    between atoms: C_76  and  O_78 
REMARK   13  A    between atoms: C_79  and  C_80 
REMARK   14  A    between atoms: C_80  and  C_81 
REMARK   15  A    between atoms: C_81  and  C_82 
REMARK   16  A    between atoms: C_82  and  C_83 
REMARK   17  A    between atoms: C_83  and  O_85 
REMARK   18  A    between atoms: C_86  and  O_87 
REMARK   19  A    between atoms: C_86  and  C_88 
REMARK   20  A    between atoms: C_94  and  O_95 
ROOT
HETATM    1  C   UNK N   1      28.651   3.979   1.933  0.00  0.00     0.059 C 
HETATM    2  C   UNK N   1      29.558   5.004   2.512  0.00  0.00     0.013 A 
HETATM    3  S   UNK N   1      30.956   4.674   3.290  0.00  0.00    -0.077 SA
HETATM    4  C   UNK N   1      31.370   6.225   3.685  0.00  0.00     0.075 A 
HETATM    5  N   UNK N   1      30.414   7.081   3.210  0.00  0.00    -0.347 N 
ATOM      6  HN  UNK N   1      30.444   8.094   3.326  1.00  0.00     0.166 HD
HETATM    7  C   UNK N   1      29.396   6.401   2.547  0.00  0.00     0.114 A 
HETATM    8  C   UNK N   1      28.195   7.076   1.991  0.00  0.00     0.269 C 
HETATM    9  O   UNK N   1      27.229   6.411   1.648  0.00  0.00    -0.266 OA
HETATM   10  N   UNK N   1      28.149   8.422   1.918  0.00  0.00    -0.345 N 
HETATM   11  C   UNK N   1      26.963   9.180   1.552  0.00  0.00     0.145 C 
HETATM   12  C   UNK N   1      27.128  10.545   2.153  0.00  0.00     0.075 A 
HETATM   13  S   UNK N   1      28.433  11.050   3.022  0.00  0.00    -0.074 SA
HETATM   14  C   UNK N   1      27.960  12.601   3.263  0.00  0.00     0.040 A 
HETATM   15  C   UNK N   1      26.706  12.739   2.605  0.00  0.00     0.116 A 
HETATM   16  N   UNK N   1      26.252  11.572   2.020  0.00  0.00    -0.347 N 
ATOM     17  HN  UNK N   1      25.355  11.491   1.541  1.00  0.00     0.166 HD
HETATM   18  C   UNK N   1      25.871  13.966   2.487  0.00  0.00     0.269 C 
HETATM   19  O   UNK N   1      24.666  13.826   2.350  0.00  0.00    -0.266 OA
HETATM   20  N   UNK N   1      26.378  15.224   2.410  0.00  0.00    -0.347 N 
HETATM   21  C   UNK N   1      27.779  15.561   2.322  0.00  0.00     0.225 C 
HETATM   22  C   UNK N   1      28.168  16.430   3.474  0.00  0.00     0.236 C 
HETATM   23  O   UNK N   1      29.170  17.125   3.399  0.00  0.00    -0.272 OA
HETATM   24  N   UNK N   1      27.389  16.440   4.587  0.00  0.00    -0.346 N 
HETATM   25  C   UNK N   1      27.586  17.276   5.753  0.00  0.00     0.175 C 
HETATM   26  C   UNK N   1      28.799  16.927   6.535  0.00  0.00     0.077 A 
HETATM   27  S   UNK N   1      29.110  17.554   8.023  0.00  0.00    -0.084 SA
HETATM   28  C   UNK N   1      30.618  16.988   8.202  0.00  0.00     0.084 A 
HETATM   29  C   UNK N   1      30.880  16.269   7.032  0.00  0.00     0.073 A 
HETATM   30  N   UNK N   1      29.860  16.198   6.114  0.00  0.00    -0.349 N 
ATOM     31  HN  UNK N   1      29.896  15.671   5.241  1.00  0.00     0.166 HD
HETATM   32  C   UNK N   1      32.060  15.469   7.004  0.00  0.00     0.102 A 
HETATM   33  S   UNK N   1      33.486  16.099   7.542  0.00  0.00    -0.080 SA
HETATM   34  C   UNK N   1      34.045  14.782   8.329  0.00  0.00     0.079 A 
HETATM   35  C   UNK N   1      33.035  13.812   8.196  0.00  0.00     0.040 A 
HETATM   36  N   UNK N   1      31.954  14.198   7.448  0.00  0.00    -0.350 N 
ATOM     37  HN  UNK N   1      31.158  13.593   7.248  1.00  0.00     0.166 HD
HETATM   38  C   UNK N   1      33.178  12.430   8.710  0.00  0.00     0.142 C 
HETATM   39  N   UNK N   1      34.235  12.341   9.553  0.00  0.00    -0.380 N 
ATOM     40  HN  UNK N   1      34.087  12.421  10.560  1.00  0.00     0.160 HD
HETATM   41  C   UNK N   1      35.492  12.146   9.070  0.00  0.00     0.038 C 
HETATM   42  C   UNK N   1      35.649  11.973   7.690  0.00  0.00     0.024 C 
HETATM   43  C   UNK N   1      34.516  11.619   6.959  0.00  0.00    -0.015 C 
HETATM   44  C   UNK N   1      33.237  11.637   7.586  0.00  0.00     0.070 C 
HETATM   45  C   UNK N   1      32.730  10.278   7.632  0.00  0.00     0.158 A 
HETATM   46  S   UNK N   1      33.528   9.243   8.666  0.00  0.00    -0.113 SA
HETATM   47  C   UNK N   1      34.071   8.161   7.544  0.00  0.00     0.082 A 
HETATM   48  C   UNK N   1      33.490   8.590   6.336  0.00  0.00     0.103 A 
HETATM   49  N   UNK N   1      32.738   9.715   6.418  0.00  0.00    -0.371 N 
ATOM     50  HN  UNK N   1      32.224  10.099   5.626  1.00  0.00     0.161 HD
HETATM   51  C   UNK N   1      34.064   8.326   5.016  0.00  0.00     0.269 C 
HETATM   52  O   UNK N   1      35.008   9.008   4.646  0.00  0.00    -0.266 OA
HETATM   53  N   UNK N   1      33.436   7.522   4.133  0.00  0.00    -0.345 N 
HETATM   54  C   UNK N   1      32.492   6.570   4.629  0.00  0.00     0.150 C 
HETATM   55  H   UNK N   1      28.970   8.924   2.126  0.00  0.00     0.163 HD
HETATM   56  H   UNK N   1      25.736  15.969   2.414  0.00  0.00     0.163 HD
HETATM   57  H   UNK N   1      26.622  15.824   4.602  0.00  0.00     0.163 HD
HETATM   58  H   UNK N   1      33.624   7.589   3.170  0.00  0.00     0.163 HD
ENDROOT
BRANCH  41  59
HETATM   59  C   UNK N   1      36.503  12.836   9.804  0.00  0.00     0.199 A 
HETATM   60  S   UNK N   1      38.120  12.503   9.685  0.00  0.00    -0.106 SA
HETATM   61  C   UNK N   1      38.510  12.599  11.300  0.00  0.00     0.096 A 
HETATM   62  C   UNK N   1      37.277  12.850  11.934  0.00  0.00     0.115 A 
HETATM   63  N   UNK N   1      36.211  12.956  11.104  0.00  0.00    -0.357 N 
ATOM     64  HN  UNK N   1      35.262  13.116  11.445  1.00  0.00     0.162 HD
BRANCH  62  65
HETATM   65  N   UNK N   1      37.057  12.536  13.290  0.00  0.00    -0.279 N 
HETATM   66  C   UNK N   1      36.181  13.235  14.041  0.00  0.00     0.368 C 
HETATM   67  O   UNK N   1      35.480  14.094  13.522  0.00  0.00    -0.238 OA
BRANCH  66  68
HETATM   68  O   UNK N   1      36.081  12.999  15.369  0.00  0.00    -0.298 OA
BRANCH  68  69
HETATM   69  C   UNK N   1      34.860  12.774  16.010  0.00  0.00     0.133 C 
HETATM   70  C   UNK N   1      35.092  12.568  17.490  0.00  0.00     0.033 C 
HETATM   71  C   UNK N   1      36.023  11.374  17.679  0.00  0.00     0.018 C 
HETATM   72  C   UNK N   1      35.524  10.081  17.000  0.00  0.00     0.084 C 
HETATM   73  C   UNK N   1      34.800  10.244  15.651  0.00  0.00     0.018 C 
HETATM   74  C   UNK N   1      34.047  11.569  15.493  0.00  0.00     0.033 C 
BRANCH  72  75
HETATM   75  C   UNK N   1      34.805   9.141  17.903  0.00  0.00     0.143 C 
HETATM   76  O   UNK N   1      34.884   7.940  17.701  0.00  0.00    -0.650 OA
BRANCH  75  77
HETATM   77  O   UNK N   1      34.110   9.598  18.960  0.00  0.00    -0.776 OA
HETATM   78  H   UNK N   1      33.196   9.782  18.877  0.00  0.00     0.167 HD
ENDBRANCH  75  77
ENDBRANCH  72  75
ENDBRANCH  68  69
ENDBRANCH  66  68
BRANCH  65  79
HETATM   79  C   UNK N   1      37.709  11.357  13.829  0.00  0.00     0.136 C 
BRANCH  79  80
HETATM   80  C   UNK N   1      37.214  10.046  13.232  0.00  0.00     0.021 C 
BRANCH  80  81
HETATM   81  C   UNK N   1      38.060   8.896  13.765  0.00  0.00     0.012 C 
BRANCH  81  82
HETATM   82  C   UNK N   1      39.108   9.406  14.738  0.00  0.00     0.110 C 
BRANCH  82  83
HETATM   83  C   UNK N   1      40.325   8.540  14.745  0.00  0.00     0.139 C 
HETATM   84  O   UNK N   1      41.328   8.892  15.345  0.00  0.00    -0.650 OA
BRANCH  83  85
HETATM   85  O   UNK N   1      40.300   7.345  14.126  0.00  0.00    -0.776 OA
HETATM   86  H   UNK N   1      40.399   7.165  13.212  0.00  0.00     0.167 HD
ENDBRANCH  83  85
ENDBRANCH  82  83
ENDBRANCH  81  82
ENDBRANCH  80  81
ENDBRANCH  79  80
ENDBRANCH  65  79
ENDBRANCH  62  65
ENDBRANCH  41  59
BRANCH  25  87
HETATM   87  C   UNK N   1      27.658  18.773   5.388  0.00  0.00     0.180 C 
BRANCH  87  88
HETATM   88  O   UNK N   1      27.731  19.567   6.537  0.00  0.00    -0.388 OA
HETATM   89  H   UNK N   1      27.666  19.239   7.447  0.00  0.00     0.210 HD
ENDBRANCH  87  88
BRANCH  87  90
HETATM   90  C   UNK N   1      26.539  19.289   4.553  0.00  0.00    -0.027 A 
HETATM   91  C   UNK N   1      26.756  20.113   3.440  0.00  0.00     0.010 A 
HETATM   92  C   UNK N   1      25.674  20.554   2.679  0.00  0.00     0.001 A 
HETATM   93  C   UNK N   1      24.376  20.166   3.021  0.00  0.00     0.000 A 
HETATM   94  C   UNK N   1      24.159  19.341   4.127  0.00  0.00     0.001 A 
HETATM   95  C   UNK N   1      25.239  18.906   4.891  0.00  0.00     0.010 A 
ENDBRANCH  87  90
ENDBRANCH  25  87
BRANCH  54  96
HETATM   96  C   UNK N   1      33.327   5.345   4.989  0.00  0.00     0.134 C 
BRANCH  96  97
HETATM   97  C   UNK N   1      32.980   4.816   6.339  0.00  0.00     0.219 C 
HETATM   98  O   UNK N   1      32.094   5.356   6.978  0.00  0.00    -0.274 OA
HETATM   99  N   UNK N   1      33.609   3.730   6.853  0.00  0.00    -0.365 N 
HETATM  100  C   UNK N   1      34.662   3.038   6.148  0.00  0.00     0.149 C 
HETATM  101  H   UNK N   1      33.337   3.401   7.740  0.00  0.00     0.161 HD
ENDBRANCH  96  97
ENDBRANCH  54  96
BRANCH  11 102
HETATM  102  C   UNK N   1      26.772   9.302   0.022  0.00  0.00     0.007 C 
HETATM  103  C   UNK N   1      25.585   8.466  -0.439  0.00  0.00     0.012 C 
HETATM  104  C   UNK N   1      27.974   8.833  -0.773  0.00  0.00     0.012 C 
ENDBRANCH  11 102
BRANCH  14 105
HETATM  105  C   UNK N   1      28.754  13.554   4.089  0.00  0.00     0.215 C 
BRANCH 105 106
HETATM  106  O   UNK N   1      30.025  13.031   4.349  0.00  0.00    -0.391 OA
HETATM  107  C   UNK N   1      30.903  13.852   3.639  0.00  0.00     0.201 C 
ENDBRANCH 105 106
ENDBRANCH  14 105
TORSDOF 20
ENDMDL
MODEL 8
REMARK VINA RESULT:      -8.3      3.631     14.431
REMARK  20 active torsions:
REMARK  status: ('A' for Active; 'I' for Inactive)
REMARK    1  A    between atoms: C_11  and  C_97 
REMARK    2  A    between atoms: C_14  and  C_94 
REMARK    3  A    between atoms: C_25  and  C_86 
REMARK    4  A    between atoms: C_41  and  C_60 
REMARK    5  A    between atoms: C_54  and  C_55 
REMARK    6  A    between atoms: C_55  and  C_56 
REMARK       I    between atoms: C_56  and  N_58 
REMARK    7  A    between atoms: C_63  and  N_66 
REMARK       I    between atoms: N_66  and  C_67 
REMARK    8  A    between atoms: N_66  and  C_79 
REMARK    9  A    between atoms: C_67  and  O_69 
REMARK   10  A    between atoms: C_70  and  O_69 
REMARK   11  A    between atoms: C_73  and  C_76 
REMARK   12  A    between atoms: C_76  and  O_78 
REMARK   13  A    between atoms: C_79  and  C_80 
REMARK   14  A    between atoms: C_80  and  C_81 
REMARK   15  A    between atoms: C_81  and  C_82 
REMARK   16  A    between atoms: C_82  and  C_83 
REMARK   17  A    between atoms: C_83  and  O_85 
REMARK   18  A    between atoms: C_86  and  O_87 
REMARK   19  A    between atoms: C_86  and  C_88 
REMARK   20  A    between atoms: C_94  and  O_95 
ROOT
HETATM    1  C   UNK N   1      37.947  14.155   5.708  0.00  0.00     0.059 C 
HETATM    2  C   UNK N   1      36.777  13.337   5.294  0.00  0.00     0.013 A 
HETATM    3  S   UNK N   1      36.872  11.929   4.470  0.00  0.00    -0.077 SA
HETATM    4  C   UNK N   1      35.252  11.641   4.320  0.00  0.00     0.075 A 
HETATM    5  N   UNK N   1      34.556  12.652   4.926  0.00  0.00    -0.347 N 
ATOM      6  HN  UNK N   1      33.538  12.702   4.968  1.00  0.00     0.166 HD
HETATM    7  C   UNK N   1      35.408  13.606   5.478  0.00  0.00     0.114 A 
HETATM    8  C   UNK N   1      34.923  14.846   6.134  0.00  0.00     0.269 C 
HETATM    9  O   UNK N   1      35.706  15.754   6.373  0.00  0.00    -0.266 OA
HETATM   10  N   UNK N   1      33.612  14.994   6.417  0.00  0.00    -0.345 N 
HETATM   11  C   UNK N   1      33.015  16.229   6.900  0.00  0.00     0.145 C 
HETATM   12  C   UNK N   1      31.565  16.178   6.518  0.00  0.00     0.075 A 
HETATM   13  S   UNK N   1      30.831  14.929   5.735  0.00  0.00    -0.074 SA
HETATM   14  C   UNK N   1      29.303  15.522   5.740  0.00  0.00     0.040 A 
HETATM   15  C   UNK N   1      29.367  16.773   6.415  0.00  0.00     0.116 A 
HETATM   16  N   UNK N   1      30.642  17.127   6.812  0.00  0.00    -0.347 N 
ATOM     17  HN  UNK N   1      30.866  18.008   7.275  1.00  0.00     0.166 HD
HETATM   18  C   UNK N   1      28.241  17.698   6.725  0.00  0.00     0.269 C 
HETATM   19  O   UNK N   1      28.495  18.886   6.842  0.00  0.00    -0.266 OA
HETATM   20  N   UNK N   1      26.975  17.287   6.995  0.00  0.00    -0.347 N 
HETATM   21  C   UNK N   1      26.548  15.914   7.131  0.00  0.00     0.225 C 
HETATM   22  C   UNK N   1      25.483  15.610   6.127  0.00  0.00     0.236 C 
HETATM   23  O   UNK N   1      24.733  14.664   6.308  0.00  0.00    -0.272 OA
HETATM   24  N   UNK N   1      25.361  16.404   5.032  0.00  0.00    -0.346 N 
HETATM   25  C   UNK N   1      24.341  16.289   4.010  0.00  0.00     0.175 C 
HETATM   26  C   UNK N   1      24.470  15.064   3.180  0.00  0.00     0.077 A 
HETATM   27  S   UNK N   1      23.597  14.825   1.807  0.00  0.00    -0.084 SA
HETATM   28  C   UNK N   1      24.010  13.280   1.539  0.00  0.00     0.084 A 
HETATM   29  C   UNK N   1      24.878  12.947   2.581  0.00  0.00     0.073 A 
HETATM   30  N   UNK N   1      25.171  13.945   3.479  0.00  0.00    -0.349 N 
ATOM     31  HN  UNK N   1      25.822  13.855   4.260  1.00  0.00     0.166 HD
HETATM   32  C   UNK N   1      25.579  11.708   2.481  0.00  0.00     0.102 A 
HETATM   33  S   UNK N   1      24.764  10.344   2.044  0.00  0.00    -0.080 SA
HETATM   34  C   UNK N   1      25.895   9.697   1.060  0.00  0.00     0.079 A 
HETATM   35  C   UNK N   1      26.950  10.627   1.043  0.00  0.00     0.040 A 
HETATM   36  N   UNK N   1      26.770  11.724   1.845  0.00  0.00    -0.350 N 
ATOM     37  HN  UNK N   1      27.459  12.469   1.949  1.00  0.00     0.166 HD
HETATM   38  C   UNK N   1      28.220  10.387   0.319  0.00  0.00     0.142 C 
HETATM   39  N   UNK N   1      28.094   9.339  -0.531  0.00  0.00    -0.380 N 
ATOM     40  HN  UNK N   1      27.871   9.507  -1.512  1.00  0.00     0.160 HD
HETATM   41  C   UNK N   1      28.264   8.063  -0.087  0.00  0.00     0.038 C 
HETATM   42  C   UNK N   1      28.637   7.873   1.249  0.00  0.00     0.024 C 
HETATM   43  C   UNK N   1      29.186   8.966   1.919  0.00  0.00    -0.015 C 
HETATM   44  C   UNK N   1      29.171  10.251   1.306  0.00  0.00     0.070 C 
HETATM   45  C   UNK N   1      30.541  10.653   1.050  0.00  0.00     0.158 A 
HETATM   46  S   UNK N   1      31.339   9.794  -0.135  0.00  0.00    -0.113 SA
HETATM   47  C   UNK N   1      32.535   9.153   0.803  0.00  0.00     0.082 A 
HETATM   48  C   UNK N   1      32.346   9.747   2.065  0.00  0.00     0.103 A 
HETATM   49  N   UNK N   1      31.283  10.584   2.161  0.00  0.00    -0.371 N 
ATOM     50  HN  UNK N   1      31.068  11.115   3.005  1.00  0.00     0.161 HD
HETATM   51  C   UNK N   1      32.766   9.135   3.326  0.00  0.00     0.269 C 
HETATM   52  O   UNK N   1      32.079   8.242   3.795  0.00  0.00    -0.266 OA
HETATM   53  N   UNK N   1      33.744   9.687   4.074  0.00  0.00    -0.345 N 
HETATM   54  C   UNK N   1      34.678  10.563   3.439  0.00  0.00     0.150 C 
HETATM   55  H   UNK N   1      33.022  14.217   6.287  0.00  0.00     0.163 HD
HETATM   56  H   UNK N   1      26.291  17.985   7.110  0.00  0.00     0.163 HD
HETATM   57  H   UNK N   1      26.025  17.123   4.923  0.00  0.00     0.163 HD
HETATM   58  H   UNK N   1      33.812   9.490   5.036  0.00  0.00     0.163 HD
ENDROOT
BRANCH  41  59
HETATM   59  C   UNK N   1      27.391   7.119  -0.707  0.00  0.00     0.199 A 
HETATM   60  S   UNK N   1      27.865   5.614  -1.205  0.00  0.00    -0.106 SA
HETATM   61  C   UNK N   1      27.059   5.571  -2.661  0.00  0.00     0.096 A 
HETATM   62  C   UNK N   1      26.448   6.837  -2.748  0.00  0.00     0.115 A 
HETATM   63  N   UNK N   1      26.658   7.656  -1.689  0.00  0.00    -0.357 N 
ATOM     64  HN  UNK N   1      26.286   8.605  -1.645  1.00  0.00     0.162 HD
BRANCH  62  65
HETATM   65  N   UNK N   1      26.076   7.403  -3.984  0.00  0.00    -0.279 N 
HETATM   66  C   UNK N   1      24.808   7.336  -4.436  0.00  0.00     0.368 C 
HETATM   67  O   UNK N   1      23.929   6.868  -3.724  0.00  0.00    -0.238 OA
BRANCH  66  68
HETATM   68  O   UNK N   1      24.502   7.772  -5.680  0.00  0.00    -0.298 OA
BRANCH  68  69
HETATM   69  C   UNK N   1      23.834   6.981  -6.618  0.00  0.00     0.133 C 
HETATM   70  C   UNK N   1      24.808   6.015  -7.255  0.00  0.00     0.033 C 
HETATM   71  C   UNK N   1      25.923   6.812  -7.925  0.00  0.00     0.018 C 
HETATM   72  C   UNK N   1      25.418   7.858  -8.941  0.00  0.00     0.084 C 
HETATM   73  C   UNK N   1      24.102   8.580  -8.595  0.00  0.00     0.018 C 
HETATM   74  C   UNK N   1      23.127   7.748  -7.755  0.00  0.00     0.033 C 
BRANCH  72  75
HETATM   75  C   UNK N   1      25.445   7.411 -10.360  0.00  0.00     0.143 C 
HETATM   76  O   UNK N   1      26.193   7.967 -11.148  0.00  0.00    -0.650 OA
BRANCH  75  77
HETATM   77  O   UNK N   1      24.691   6.375 -10.770  0.00  0.00    -0.776 OA
HETATM   78  H   UNK N   1      24.840   5.990 -11.611  0.00  0.00     0.167 HD
ENDBRANCH  75  77
ENDBRANCH  72  75
ENDBRANCH  68  69
ENDBRANCH  66  68
BRANCH  65  79
HETATM   79  C   UNK N   1      27.072   8.173  -4.706  0.00  0.00     0.136 C 
BRANCH  79  80
HETATM   80  C   UNK N   1      28.301   7.372  -5.116  0.00  0.00     0.021 C 
BRANCH  80  81
HETATM   81  C   UNK N   1      29.530   7.932  -4.410  0.00  0.00     0.012 C 
BRANCH  81  82
HETATM   82  C   UNK N   1      29.212   9.263  -3.753  0.00  0.00     0.110 C 
BRANCH  82  83
HETATM   83  C   UNK N   1      30.265  10.285  -4.034  0.00  0.00     0.139 C 
HETATM   84  O   UNK N   1      31.381   9.938  -4.383  0.00  0.00    -0.650 OA
BRANCH  83  85
HETATM   85  O   UNK N   1      29.967  11.595  -3.946  0.00  0.00    -0.776 OA
HETATM   86  H   UNK N   1      30.294  12.222  -3.333  0.00  0.00     0.167 HD
ENDBRANCH  83  85
ENDBRANCH  82  83
ENDBRANCH  81  82
ENDBRANCH  80  81
ENDBRANCH  79  80
ENDBRANCH  65  79
ENDBRANCH  62  65
ENDBRANCH  41  59
BRANCH  25  87
HETATM   87  C   UNK N   1      22.919  16.327   4.604  0.00  0.00     0.180 C 
BRANCH  87  88
HETATM   88  O   UNK N   1      22.329  15.059   4.577  0.00  0.00    -0.388 OA
HETATM   89  H   UNK N   1      21.392  14.883   4.401  0.00  0.00     0.210 HD
ENDBRANCH  87  88
BRANCH  87  90
HETATM   90  C   UNK N   1      21.974  17.278   3.959  0.00  0.00    -0.027 A 
HETATM   91  C   UNK N   1      20.766  16.858   3.384  0.00  0.00     0.010 A 
HETATM   92  C   UNK N   1      19.905  17.793   2.810  0.00  0.00     0.001 A 
HETATM   93  C   UNK N   1      20.244  19.149   2.816  0.00  0.00     0.000 A 
HETATM   94  C   UNK N   1      21.445  19.570   3.392  0.00  0.00     0.001 A 
HETATM   95  C   UNK N   1      22.308  18.635   3.961  0.00  0.00     0.010 A 
ENDBRANCH  87  90
ENDBRANCH  25  87
BRANCH  54  96
HETATM   96  C   UNK N   1      35.763   9.642   2.890  0.00  0.00     0.134 C 
BRANCH  96  97
HETATM   97  C   UNK N   1      36.163  10.021   1.504  0.00  0.00     0.219 C 
HETATM   98  O   UNK N   1      35.522  10.875   0.915  0.00  0.00    -0.274 OA
HETATM   99  N   UNK N   1      37.239   9.458   0.902  0.00  0.00    -0.365 N 
HETATM  100  C   UNK N   1      38.045   8.446   1.544  0.00  0.00     0.149 C 
HETATM  101  H   UNK N   1      37.479   9.749  -0.007  0.00  0.00     0.161 HD
ENDBRANCH  96  97
ENDBRANCH  54  96
BRANCH  11 102
HETATM  102  C   UNK N   1      33.147  16.407   8.431  0.00  0.00     0.007 C 
HETATM  103  C   UNK N   1      34.192  17.464   8.760  0.00  0.00     0.012 C 
HETATM  104  C   UNK N   1      33.564  15.139   9.148  0.00  0.00     0.012 C 
ENDBRANCH  11 102
BRANCH  14 105
HETATM  105  C   UNK N   1      28.175  14.816   5.070  0.00  0.00     0.215 C 
BRANCH 105 106
HETATM  106  O   UNK N   1      27.898  15.404   3.832  0.00  0.00    -0.391 OA
HETATM  107  C   UNK N   1      28.603  14.636   2.904  0.00  0.00     0.201 C 
ENDBRANCH 105 106
ENDBRANCH  14 105
TORSDOF 20
ENDMDL
MODEL 9
REMARK VINA RESULT:      -8.3      4.463     10.718
REMARK  20 active torsions:
REMARK  status: ('A' for Active; 'I' for Inactive)
REMARK    1  A    between atoms: C_11  and  C_97 
REMARK    2  A    between atoms: C_14  and  C_94 
REMARK    3  A    between atoms: C_25  and  C_86 
REMARK    4  A    between atoms: C_41  and  C_60 
REMARK    5  A    between atoms: C_54  and  C_55 
REMARK    6  A    between atoms: C_55  and  C_56 
REMARK       I    between atoms: C_56  and  N_58 
REMARK    7  A    between atoms: C_63  and  N_66 
REMARK       I    between atoms: N_66  and  C_67 
REMARK    8  A    between atoms: N_66  and  C_79 
REMARK    9  A    between atoms: C_67  and  O_69 
REMARK   10  A    between atoms: C_70  and  O_69 
REMARK   11  A    between atoms: C_73  and  C_76 
REMARK   12  A    between atoms: C_76  and  O_78 
REMARK   13  A    between atoms: C_79  and  C_80 
REMARK   14  A    between atoms: C_80  and  C_81 
REMARK   15  A    between atoms: C_81  and  C_82 
REMARK   16  A    between atoms: C_82  and  C_83 
REMARK   17  A    between atoms: C_83  and  O_85 
REMARK   18  A    between atoms: C_86  and  O_87 
REMARK   19  A    between atoms: C_86  and  C_88 
REMARK   20  A    between atoms: C_94  and  O_95 
ROOT
HETATM    1  C   UNK N   1      28.303   2.887   3.264  0.00  0.00     0.059 C 
HETATM    2  C   UNK N   1      29.265   3.870   3.828  0.00  0.00     0.013 A 
HETATM    3  S   UNK N   1      30.494   3.493   4.837  0.00  0.00    -0.077 SA
HETATM    4  C   UNK N   1      31.068   5.024   5.080  0.00  0.00     0.075 A 
HETATM    5  N   UNK N   1      30.310   5.909   4.362  0.00  0.00    -0.347 N 
ATOM      6  HN  UNK N   1      30.468   6.916   4.347  1.00  0.00     0.166 HD
HETATM    7  C   UNK N   1      29.298   5.266   3.654  0.00  0.00     0.114 A 
HETATM    8  C   UNK N   1      28.284   5.990   2.846  0.00  0.00     0.269 C 
HETATM    9  O   UNK N   1      27.285   5.404   2.457  0.00  0.00    -0.266 OA
HETATM   10  N   UNK N   1      28.438   7.306   2.590  0.00  0.00    -0.345 N 
HETATM   11  C   UNK N   1      27.426   8.139   1.959  0.00  0.00     0.145 C 
HETATM   12  C   UNK N   1      27.704   9.548   2.392  0.00  0.00     0.075 A 
HETATM   13  S   UNK N   1      28.947  10.015   3.367  0.00  0.00    -0.074 SA
HETATM   14  C   UNK N   1      28.671  11.631   3.330  0.00  0.00     0.040 A 
HETATM   15  C   UNK N   1      27.541  11.819   2.484  0.00  0.00     0.116 A 
HETATM   16  N   UNK N   1      27.006  10.642   1.999  0.00  0.00    -0.347 N 
ATOM     17  HN  UNK N   1      26.174  10.599   1.410  1.00  0.00     0.166 HD
HETATM   18  C   UNK N   1      26.909  13.108   2.086  0.00  0.00     0.269 C 
HETATM   19  O   UNK N   1      25.723  13.095   1.795  0.00  0.00    -0.266 OA
HETATM   20  N   UNK N   1      27.594  14.269   1.918  0.00  0.00    -0.347 N 
HETATM   21  C   UNK N   1      29.029  14.416   1.991  0.00  0.00     0.225 C 
HETATM   22  C   UNK N   1      29.387  15.395   3.062  0.00  0.00     0.236 C 
HETATM   23  O   UNK N   1      30.478  15.943   3.041  0.00  0.00    -0.272 OA
HETATM   24  N   UNK N   1      28.483  15.665   4.039  0.00  0.00    -0.346 N 
HETATM   25  C   UNK N   1      28.647  16.637   5.100  0.00  0.00     0.175 C 
HETATM   26  C   UNK N   1      29.690  16.264   6.090  0.00  0.00     0.077 A 
HETATM   27  S   UNK N   1      29.895  17.065   7.511  0.00  0.00    -0.084 SA
HETATM   28  C   UNK N   1      31.274  16.353   7.979  0.00  0.00     0.084 A 
HETATM   29  C   UNK N   1      31.578  15.441   6.965  0.00  0.00     0.073 A 
HETATM   30  N   UNK N   1      30.682  15.357   5.927  0.00  0.00    -0.349 N 
ATOM     31  HN  UNK N   1      30.754  14.705   5.145  1.00  0.00     0.166 HD
HETATM   32  C   UNK N   1      32.628  14.509   7.215  0.00  0.00     0.102 A 
HETATM   33  S   UNK N   1      34.048  15.034   7.866  0.00  0.00    -0.080 SA
HETATM   34  C   UNK N   1      34.313  13.792   8.892  0.00  0.00     0.079 A 
HETATM   35  C   UNK N   1      33.202  12.943   8.744  0.00  0.00     0.040 A 
HETATM   36  N   UNK N   1      32.289  13.341   7.802  0.00  0.00    -0.350 N 
ATOM     37  HN  UNK N   1      31.447  12.813   7.571  1.00  0.00     0.166 HD
HETATM   38  C   UNK N   1      33.082  11.646   9.451  0.00  0.00     0.142 C 
HETATM   39  N   UNK N   1      34.001  11.558  10.443  0.00  0.00    -0.380 N 
ATOM     40  HN  UNK N   1      33.740  11.805  11.398  1.00  0.00     0.160 HD
HETATM   41  C   UNK N   1      35.269  11.141  10.176  0.00  0.00     0.038 C 
HETATM   42  C   UNK N   1      35.573  10.745   8.869  0.00  0.00     0.024 C 
HETATM   43  C   UNK N   1      34.503  10.426   8.034  0.00  0.00    -0.015 C 
HETATM   44  C   UNK N   1      33.170  10.693   8.461  0.00  0.00     0.070 C 
HETATM   45  C   UNK N   1      32.476   9.428   8.612  0.00  0.00     0.158 A 
HETATM   46  S   UNK N   1      32.982   8.470   9.879  0.00  0.00    -0.113 SA
HETATM   47  C   UNK N   1      33.506   7.175   9.000  0.00  0.00     0.082 A 
HETATM   48  C   UNK N   1      33.148   7.485   7.675  0.00  0.00     0.103 A 
HETATM   49  N   UNK N   1      32.558   8.693   7.498  0.00  0.00    -0.371 N 
ATOM     50  HN  UNK N   1      32.207   9.013   6.595  1.00  0.00     0.161 HD
HETATM   51  C   UNK N   1      33.841   6.958   6.498  0.00  0.00     0.269 C 
HETATM   52  O   UNK N   1      34.910   7.457   6.183  0.00  0.00    -0.266 OA
HETATM   53  N   UNK N   1      33.223   6.113   5.648  0.00  0.00    -0.345 N 
HETATM   54  C   UNK N   1      32.099   5.368   6.123  0.00  0.00     0.150 C 
HETATM   55  H   UNK N   1      29.288   7.730   2.847  0.00  0.00     0.163 HD
HETATM   56  H   UNK N   1      27.068  15.078   1.730  0.00  0.00     0.163 HD
HETATM   57  H   UNK N   1      27.641  15.156   4.023  0.00  0.00     0.163 HD
HETATM   58  H   UNK N   1      33.539   6.012   4.721  0.00  0.00     0.163 HD
ENDROOT
BRANCH  41  59
HETATM   59  C   UNK N   1      36.266  11.806  10.952  0.00  0.00     0.199 A 
HETATM   60  S   UNK N   1      37.874  11.415  10.918  0.00  0.00    -0.106 SA
HETATM   61  C   UNK N   1      38.187  11.519  12.550  0.00  0.00     0.096 A 
HETATM   62  C   UNK N   1      36.934  11.821  13.117  0.00  0.00     0.115 A 
HETATM   63  N   UNK N   1      35.914  11.953  12.235  0.00  0.00    -0.357 N 
ATOM     64  HN  UNK N   1      34.956  12.150  12.526  1.00  0.00     0.162 HD
BRANCH  62  65
HETATM   65  N   UNK N   1      36.636  11.534  14.465  0.00  0.00    -0.279 N 
HETATM   66  C   UNK N   1      36.330  10.285  14.868  0.00  0.00     0.368 C 
HETATM   67  O   UNK N   1      36.409   9.351  14.079  0.00  0.00    -0.238 OA
BRANCH  66  68
HETATM   68  O   UNK N   1      35.924  10.057  16.138  0.00  0.00    -0.298 OA
BRANCH  68  69
HETATM   69  C   UNK N   1      36.188   8.865  16.817  0.00  0.00     0.133 C 
HETATM   70  C   UNK N   1      34.898   8.293  17.362  0.00  0.00     0.033 C 
HETATM   71  C   UNK N   1      34.268   9.315  18.302  0.00  0.00     0.018 C 
HETATM   72  C   UNK N   1      35.204   9.779  19.438  0.00  0.00     0.084 C 
HETATM   73  C   UNK N   1      36.697   9.924  19.087  0.00  0.00     0.018 C 
HETATM   74  C   UNK N   1      37.184   8.971  17.990  0.00  0.00     0.033 C 
BRANCH  72  75
HETATM   75  C   UNK N   1      35.008   9.075  20.734  0.00  0.00     0.143 C 
HETATM   76  O   UNK N   1      35.668   9.411  21.704  0.00  0.00    -0.650 OA
BRANCH  75  77
HETATM   77  O   UNK N   1      34.082   8.107  20.858  0.00  0.00    -0.776 OA
HETATM   78  H   UNK N   1      33.773   7.653  20.099  0.00  0.00     0.167 HD
ENDBRANCH  75  77
ENDBRANCH  72  75
ENDBRANCH  68  69
ENDBRANCH  66  68
BRANCH  65  79
HETATM   79  C   UNK N   1      36.790  12.602  15.436  0.00  0.00     0.136 C 
BRANCH  79  80
HETATM   80  C   UNK N   1      35.717  13.680  15.351  0.00  0.00     0.021 C 
BRANCH  80  81
HETATM   81  C   UNK N   1      34.668  13.437  16.430  0.00  0.00     0.012 C 
BRANCH  81  82
HETATM   82  C   UNK N   1      35.312  12.891  17.692  0.00  0.00     0.110 C 
BRANCH  82  83
HETATM   83  C   UNK N   1      35.203  13.854  18.829  0.00  0.00     0.139 C 
HETATM   84  O   UNK N   1      35.312  15.054  18.633  0.00  0.00    -0.650 OA
BRANCH  83  85
HETATM   85  O   UNK N   1      34.937  13.400  20.067  0.00  0.00    -0.776 OA
HETATM   86  H   UNK N   1      34.654  12.543  20.321  0.00  0.00     0.167 HD
ENDBRANCH  83  85
ENDBRANCH  82  83
ENDBRANCH  81  82
ENDBRANCH  80  81
ENDBRANCH  79  80
ENDBRANCH  65  79
ENDBRANCH  62  65
ENDBRANCH  41  59
BRANCH  25  87
HETATM   87  C   UNK N   1      28.974  18.042   4.555  0.00  0.00     0.180 C 
BRANCH  87  88
HETATM   88  O   UNK N   1      30.276  18.422   4.894  0.00  0.00    -0.388 OA
HETATM   89  H   UNK N   1      30.513  19.006   5.631  0.00  0.00     0.210 HD
ENDBRANCH  87  88
BRANCH  87  90
HETATM   90  C   UNK N   1      28.058  19.132   4.987  0.00  0.00    -0.027 A 
HETATM   91  C   UNK N   1      28.187  19.769   6.230  0.00  0.00     0.010 A 
HETATM   92  C   UNK N   1      27.316  20.799   6.579  0.00  0.00     0.001 A 
HETATM   93  C   UNK N   1      26.320  21.203   5.684  0.00  0.00     0.000 A 
HETATM   94  C   UNK N   1      26.193  20.574   4.444  0.00  0.00     0.001 A 
HETATM   95  C   UNK N   1      27.060  19.540   4.098  0.00  0.00     0.010 A 
ENDBRANCH  87  90
ENDBRANCH  25  87
BRANCH  54  96
HETATM   96  C   UNK N   1      32.701   4.119   6.758  0.00  0.00     0.134 C 
BRANCH  96  97
HETATM   97  C   UNK N   1      32.250   3.942   8.169  0.00  0.00     0.219 C 
HETATM   98  O   UNK N   1      31.061   4.029   8.426  0.00  0.00    -0.274 OA
HETATM   99  N   UNK N   1      33.130   3.657   9.160  0.00  0.00    -0.365 N 
HETATM  100  C   UNK N   1      34.549   3.534   8.925  0.00  0.00     0.149 C 
HETATM  101  H   UNK N   1      32.788   3.530  10.074  0.00  0.00     0.161 HD
ENDBRANCH  96  97
ENDBRANCH  54  96
BRANCH  11 102
HETATM  102  C   UNK N   1      27.449   8.052   0.415  0.00  0.00     0.007 C 
HETATM  103  C   UNK N   1      28.565   8.918  -0.155  0.00  0.00     0.012 C 
HETATM  104  C   UNK N   1      26.159   8.517  -0.232  0.00  0.00     0.012 C 
ENDBRANCH  11 102
BRANCH  14 105
HETATM  105  C   UNK N   1      29.480  12.593   4.129  0.00  0.00     0.215 C 
BRANCH 105 106
HETATM  106  O   UNK N   1      30.461  11.915   4.860  0.00  0.00    -0.391 OA
HETATM  107  C   UNK N   1      31.674  12.339   4.313  0.00  0.00     0.201 C 
ENDBRANCH 105 106
ENDBRANCH  14 105
TORSDOF 20
ENDMDL
