MODEL 1
REMARK VINA RESULT:      -7.6      0.000      0.000
REMARK  4 active torsions:
REMARK  status: ('A' for Active; 'I' for Inactive)
REMARK    1  A    between atoms: C_2  and  C_3 
REMARK    2  A    between atoms: C_2  and  N_6 
REMARK    3  A    between atoms: C_10  and  C_17 
REMARK    4  A    between atoms: C_19  and  C_23 
REMARK       I    between atoms: C_23  and  N_25 
ROOT
HETATM    1  N   UNK N   1      28.918  17.562   5.771  0.00  0.00    -0.339 N 
HETATM    2  C   UNK N   1      29.245  17.556   7.193  0.00  0.00     0.166 A 
HETATM    3  C   UNK N   1      30.716  17.256   7.151  0.00  0.00    -0.022 A 
HETATM    4  C   UNK N   1      31.561  17.078   8.231  0.00  0.00     0.024 A 
HETATM    5  C   UNK N   1      32.910  16.766   8.000  0.00  0.00     0.002 A 
HETATM    6  C   UNK N   1      33.388  16.651   6.673  0.00  0.00     0.039 A 
HETATM    7  C   UNK N   1      32.508  16.837   5.585  0.00  0.00     0.051 A 
HETATM    8  C   UNK N   1      31.166  17.130   5.863  0.00  0.00     0.061 A 
HETATM    9  C   UNK N   1      30.018  17.327   5.017  0.00  0.00     0.256 A 
HETATM   10  O   UNK N   1      30.011  17.255   3.797  0.00  0.00    -0.267 OA
HETATM   11 Cl   UNK N   1      33.093  16.673   3.940  0.00  0.00    -0.083 Cl
ENDROOT
BRANCH   5  12
HETATM   12  C   UNK N   1      33.779  16.521   9.159  0.00  0.00     0.111 A 
HETATM   13  C   UNK N   1      34.006  15.282   9.718  0.00  0.00     0.077 A 
HETATM   14  C   UNK N   1      34.900  15.538  10.732  0.00  0.00     0.125 A 
HETATM   15  N   UNK N   1      35.175  16.860  10.760  0.00  0.00    -0.255 N 
HETATM   16  O   UNK N   1      34.489  17.419   9.803  0.00  0.00    -0.237 OA
ATOM     17  HN  UNK N   1      35.805  17.333  11.408  1.00  0.00     0.195 HD
BRANCH  14  18
HETATM   18  C   UNK N   1      35.460  14.490  11.626  0.00  0.00     0.271 C 
HETATM   19  O   UNK N   1      34.819  14.193  12.626  0.00  0.00    -0.266 OA
HETATM   20  N   UNK N   1      36.644  13.851  11.376  0.00  0.00    -0.355 N 
HETATM   21  C   UNK N   1      37.124  12.840  12.287  0.00  0.00     0.152 C 
HETATM   22  C   UNK N   1      37.448  14.150  10.219  0.00  0.00     0.152 C 
ENDBRANCH  14  18
ENDBRANCH   5  12
BRANCH   1  23
HETATM   23  C   UNK N   1      27.564  17.722   5.251  0.00  0.00     0.088 C 
HETATM   24  C   UNK N   1      26.612  16.676   5.831  0.00  0.00     0.033 C 
BRANCH  23  25
HETATM   25  C   UNK N   1      27.015  19.117   5.524  0.00  0.00     0.008 A 
HETATM   26  C   UNK N   1      27.895  20.144   4.841  0.00  0.00     0.007 A 
HETATM   27  C   UNK N   1      26.568  19.763   4.224  0.00  0.00     0.007 A 
ENDBRANCH  23  25
ENDBRANCH   1  23
TORSDOF 4
ENDMDL
MODEL 2
REMARK VINA RESULT:      -7.3      3.330      9.805
REMARK  4 active torsions:
REMARK  status: ('A' for Active; 'I' for Inactive)
REMARK    1  A    between atoms: C_2  and  C_3 
REMARK    2  A    between atoms: C_2  and  N_6 
REMARK    3  A    between atoms: C_10  and  C_17 
REMARK    4  A    between atoms: C_19  and  C_23 
REMARK       I    between atoms: C_23  and  N_25 
ROOT
HETATM    1  N   UNK N   1      35.862  12.346  14.117  0.00  0.00    -0.339 N 
HETATM    2  C   UNK N   1      34.816  13.257  13.663  0.00  0.00     0.166 A 
HETATM    3  C   UNK N   1      35.403  13.752  12.372  0.00  0.00    -0.022 A 
HETATM    4  C   UNK N   1      34.861  14.694  11.518  0.00  0.00     0.024 A 
HETATM    5  C   UNK N   1      35.573  15.062  10.365  0.00  0.00     0.002 A 
HETATM    6  C   UNK N   1      36.821  14.458  10.086  0.00  0.00     0.039 A 
HETATM    7  C   UNK N   1      37.355  13.497  10.972  0.00  0.00     0.051 A 
HETATM    8  C   UNK N   1      36.618  13.173  12.120  0.00  0.00     0.061 A 
HETATM    9  C   UNK N   1      36.882  12.295  13.229  0.00  0.00     0.256 A 
HETATM   10  O   UNK N   1      37.894  11.627  13.384  0.00  0.00    -0.267 OA
HETATM   11 Cl   UNK N   1      38.913  12.762  10.640  0.00  0.00    -0.083 Cl
ENDROOT
BRANCH   5  12
HETATM   12  C   UNK N   1      35.010  16.109   9.501  0.00  0.00     0.111 A 
HETATM   13  C   UNK N   1      34.483  15.889   8.247  0.00  0.00     0.077 A 
HETATM   14  C   UNK N   1      34.050  17.133   7.851  0.00  0.00     0.125 A 
HETATM   15  N   UNK N   1      34.314  18.029   8.825  0.00  0.00    -0.255 N 
HETATM   16  O   UNK N   1      34.887  17.382   9.801  0.00  0.00    -0.237 OA
ATOM     17  HN  UNK N   1      34.104  19.027   8.803  1.00  0.00     0.195 HD
BRANCH  14  18
HETATM   18  C   UNK N   1      33.387  17.402   6.547  0.00  0.00     0.271 C 
HETATM   19  O   UNK N   1      34.078  17.843   5.637  0.00  0.00    -0.266 OA
HETATM   20  N   UNK N   1      32.056  17.175   6.326  0.00  0.00    -0.355 N 
HETATM   21  C   UNK N   1      31.481  17.455   5.032  0.00  0.00     0.152 C 
HETATM   22  C   UNK N   1      31.185  16.657   7.349  0.00  0.00     0.152 C 
ENDBRANCH  14  18
ENDBRANCH   5  12
BRANCH   1  23
HETATM   23  C   UNK N   1      35.831  11.651  15.399  0.00  0.00     0.088 C 
HETATM   24  C   UNK N   1      35.646  12.625  16.563  0.00  0.00     0.033 C 
BRANCH  23  25
HETATM   25  C   UNK N   1      34.734  10.593  15.443  0.00  0.00     0.008 A 
HETATM   26  C   UNK N   1      34.940   9.611  14.307  0.00  0.00     0.007 A 
HETATM   27  C   UNK N   1      35.341   9.227  15.714  0.00  0.00     0.007 A 
ENDBRANCH  23  25
ENDBRANCH   1  23
TORSDOF 4
ENDMDL
MODEL 3
REMARK VINA RESULT:      -7.1      3.908     10.263
REMARK  4 active torsions:
REMARK  status: ('A' for Active; 'I' for Inactive)
REMARK    1  A    between atoms: C_2  and  C_3 
REMARK    2  A    between atoms: C_2  and  N_6 
REMARK    3  A    between atoms: C_10  and  C_17 
REMARK    4  A    between atoms: C_19  and  C_23 
REMARK       I    between atoms: C_23  and  N_25 
ROOT
HETATM    1  N   UNK N   1      31.126  16.457   6.048  0.00  0.00    -0.339 N 
HETATM    2  C   UNK N   1      30.557  16.845   4.761  0.00  0.00     0.166 A 
HETATM    3  C   UNK N   1      29.381  17.669   5.202  0.00  0.00    -0.022 A 
HETATM    4  C   UNK N   1      28.431  18.264   4.392  0.00  0.00     0.024 A 
HETATM    5  C   UNK N   1      27.374  18.973   4.984  0.00  0.00     0.002 A 
HETATM    6  C   UNK N   1      27.302  19.081   6.393  0.00  0.00     0.039 A 
HETATM    7  C   UNK N   1      28.283  18.467   7.201  0.00  0.00     0.051 A 
HETATM    8  C   UNK N   1      29.311  17.754   6.567  0.00  0.00     0.061 A 
HETATM    9  C   UNK N   1      30.417  16.985   7.073  0.00  0.00     0.256 A 
HETATM   10  O   UNK N   1      30.669  16.792   8.254  0.00  0.00    -0.267 OA
HETATM   11 Cl   UNK N   1      28.184  18.580   8.949  0.00  0.00    -0.083 Cl
ENDROOT
BRANCH   5  12
HETATM   12  C   UNK N   1      26.341  19.547   4.110  0.00  0.00     0.111 A 
HETATM   13  C   UNK N   1      24.986  19.474   4.350  0.00  0.00     0.077 A 
HETATM   14  C   UNK N   1      24.431  20.174   3.304  0.00  0.00     0.125 A 
HETATM   15  N   UNK N   1      25.415  20.628   2.498  0.00  0.00    -0.255 N 
HETATM   16  O   UNK N   1      26.547  20.237   3.011  0.00  0.00    -0.237 OA
ATOM     17  HN  UNK N   1      25.295  21.177   1.647  1.00  0.00     0.195 HD
BRANCH  14  18
HETATM   18  C   UNK N   1      22.968  20.385   3.133  0.00  0.00     0.271 C 
HETATM   19  O   UNK N   1      22.590  21.498   2.789  0.00  0.00    -0.266 OA
HETATM   20  N   UNK N   1      22.044  19.398   3.339  0.00  0.00    -0.355 N 
HETATM   21  C   UNK N   1      20.640  19.674   3.151  0.00  0.00     0.152 C 
HETATM   22  C   UNK N   1      22.417  18.068   3.744  0.00  0.00     0.152 C 
ENDBRANCH  14  18
ENDBRANCH   5  12
BRANCH   1  23
HETATM   23  C   UNK N   1      32.262  15.554   6.193  0.00  0.00     0.088 C 
HETATM   24  C   UNK N   1      32.024  14.230   5.467  0.00  0.00     0.033 C 
BRANCH  23  25
HETATM   25  C   UNK N   1      33.554  16.186   5.688  0.00  0.00     0.008 A 
HETATM   26  C   UNK N   1      33.857  17.426   6.504  0.00  0.00     0.007 A 
HETATM   27  C   UNK N   1      34.612  16.145   6.778  0.00  0.00     0.007 A 
ENDBRANCH  23  25
ENDBRANCH   1  23
TORSDOF 4
ENDMDL
MODEL 4
REMARK VINA RESULT:      -6.8      5.314     11.826
REMARK  4 active torsions:
REMARK  status: ('A' for Active; 'I' for Inactive)
REMARK    1  A    between atoms: C_2  and  C_3 
REMARK    2  A    between atoms: C_2  and  N_6 
REMARK    3  A    between atoms: C_10  and  C_17 
REMARK    4  A    between atoms: C_19  and  C_23 
REMARK       I    between atoms: C_23  and  N_25 
ROOT
HETATM    1  N   UNK N   1      35.830  10.866  17.418  0.00  0.00    -0.339 N 
HETATM    2  C   UNK N   1      35.280  12.007  16.692  0.00  0.00     0.166 A 
HETATM    3  C   UNK N   1      36.029  11.912  15.394  0.00  0.00    -0.022 A 
HETATM    4  C   UNK N   1      35.950  12.782  14.322  0.00  0.00     0.024 A 
HETATM    5  C   UNK N   1      36.756  12.554  13.195  0.00  0.00     0.002 A 
HETATM    6  C   UNK N   1      37.624  11.436  13.165  0.00  0.00     0.039 A 
HETATM    7  C   UNK N   1      37.688  10.561  14.271  0.00  0.00     0.051 A 
HETATM    8  C   UNK N   1      36.878  10.837  15.381  0.00  0.00     0.061 A 
HETATM    9  C   UNK N   1      36.733  10.198  16.663  0.00  0.00     0.256 A 
HETATM   10  O   UNK N   1      37.358   9.219  17.045  0.00  0.00    -0.267 OA
HETATM   11 Cl   UNK N   1      38.779   9.188  14.246  0.00  0.00    -0.083 Cl
ENDROOT
BRANCH   5  12
HETATM   12  C   UNK N   1      36.703  13.522  12.091  0.00  0.00     0.111 A 
HETATM   13  C   UNK N   1      35.697  14.447  11.910  0.00  0.00     0.077 A 
HETATM   14  C   UNK N   1      36.093  15.146  10.793  0.00  0.00     0.125 A 
HETATM   15  N   UNK N   1      37.267  14.650  10.348  0.00  0.00    -0.255 N 
HETATM   16  O   UNK N   1      37.606  13.680  11.150  0.00  0.00    -0.237 OA
ATOM     17  HN  UNK N   1      37.793  14.975   9.537  1.00  0.00     0.195 HD
BRANCH  14  18
HETATM   18  C   UNK N   1      35.322  16.275  10.208  0.00  0.00     0.271 C 
HETATM   19  O   UNK N   1      35.608  17.409  10.571  0.00  0.00    -0.266 OA
HETATM   20  N   UNK N   1      34.322  16.100   9.290  0.00  0.00    -0.355 N 
HETATM   21  C   UNK N   1      33.619  17.244   8.762  0.00  0.00     0.152 C 
HETATM   22  C   UNK N   1      33.934  14.796   8.818  0.00  0.00     0.152 C 
ENDBRANCH  14  18
ENDBRANCH   5  12
BRANCH   1  23
HETATM   23  C   UNK N   1      35.496  10.548  18.802  0.00  0.00     0.088 C 
HETATM   24  C   UNK N   1      35.368  11.812  19.653  0.00  0.00     0.033 C 
BRANCH  23  25
HETATM   25  C   UNK N   1      34.211   9.735  18.902  0.00  0.00     0.008 A 
HETATM   26  C   UNK N   1      34.518   8.277  18.622  0.00  0.00     0.007 A 
HETATM   27  C   UNK N   1      34.314   8.741  20.046  0.00  0.00     0.007 A 
ENDBRANCH  23  25
ENDBRANCH   1  23
TORSDOF 4
ENDMDL
MODEL 5
REMARK VINA RESULT:      -6.7      7.282     13.503
REMARK  4 active torsions:
REMARK  status: ('A' for Active; 'I' for Inactive)
REMARK    1  A    between atoms: C_2  and  C_3 
REMARK    2  A    between atoms: C_2  and  N_6 
REMARK    3  A    between atoms: C_10  and  C_17 
REMARK    4  A    between atoms: C_19  and  C_23 
REMARK       I    between atoms: C_23  and  N_25 
ROOT
HETATM    1  N   UNK N   1      35.180   9.021  19.182  0.00  0.00    -0.339 N 
HETATM    2  C   UNK N   1      35.627   9.154  17.799  0.00  0.00     0.166 A 
HETATM    3  C   UNK N   1      35.588  10.645  17.625  0.00  0.00    -0.022 A 
HETATM    4  C   UNK N   1      35.868  11.355  16.472  0.00  0.00     0.024 A 
HETATM    5  C   UNK N   1      35.745  12.754  16.484  0.00  0.00     0.002 A 
HETATM    6  C   UNK N   1      35.352  13.416  17.671  0.00  0.00     0.039 A 
HETATM    7  C   UNK N   1      35.072  12.670  18.837  0.00  0.00     0.051 A 
HETATM    8  C   UNK N   1      35.191  11.275  18.774  0.00  0.00     0.061 A 
HETATM    9  C   UNK N   1      34.941  10.233  19.735  0.00  0.00     0.256 A 
HETATM   10  O   UNK N   1      34.533  10.399  20.875  0.00  0.00    -0.267 OA
HETATM   11 Cl   UNK N   1      34.563  13.486  20.304  0.00  0.00    -0.083 Cl
ENDROOT
BRANCH   5  12
HETATM   12  C   UNK N   1      35.987  13.487  15.234  0.00  0.00     0.111 A 
HETATM   13  C   UNK N   1      35.337  13.241  14.044  0.00  0.00     0.077 A 
HETATM   14  C   UNK N   1      35.854  14.184  13.186  0.00  0.00     0.125 A 
HETATM   15  N   UNK N   1      36.760  14.937  13.845  0.00  0.00    -0.255 N 
HETATM   16  O   UNK N   1      36.814  14.495  15.070  0.00  0.00    -0.237 OA
ATOM     17  HN  UNK N   1      37.300  15.710  13.457  1.00  0.00     0.195 HD
BRANCH  14  18
HETATM   18  C   UNK N   1      35.440  14.324  11.764  0.00  0.00     0.271 C 
HETATM   19  O   UNK N   1      34.366  14.864  11.534  0.00  0.00    -0.266 OA
HETATM   20  N   UNK N   1      36.204  13.882  10.719  0.00  0.00    -0.355 N 
HETATM   21  C   UNK N   1      35.741  14.056   9.363  0.00  0.00     0.152 C 
HETATM   22  C   UNK N   1      37.478  13.240  10.916  0.00  0.00     0.152 C 
ENDBRANCH  14  18
ENDBRANCH   5  12
BRANCH   1  23
HETATM   23  C   UNK N   1      34.950   7.739  19.840  0.00  0.00     0.088 C 
HETATM   24  C   UNK N   1      33.780   6.985  19.208  0.00  0.00     0.033 C 
BRANCH  23  25
HETATM   25  C   UNK N   1      36.195   6.860  19.817  0.00  0.00     0.008 A 
HETATM   26  C   UNK N   1      37.302   7.539  20.598  0.00  0.00     0.007 A 
HETATM   27  C   UNK N   1      36.531   6.399  21.224  0.00  0.00     0.007 A 
ENDBRANCH  23  25
ENDBRANCH   1  23
TORSDOF 4
ENDMDL
MODEL 6
REMARK VINA RESULT:      -6.7      6.129     12.820
REMARK  4 active torsions:
REMARK  status: ('A' for Active; 'I' for Inactive)
REMARK    1  A    between atoms: C_2  and  C_3 
REMARK    2  A    between atoms: C_2  and  N_6 
REMARK    3  A    between atoms: C_10  and  C_17 
REMARK    4  A    between atoms: C_19  and  C_23 
REMARK       I    between atoms: C_23  and  N_25 
ROOT
HETATM    1  N   UNK N   1      35.695   9.832  18.426  0.00  0.00    -0.339 N 
HETATM    2  C   UNK N   1      36.165   9.645  17.056  0.00  0.00     0.166 A 
HETATM    3  C   UNK N   1      36.110  11.053  16.537  0.00  0.00    -0.022 A 
HETATM    4  C   UNK N   1      36.401  11.479  15.254  0.00  0.00     0.024 A 
HETATM    5  C   UNK N   1      36.259  12.840  14.936  0.00  0.00     0.002 A 
HETATM    6  C   UNK N   1      35.836  13.754  15.930  0.00  0.00     0.039 A 
HETATM    7  C   UNK N   1      35.545  13.297  17.233  0.00  0.00     0.051 A 
HETATM    8  C   UNK N   1      35.683  11.928  17.501  0.00  0.00     0.061 A 
HETATM    9  C   UNK N   1      35.430  11.136  18.676  0.00  0.00     0.256 A 
HETATM   10  O   UNK N   1      35.000  11.557  19.739  0.00  0.00    -0.267 OA
HETATM   11 Cl   UNK N   1      34.998  14.424  18.461  0.00  0.00    -0.083 Cl
ENDROOT
BRANCH   5  12
HETATM   12  C   UNK N   1      36.514  13.264  13.553  0.00  0.00     0.111 A 
HETATM   13  C   UNK N   1      35.835  14.275  12.907  0.00  0.00     0.077 A 
HETATM   14  C   UNK N   1      36.437  14.336  11.671  0.00  0.00     0.125 A 
HETATM   15  N   UNK N   1      37.414  13.406  11.604  0.00  0.00    -0.255 N 
HETATM   16  O   UNK N   1      37.435  12.783  12.748  0.00  0.00    -0.237 OA
ATOM     17  HN  UNK N   1      38.023  13.226  10.806  1.00  0.00     0.195 HD
BRANCH  14  18
HETATM   18  C   UNK N   1      36.048  15.302  10.609  0.00  0.00     0.271 C 
HETATM   19  O   UNK N   1      36.567  16.411  10.630  0.00  0.00    -0.266 OA
HETATM   20  N   UNK N   1      35.150  15.002   9.621  0.00  0.00    -0.355 N 
HETATM   21  C   UNK N   1      34.824  15.989   8.620  0.00  0.00     0.152 C 
HETATM   22  C   UNK N   1      34.503  13.719   9.535  0.00  0.00     0.152 C 
ENDBRANCH  14  18
ENDBRANCH   5  12
BRANCH   1  23
HETATM   23  C   UNK N   1      35.471   8.736  19.362  0.00  0.00     0.088 C 
HETATM   24  C   UNK N   1      34.464   7.725  18.813  0.00  0.00     0.033 C 
BRANCH  23  25
HETATM   25  C   UNK N   1      36.769   8.021  19.717  0.00  0.00     0.008 A 
HETATM   26  C   UNK N   1      37.733   9.012  20.338  0.00  0.00     0.007 A 
HETATM   27  C   UNK N   1      36.979   8.043  21.222  0.00  0.00     0.007 A 
ENDBRANCH  23  25
ENDBRANCH   1  23
TORSDOF 4
ENDMDL
MODEL 7
REMARK VINA RESULT:      -6.6      3.928     10.512
REMARK  4 active torsions:
REMARK  status: ('A' for Active; 'I' for Inactive)
REMARK    1  A    between atoms: C_2  and  C_3 
REMARK    2  A    between atoms: C_2  and  N_6 
REMARK    3  A    between atoms: C_10  and  C_17 
REMARK    4  A    between atoms: C_19  and  C_23 
REMARK       I    between atoms: C_23  and  N_25 
ROOT
HETATM    1  N   UNK N   1      36.463  10.751  13.446  0.00  0.00    -0.339 N 
HETATM    2  C   UNK N   1      36.102  11.147  12.088  0.00  0.00     0.166 A 
HETATM    3  C   UNK N   1      36.111  12.643  12.211  0.00  0.00    -0.022 A 
HETATM    4  C   UNK N   1      35.788  13.561  11.229  0.00  0.00     0.024 A 
HETATM    5  C   UNK N   1      35.818  14.931  11.535  0.00  0.00     0.002 A 
HETATM    6  C   UNK N   1      36.190  15.353  12.834  0.00  0.00     0.039 A 
HETATM    7  C   UNK N   1      36.517  14.398  13.821  0.00  0.00     0.051 A 
HETATM    8  C   UNK N   1      36.457  13.041  13.476  0.00  0.00     0.061 A 
HETATM    9  C   UNK N   1      36.672  11.835  14.230  0.00  0.00     0.256 A 
HETATM   10  O   UNK N   1      36.961  11.779  15.416  0.00  0.00    -0.267 OA
HETATM   11 Cl   UNK N   1      36.957  14.918  15.438  0.00  0.00    -0.083 Cl
ENDROOT
BRANCH   5  12
HETATM   12  C   UNK N   1      35.413  15.888  10.497  0.00  0.00     0.111 A 
HETATM   13  C   UNK N   1      34.850  15.539   9.288  0.00  0.00     0.077 A 
HETATM   14  C   UNK N   1      34.605  16.748   8.679  0.00  0.00     0.125 A 
HETATM   15  N   UNK N   1      35.008  17.747   9.493  0.00  0.00    -0.255 N 
HETATM   16  O   UNK N   1      35.484  17.198  10.575  0.00  0.00    -0.237 OA
ATOM     17  HN  UNK N   1      34.949  18.747   9.299  1.00  0.00     0.195 HD
BRANCH  14  18
HETATM   18  C   UNK N   1      33.981  16.886   7.337  0.00  0.00     0.271 C 
HETATM   19  O   UNK N   1      34.703  16.755   6.356  0.00  0.00    -0.266 OA
HETATM   20  N   UNK N   1      32.650  17.147   7.156  0.00  0.00    -0.355 N 
HETATM   21  C   UNK N   1      32.112  17.264   5.822  0.00  0.00     0.152 C 
HETATM   22  C   UNK N   1      31.743  17.311   8.262  0.00  0.00     0.152 C 
ENDBRANCH  14  18
ENDBRANCH   5  12
BRANCH   1  23
HETATM   23  C   UNK N   1      36.509   9.366  13.902  0.00  0.00     0.088 C 
HETATM   24  C   UNK N   1      35.303   8.570  13.404  0.00  0.00     0.033 C 
BRANCH  23  25
HETATM   25  C   UNK N   1      37.793   8.670  13.466  0.00  0.00     0.008 A 
HETATM   26  C   UNK N   1      38.956   9.215  14.270  0.00  0.00     0.007 A 
HETATM   27  C   UNK N   1      38.367   7.868  14.621  0.00  0.00     0.007 A 
ENDBRANCH  23  25
ENDBRANCH   1  23
TORSDOF 4
ENDMDL
MODEL 8
REMARK VINA RESULT:      -6.6      2.814      9.228
REMARK  4 active torsions:
REMARK  status: ('A' for Active; 'I' for Inactive)
REMARK    1  A    between atoms: C_2  and  C_3 
REMARK    2  A    between atoms: C_2  and  N_6 
REMARK    3  A    between atoms: C_10  and  C_17 
REMARK    4  A    between atoms: C_19  and  C_23 
REMARK       I    between atoms: C_23  and  N_25 
ROOT
HETATM    1  N   UNK N   1      32.959  16.161   7.766  0.00  0.00    -0.339 N 
HETATM    2  C   UNK N   1      31.689  16.619   8.321  0.00  0.00     0.166 A 
HETATM    3  C   UNK N   1      30.969  17.051   7.076  0.00  0.00    -0.022 A 
HETATM    4  C   UNK N   1      29.714  17.628   6.998  0.00  0.00     0.024 A 
HETATM    5  C   UNK N   1      29.211  18.003   5.742  0.00  0.00     0.002 A 
HETATM    6  C   UNK N   1      29.983  17.776   4.578  0.00  0.00     0.039 A 
HETATM    7  C   UNK N   1      31.260  17.185   4.682  0.00  0.00     0.051 A 
HETATM    8  C   UNK N   1      31.730  16.842   5.957  0.00  0.00     0.061 A 
HETATM    9  C   UNK N   1      32.973  16.283   6.418  0.00  0.00     0.256 A 
HETATM   10  O   UNK N   1      33.929  15.993   5.713  0.00  0.00    -0.267 OA
HETATM   11 Cl   UNK N   1      32.228  16.922   3.243  0.00  0.00    -0.083 Cl
ENDROOT
BRANCH   5  12
HETATM   12  C   UNK N   1      27.903  18.670   5.685  0.00  0.00     0.111 A 
HETATM   13  C   UNK N   1      27.052  18.632   4.601  0.00  0.00     0.077 A 
HETATM   14  C   UNK N   1      25.956  19.350   5.020  0.00  0.00     0.125 A 
HETATM   15  N   UNK N   1      26.161  19.783   6.282  0.00  0.00    -0.255 N 
HETATM   16  O   UNK N   1      27.336  19.357   6.651  0.00  0.00    -0.237 OA
ATOM     17  HN  UNK N   1      25.517  20.340   6.843  1.00  0.00     0.195 HD
BRANCH  14  18
HETATM   18  C   UNK N   1      24.747  19.577   4.183  0.00  0.00     0.271 C 
HETATM   19  O   UNK N   1      24.778  20.498   3.377  0.00  0.00    -0.266 OA
HETATM   20  N   UNK N   1      23.620  18.806   4.275  0.00  0.00    -0.355 N 
HETATM   21  C   UNK N   1      22.486  19.084   3.428  0.00  0.00     0.152 C 
HETATM   22  C   UNK N   1      23.515  17.708   5.199  0.00  0.00     0.152 C 
ENDBRANCH  14  18
ENDBRANCH   5  12
BRANCH   1  23
HETATM   23  C   UNK N   1      34.083  15.710   8.580  0.00  0.00     0.088 C 
HETATM   24  C   UNK N   1      34.632  16.836   9.454  0.00  0.00     0.033 C 
BRANCH  23  25
HETATM   25  C   UNK N   1      33.705  14.522   9.457  0.00  0.00     0.008 A 
HETATM   26  C   UNK N   1      33.218  13.387   8.580  0.00  0.00     0.007 A 
HETATM   27  C   UNK N   1      34.615  13.344   9.156  0.00  0.00     0.007 A 
ENDBRANCH  23  25
ENDBRANCH   1  23
TORSDOF 4
ENDMDL
MODEL 9
REMARK VINA RESULT:      -6.5      3.159      4.884
REMARK  4 active torsions:
REMARK  status: ('A' for Active; 'I' for Inactive)
REMARK    1  A    between atoms: C_2  and  C_3 
REMARK    2  A    between atoms: C_2  and  N_6 
REMARK    3  A    between atoms: C_10  and  C_17 
REMARK    4  A    between atoms: C_19  and  C_23 
REMARK       I    between atoms: C_23  and  N_25 
ROOT
HETATM    1  N   UNK N   1      32.234  15.667   7.449  0.00  0.00    -0.339 N 
HETATM    2  C   UNK N   1      32.827  16.250   8.649  0.00  0.00     0.166 A 
HETATM    3  C   UNK N   1      33.480  15.045   9.263  0.00  0.00    -0.022 A 
HETATM    4  C   UNK N   1      34.162  14.991  10.465  0.00  0.00     0.024 A 
HETATM    5  C   UNK N   1      34.681  13.761  10.902  0.00  0.00     0.002 A 
HETATM    6  C   UNK N   1      34.512  12.604  10.106  0.00  0.00     0.039 A 
HETATM    7  C   UNK N   1      33.813  12.683   8.882  0.00  0.00     0.051 A 
HETATM    8  C   UNK N   1      33.297  13.928   8.493  0.00  0.00     0.061 A 
HETATM    9  C   UNK N   1      32.513  14.345   7.361  0.00  0.00     0.256 A 
HETATM   10  O   UNK N   1      32.113  13.617   6.465  0.00  0.00    -0.267 OA
HETATM   11 Cl   UNK N   1      33.583  11.245   7.903  0.00  0.00    -0.083 Cl
ENDROOT
BRANCH   5  12
HETATM   12  C   UNK N   1      35.349  13.710  12.210  0.00  0.00     0.111 A 
HETATM   13  C   UNK N   1      34.925  12.945  13.275  0.00  0.00     0.077 A 
HETATM   14  C   UNK N   1      35.868  13.186  14.247  0.00  0.00     0.125 A 
HETATM   15  N   UNK N   1      36.791  14.048  13.769  0.00  0.00    -0.255 N 
HETATM   16  O   UNK N   1      36.452  14.340  12.545  0.00  0.00    -0.237 OA
ATOM     17  HN  UNK N   1      37.604  14.403  14.272  1.00  0.00     0.195 HD
BRANCH  14  18
HETATM   18  C   UNK N   1      35.843  12.561  15.596  0.00  0.00     0.271 C 
HETATM   19  O   UNK N   1      35.300  13.182  16.501  0.00  0.00    -0.266 OA
HETATM   20  N   UNK N   1      36.392  11.336  15.862  0.00  0.00    -0.355 N 
HETATM   21  C   UNK N   1      36.327  10.790  17.196  0.00  0.00     0.152 C 
HETATM   22  C   UNK N   1      37.045  10.551  14.847  0.00  0.00     0.152 C 
ENDBRANCH  14  18
ENDBRANCH   5  12
BRANCH   1  23
HETATM   23  C   UNK N   1      31.389  16.409   6.520  0.00  0.00     0.088 C 
HETATM   24  C   UNK N   1      30.162  16.992   7.219  0.00  0.00     0.033 C 
BRANCH  23  25
HETATM   25  C   UNK N   1      32.158  17.526   5.825  0.00  0.00     0.008 A 
HETATM   26  C   UNK N   1      33.298  16.928   5.026  0.00  0.00     0.007 A 
HETATM   27  C   UNK N   1      32.040  17.378   4.317  0.00  0.00     0.007 A 
ENDBRANCH  23  25
ENDBRANCH   1  23
TORSDOF 4
ENDMDL
