MODEL 1
REMARK VINA RESULT:      -8.3      0.000      0.000
REMARK  11 active torsions:
REMARK  status: ('A' for Active; 'I' for Inactive)
REMARK    1  A    between atoms: C_2  and  O_3 
REMARK    2  A    between atoms: O_3  and  C_4 
REMARK    3  A    between atoms: C_9  and  N_10 
REMARK       I    between atoms: N_10  and  C_11 
REMARK    4  A    between atoms: C_11  and  C_13 
REMARK    5  A    between atoms: C_14  and  C_15 
REMARK    6  A    between atoms: C_15  and  N_16 
REMARK    7  A    between atoms: C_19  and  N_26 
REMARK    8  A    between atoms: N_26  and  C_27 
REMARK    9  A    between atoms: C_30  and  O_34 
REMARK   10  A    between atoms: O_34  and  C_35 
REMARK   11  A    between atoms: C_35  and  C_36 
ROOT
HETATM    1  C   UNK N   1      21.729  15.065   6.148  0.00  0.00     0.097 C 
HETATM    2  C   UNK N   1      20.860  15.494   5.114  0.00  0.00     0.069 C 
HETATM    3  C   UNK N   1      21.215  16.481   4.279  0.00  0.00     0.047 C 
HETATM    4  C   UNK N   1      22.460  16.983   4.447  0.00  0.00     0.021 C 
HETATM    5  C   UNK N   1      23.417  16.315   5.174  0.00  0.00     0.048 C 
HETATM    6  C   UNK N   1      23.149  15.357   6.042  0.00  0.00     0.069 C 
HETATM    7  C   UNK N   1      22.706  18.265   4.112  0.00  0.00     0.064 C 
HETATM    8  C   UNK N   1      21.762  19.012   3.410  0.00  0.00     0.087 C 
HETATM    9  C   UNK N   1      20.540  18.410   3.110  0.00  0.00     0.113 C 
HETATM   10  N   UNK N   1      20.268  17.168   3.593  0.00  0.00    -0.364 N 
ATOM     11  HN  UNK N   1      19.350  16.752   3.439  1.00  0.00     0.165 HD
HETATM   12  C   UNK N   1      22.015  20.345   2.963  0.00  0.00     0.103 C 
HETATM   13  N   UNK N   1      22.180  21.424   2.582  0.00  0.00    -0.191 NA
ENDROOT
BRANCH   7  14
HETATM   14  N   UNK N   1      23.893  18.791   4.621  0.00  0.00    -0.377 N 
HETATM   15  H   UNK N   1      24.062  18.851   5.589  0.00  0.00     0.160 HD
BRANCH  14  16
HETATM   16  C   UNK N   1      24.827  19.228   3.682  0.00  0.00     0.130 C 
HETATM   17  C   UNK N   1      25.537  18.153   3.193  0.00  0.00     0.005 C 
HETATM   18  C   UNK N   1      26.624  17.772   3.912  0.00  0.00     0.037 C 
HETATM   19  C   UNK N   1      26.993  18.570   4.984  0.00  0.00     0.090 C 
HETATM   20  C   UNK N   1      26.392  19.842   5.218  0.00  0.00     0.066 C 
HETATM   21  C   UNK N   1      25.475  20.250   4.316  0.00  0.00     0.028 C 
HETATM   22 Cl   UNK N   1      26.699  20.944   6.552  0.00  0.00    -0.082 Cl
BRANCH  19  23
HETATM   23  O   UNK N   1      28.098  18.265   5.551  0.00  0.00    -0.345 OA
BRANCH  23  24
HETATM   24  C   UNK N   1      28.035  17.038   6.127  0.00  0.00     0.214 C 
BRANCH  24  25
HETATM   25  C   UNK N   1      28.726  17.233   7.326  0.00  0.00    -0.031 A 
HETATM   26  C   UNK N   1      27.972  17.657   8.385  0.00  0.00     0.009 A 
HETATM   27  C   UNK N   1      28.613  18.214   9.472  0.00  0.00     0.004 A 
HETATM   28  C   UNK N   1      30.007  18.374   9.456  0.00  0.00     0.042 A 
HETATM   29  C   UNK N   1      30.758  17.937   8.362  0.00  0.00     0.117 A 
HETATM   30  C   UNK N   1      30.112  17.373   7.294  0.00  0.00     0.051 A 
HETATM   31  F   UNK N   1      32.096  18.118   8.308  0.00  0.00    -0.206 F 
ENDBRANCH  24  25
ENDBRANCH  23  24
ENDBRANCH  19  23
ENDBRANCH  14  16
ENDBRANCH   7  14
BRANCH   6  32
HETATM   32  N   UNK N   1      24.329  15.080   6.809  0.00  0.00    -0.321 N 
HETATM   33  C   UNK N   1      24.787  14.153   7.666  0.00  0.00     0.245 C 
HETATM   34  O   UNK N   1      25.884  14.309   8.179  0.00  0.00    -0.268 OA
HETATM   35  H   UNK N   1      25.006  15.780   6.664  0.00  0.00     0.169 HD
BRANCH  33  36
HETATM   36  C   UNK N   1      23.997  13.030   8.051  0.00  0.00     0.072 C 
HETATM   37  C   UNK N   1      23.650  12.830   9.300  0.00  0.00     0.008 C 
BRANCH  37  38
HETATM   38  C   UNK N   1      23.194  11.463   9.589  0.00  0.00     0.299 C 
BRANCH  38  39
HETATM   39  N   UNK N   1      22.658  11.318  10.919  0.00  0.00     0.083 N 
HETATM   40  C   UNK N   1      21.536  12.216  11.042  0.00  0.00     0.309 C 
HETATM   41  C   UNK N   1      23.656  11.979  11.713  0.00  0.00     0.309 C 
ENDBRANCH  38  39
ENDBRANCH  37  38
ENDBRANCH  33  36
ENDBRANCH   6  32
BRANCH   1  42
HETATM   42  O   UNK N   1      21.107  14.619   7.251  0.00  0.00    -0.349 OA
BRANCH  42  43
HETATM   43  C   UNK N   1      20.899  15.485   8.338  0.00  0.00     0.171 C 
HETATM   44  C   UNK N   1      19.900  14.921   9.374  0.00  0.00     0.034 C 
ENDBRANCH  42  43
ENDBRANCH   1  42
TORSDOF 11
ENDMDL
MODEL 2
REMARK VINA RESULT:      -8.0      4.655      6.639
REMARK  11 active torsions:
REMARK  status: ('A' for Active; 'I' for Inactive)
REMARK    1  A    between atoms: C_2  and  O_3 
REMARK    2  A    between atoms: O_3  and  C_4 
REMARK    3  A    between atoms: C_9  and  N_10 
REMARK       I    between atoms: N_10  and  C_11 
REMARK    4  A    between atoms: C_11  and  C_13 
REMARK    5  A    between atoms: C_14  and  C_15 
REMARK    6  A    between atoms: C_15  and  N_16 
REMARK    7  A    between atoms: C_19  and  N_26 
REMARK    8  A    between atoms: N_26  and  C_27 
REMARK    9  A    between atoms: C_30  and  O_34 
REMARK   10  A    between atoms: O_34  and  C_35 
REMARK   11  A    between atoms: C_35  and  C_36 
ROOT
HETATM    1  C   UNK N   1      19.133  13.991   1.685  0.00  0.00     0.097 C 
HETATM    2  C   UNK N   1      19.535  15.014   0.790  0.00  0.00     0.069 C 
HETATM    3  C   UNK N   1      20.149  16.119   1.237  0.00  0.00     0.047 C 
HETATM    4  C   UNK N   1      20.412  16.158   2.563  0.00  0.00     0.021 C 
HETATM    5  C   UNK N   1      20.375  15.025   3.342  0.00  0.00     0.048 C 
HETATM    6  C   UNK N   1      19.763  13.910   2.993  0.00  0.00     0.069 C 
HETATM    7  C   UNK N   1      20.471  17.350   3.190  0.00  0.00     0.064 C 
HETATM    8  C   UNK N   1      20.471  18.538   2.462  0.00  0.00     0.087 C 
HETATM    9  C   UNK N   1      20.359  18.458   1.074  0.00  0.00     0.113 C 
HETATM   10  N   UNK N   1      20.151  17.249   0.488  0.00  0.00    -0.364 N 
ATOM     11  HN  UNK N   1      19.995  17.191  -0.519  1.00  0.00     0.165 HD
HETATM   12  C   UNK N   1      20.616  19.818   3.080  0.00  0.00     0.103 C 
HETATM   13  N   UNK N   1      20.732  20.872   3.541  0.00  0.00    -0.191 NA
ENDROOT
BRANCH   7  14
HETATM   14  N   UNK N   1      20.408  17.289   4.581  0.00  0.00    -0.377 N 
HETATM   15  H   UNK N   1      19.619  16.935   5.052  0.00  0.00     0.160 HD
BRANCH  14  16
HETATM   16  C   UNK N   1      21.526  17.759   5.271  0.00  0.00     0.130 C 
HETATM   17  C   UNK N   1      22.547  16.837   5.191  0.00  0.00     0.005 C 
HETATM   18  C   UNK N   1      22.542  15.850   6.124  0.00  0.00     0.037 C 
HETATM   19  C   UNK N   1      21.600  15.935   7.138  0.00  0.00     0.090 C 
HETATM   20  C   UNK N   1      20.796  17.097   7.324  0.00  0.00     0.066 C 
HETATM   21  C   UNK N   1      21.028  18.130   6.488  0.00  0.00     0.028 C 
HETATM   22 Cl   UNK N   1      19.526  17.343   8.512  0.00  0.00    -0.082 Cl
BRANCH  19  23
HETATM   23  O   UNK N   1      21.713  15.071   8.075  0.00  0.00    -0.345 OA
BRANCH  23  24
HETATM   24  C   UNK N   1      20.777  14.096   7.963  0.00  0.00     0.214 C 
BRANCH  24  25
HETATM   25  C   UNK N   1      21.325  13.063   8.728  0.00  0.00    -0.031 A 
HETATM   26  C   UNK N   1      21.120  13.150  10.078  0.00  0.00     0.009 A 
HETATM   27  C   UNK N   1      21.917  12.399  10.917  0.00  0.00     0.004 A 
HETATM   28  C   UNK N   1      22.939  11.601  10.383  0.00  0.00     0.042 A 
HETATM   29  C   UNK N   1      23.134  11.529   9.001  0.00  0.00     0.117 A 
HETATM   30  C   UNK N   1      22.328  12.270   8.177  0.00  0.00     0.051 A 
HETATM   31  F   UNK N   1      24.138  10.800   8.467  0.00  0.00    -0.206 F 
ENDBRANCH  24  25
ENDBRANCH  23  24
ENDBRANCH  19  23
ENDBRANCH  14  16
ENDBRANCH   7  14
BRANCH   6  32
HETATM   32  N   UNK N   1      19.686  13.043   4.133  0.00  0.00    -0.321 N 
HETATM   33  C   UNK N   1      20.383  12.043   4.696  0.00  0.00     0.245 C 
HETATM   34  O   UNK N   1      19.933  11.491   5.688  0.00  0.00    -0.268 OA
HETATM   35  H   UNK N   1      18.879  13.241   4.661  0.00  0.00     0.169 HD
BRANCH  33  36
HETATM   36  C   UNK N   1      21.595  11.557   4.124  0.00  0.00     0.072 C 
HETATM   37  C   UNK N   1      22.733  12.187   4.290  0.00  0.00     0.008 C 
BRANCH  37  38
HETATM   38  C   UNK N   1      23.784  11.798   3.340  0.00  0.00     0.299 C 
BRANCH  38  39
HETATM   39  N   UNK N   1      24.692  12.874   3.030  0.00  0.00     0.083 N 
HETATM   40  C   UNK N   1      23.927  14.097   2.992  0.00  0.00     0.309 C 
HETATM   41  C   UNK N   1      24.954  12.645   1.636  0.00  0.00     0.309 C 
ENDBRANCH  38  39
ENDBRANCH  37  38
ENDBRANCH  33  36
ENDBRANCH   6  32
BRANCH   1  42
HETATM   42  O   UNK N   1      18.030  13.324   1.310  0.00  0.00    -0.349 OA
BRANCH  42  43
HETATM   43  C   UNK N   1      18.080  12.442   0.218  0.00  0.00     0.171 C 
HETATM   44  C   UNK N   1      19.159  11.346   0.377  0.00  0.00     0.034 C 
ENDBRANCH  42  43
ENDBRANCH   1  42
TORSDOF 11
ENDMDL
MODEL 3
REMARK VINA RESULT:      -7.9      1.724      3.100
REMARK  11 active torsions:
REMARK  status: ('A' for Active; 'I' for Inactive)
REMARK    1  A    between atoms: C_2  and  O_3 
REMARK    2  A    between atoms: O_3  and  C_4 
REMARK    3  A    between atoms: C_9  and  N_10 
REMARK       I    between atoms: N_10  and  C_11 
REMARK    4  A    between atoms: C_11  and  C_13 
REMARK    5  A    between atoms: C_14  and  C_15 
REMARK    6  A    between atoms: C_15  and  N_16 
REMARK    7  A    between atoms: C_19  and  N_26 
REMARK    8  A    between atoms: N_26  and  C_27 
REMARK    9  A    between atoms: C_30  and  O_34 
REMARK   10  A    between atoms: O_34  and  C_35 
REMARK   11  A    between atoms: C_35  and  C_36 
ROOT
HETATM    1  C   UNK N   1      21.190  15.232   6.414  0.00  0.00     0.097 C 
HETATM    2  C   UNK N   1      20.369  15.670   5.346  0.00  0.00     0.069 C 
HETATM    3  C   UNK N   1      20.811  16.577   4.463  0.00  0.00     0.047 C 
HETATM    4  C   UNK N   1      22.091  16.985   4.621  0.00  0.00     0.021 C 
HETATM    5  C   UNK N   1      22.983  16.284   5.397  0.00  0.00     0.048 C 
HETATM    6  C   UNK N   1      22.630  15.401   6.312  0.00  0.00     0.069 C 
HETATM    7  C   UNK N   1      22.444  18.222   4.219  0.00  0.00     0.064 C 
HETATM    8  C   UNK N   1      21.570  19.002   3.463  0.00  0.00     0.087 C 
HETATM    9  C   UNK N   1      20.306  18.485   3.179  0.00  0.00     0.113 C 
HETATM   10  N   UNK N   1      19.930  17.298   3.726  0.00  0.00    -0.364 N 
ATOM     11  HN  UNK N   1      18.982  16.950   3.583  1.00  0.00     0.165 HD
HETATM   12  C   UNK N   1      21.935  20.283   2.946  0.00  0.00     0.103 C 
HETATM   13  N   UNK N   1      22.191  21.322   2.509  0.00  0.00    -0.191 NA
ENDROOT
BRANCH   7  14
HETATM   14  N   UNK N   1      23.664  18.678   4.714  0.00  0.00    -0.377 N 
HETATM   15  H   UNK N   1      23.808  18.841   5.675  0.00  0.00     0.160 HD
BRANCH  14  16
HETATM   16  C   UNK N   1      24.671  18.893   3.773  0.00  0.00     0.130 C 
HETATM   17  C   UNK N   1      25.395  17.735   3.590  0.00  0.00     0.005 C 
HETATM   18  C   UNK N   1      26.421  17.523   4.454  0.00  0.00     0.037 C 
HETATM   19  C   UNK N   1      26.726  18.540   5.346  0.00  0.00     0.090 C 
HETATM   20  C   UNK N   1      26.133  19.832   5.245  0.00  0.00     0.066 C 
HETATM   21  C   UNK N   1      25.291  20.030   4.210  0.00  0.00     0.028 C 
HETATM   22 Cl   UNK N   1      26.363  21.203   6.319  0.00  0.00    -0.082 Cl
BRANCH  19  23
HETATM   23  O   UNK N   1      27.782  18.366   6.046  0.00  0.00    -0.345 OA
BRANCH  23  24
HETATM   24  C   UNK N   1      27.696  17.241   6.800  0.00  0.00     0.214 C 
BRANCH  24  25
HETATM   25  C   UNK N   1      28.854  17.311   7.578  0.00  0.00    -0.031 A 
HETATM   26  C   UNK N   1      28.792  18.142   8.663  0.00  0.00     0.009 A 
HETATM   27  C   UNK N   1      29.971  18.545   9.254  0.00  0.00     0.004 A 
HETATM   28  C   UNK N   1      31.200  18.136   8.716  0.00  0.00     0.042 A 
HETATM   29  C   UNK N   1      31.241  17.289   7.605  0.00  0.00     0.117 A 
HETATM   30  C   UNK N   1      30.063  16.884   7.034  0.00  0.00     0.051 A 
HETATM   31  F   UNK N   1      32.413  16.915   7.046  0.00  0.00    -0.206 F 
ENDBRANCH  24  25
ENDBRANCH  23  24
ENDBRANCH  19  23
ENDBRANCH  14  16
ENDBRANCH   7  14
BRANCH   6  32
HETATM   32  N   UNK N   1      23.776  15.073   7.110  0.00  0.00    -0.321 N 
HETATM   33  C   UNK N   1      24.908  14.357   7.012  0.00  0.00     0.245 C 
HETATM   34  O   UNK N   1      25.642  14.271   7.985  0.00  0.00    -0.268 OA
HETATM   35  H   UNK N   1      23.713  15.499   7.995  0.00  0.00     0.169 HD
BRANCH  33  36
HETATM   36  C   UNK N   1      25.240  13.633   5.829  0.00  0.00     0.072 C 
HETATM   37  C   UNK N   1      26.331  13.894   5.149  0.00  0.00     0.008 C 
BRANCH  37  38
HETATM   38  C   UNK N   1      26.332  13.357   3.781  0.00  0.00     0.299 C 
BRANCH  38  39
HETATM   39  N   UNK N   1      25.801  14.282   2.812  0.00  0.00     0.083 N 
HETATM   40  C   UNK N   1      25.064  13.519   1.833  0.00  0.00     0.309 C 
HETATM   41  C   UNK N   1      26.980  14.648   2.077  0.00  0.00     0.309 C 
ENDBRANCH  38  39
ENDBRANCH  37  38
ENDBRANCH  33  36
ENDBRANCH   6  32
BRANCH   1  42
HETATM   42  O   UNK N   1      20.523  14.900   7.531  0.00  0.00    -0.349 OA
BRANCH  42  43
HETATM   43  C   UNK N   1      20.651  15.690   8.686  0.00  0.00     0.171 C 
HETATM   44  C   UNK N   1      19.598  16.820   8.763  0.00  0.00     0.034 C 
ENDBRANCH  42  43
ENDBRANCH   1  42
TORSDOF 11
ENDMDL
MODEL 4
REMARK VINA RESULT:      -7.8      3.072      7.518
REMARK  11 active torsions:
REMARK  status: ('A' for Active; 'I' for Inactive)
REMARK    1  A    between atoms: C_2  and  O_3 
REMARK    2  A    between atoms: O_3  and  C_4 
REMARK    3  A    between atoms: C_9  and  N_10 
REMARK       I    between atoms: N_10  and  C_11 
REMARK    4  A    between atoms: C_11  and  C_13 
REMARK    5  A    between atoms: C_14  and  C_15 
REMARK    6  A    between atoms: C_15  and  N_16 
REMARK    7  A    between atoms: C_19  and  N_26 
REMARK    8  A    between atoms: N_26  and  C_27 
REMARK    9  A    between atoms: C_30  and  O_34 
REMARK   10  A    between atoms: O_34  and  C_35 
REMARK   11  A    between atoms: C_35  and  C_36 
ROOT
HETATM    1  C   UNK N   1      28.277  18.908   5.030  0.00  0.00     0.097 C 
HETATM    2  C   UNK N   1      27.887  19.864   4.060  0.00  0.00     0.069 C 
HETATM    3  C   UNK N   1      26.602  20.222   3.921  0.00  0.00     0.047 C 
HETATM    4  C   UNK N   1      25.733  19.668   4.798  0.00  0.00     0.021 C 
HETATM    5  C   UNK N   1      26.161  19.062   5.955  0.00  0.00     0.048 C 
HETATM    6  C   UNK N   1      27.398  18.648   6.158  0.00  0.00     0.069 C 
HETATM    7  C   UNK N   1      24.450  19.483   4.428  0.00  0.00     0.064 C 
HETATM    8  C   UNK N   1      23.962  20.036   3.245  0.00  0.00     0.087 C 
HETATM    9  C   UNK N   1      24.851  20.742   2.435  0.00  0.00     0.113 C 
HETATM   10  N   UNK N   1      26.170  20.782   2.764  0.00  0.00    -0.364 N 
ATOM     11  HN  UNK N   1      26.837  21.234   2.139  1.00  0.00     0.165 HD
HETATM   12  C   UNK N   1      22.590  19.934   2.858  0.00  0.00     0.103 C 
HETATM   13  N   UNK N   1      21.490  19.877   2.510  0.00  0.00    -0.191 NA
ENDROOT
BRANCH   7  14
HETATM   14  N   UNK N   1      23.720  18.618   5.242  0.00  0.00    -0.377 N 
HETATM   15  H   UNK N   1      23.703  18.715   6.221  0.00  0.00     0.160 HD
BRANCH  14  16
HETATM   16  C   UNK N   1      23.015  17.606   4.590  0.00  0.00     0.130 C 
HETATM   17  C   UNK N   1      21.786  17.430   5.191  0.00  0.00     0.005 C 
HETATM   18  C   UNK N   1      21.753  16.594   6.260  0.00  0.00     0.037 C 
HETATM   19  C   UNK N   1      22.913  15.898   6.564  0.00  0.00     0.090 C 
HETATM   20  C   UNK N   1      24.041  15.896   5.691  0.00  0.00     0.066 C 
HETATM   21  C   UNK N   1      23.905  16.571   4.531  0.00  0.00     0.028 C 
HETATM   22 Cl   UNK N   1      25.597  15.123   5.952  0.00  0.00    -0.082 Cl
BRANCH  19  23
HETATM   23  O   UNK N   1      22.808  15.017   7.485  0.00  0.00    -0.345 OA
BRANCH  23  24
HETATM   24  C   UNK N   1      22.310  13.852   7.000  0.00  0.00     0.214 C 
BRANCH  24  25
HETATM   25  C   UNK N   1      21.799  13.242   8.147  0.00  0.00    -0.031 A 
HETATM   26  C   UNK N   1      20.805  13.925   8.793  0.00  0.00     0.009 A 
HETATM   27  C   UNK N   1      20.511  13.587  10.098  0.00  0.00     0.004 A 
HETATM   28  C   UNK N   1      21.255  12.592  10.748  0.00  0.00     0.042 A 
HETATM   29  C   UNK N   1      22.269  11.908  10.072  0.00  0.00     0.117 A 
HETATM   30  C   UNK N   1      22.543  12.243   8.772  0.00  0.00     0.051 A 
HETATM   31  F   UNK N   1      23.025  10.975  10.691  0.00  0.00    -0.206 F 
ENDBRANCH  24  25
ENDBRANCH  23  24
ENDBRANCH  19  23
ENDBRANCH  14  16
ENDBRANCH   7  14
BRANCH   6  32
HETATM   32  N   UNK N   1      27.428  17.829   7.335  0.00  0.00    -0.321 N 
HETATM   33  C   UNK N   1      28.271  17.518   8.332  0.00  0.00     0.245 C 
HETATM   34  O   UNK N   1      27.931  16.687   9.161  0.00  0.00    -0.268 OA
HETATM   35  H   UNK N   1      26.575  17.349   7.442  0.00  0.00     0.169 HD
BRANCH  33  36
HETATM   36  C   UNK N   1      29.582  18.075   8.410  0.00  0.00     0.072 C 
HETATM   37  C   UNK N   1      30.622  17.454   7.909  0.00  0.00     0.008 C 
BRANCH  37  38
HETATM   38  C   UNK N   1      31.916  17.945   8.405  0.00  0.00     0.299 C 
BRANCH  38  39
HETATM   39  N   UNK N   1      33.036  17.193   7.899  0.00  0.00     0.083 N 
HETATM   40  C   UNK N   1      33.385  16.203   8.888  0.00  0.00     0.309 C 
HETATM   41  C   UNK N   1      34.110  18.138   8.034  0.00  0.00     0.309 C 
ENDBRANCH  38  39
ENDBRANCH  37  38
ENDBRANCH  33  36
ENDBRANCH   6  32
BRANCH   1  42
HETATM   42  O   UNK N   1      29.338  18.162   4.683  0.00  0.00    -0.349 OA
BRANCH  42  43
HETATM   43  C   UNK N   1      29.165  16.810   4.343  0.00  0.00     0.171 C 
HETATM   44  C   UNK N   1      29.960  16.398   3.083  0.00  0.00     0.034 C 
ENDBRANCH  42  43
ENDBRANCH   1  42
TORSDOF 11
ENDMDL
MODEL 5
REMARK VINA RESULT:      -7.8      1.467      1.790
REMARK  11 active torsions:
REMARK  status: ('A' for Active; 'I' for Inactive)
REMARK    1  A    between atoms: C_2  and  O_3 
REMARK    2  A    between atoms: O_3  and  C_4 
REMARK    3  A    between atoms: C_9  and  N_10 
REMARK       I    between atoms: N_10  and  C_11 
REMARK    4  A    between atoms: C_11  and  C_13 
REMARK    5  A    between atoms: C_14  and  C_15 
REMARK    6  A    between atoms: C_15  and  N_16 
REMARK    7  A    between atoms: C_19  and  N_26 
REMARK    8  A    between atoms: N_26  and  C_27 
REMARK    9  A    between atoms: C_30  and  O_34 
REMARK   10  A    between atoms: O_34  and  C_35 
REMARK   11  A    between atoms: C_35  and  C_36 
ROOT
HETATM    1  C   UNK N   1      21.314  14.972   6.064  0.00  0.00     0.097 C 
HETATM    2  C   UNK N   1      20.499  15.443   5.004  0.00  0.00     0.069 C 
HETATM    3  C   UNK N   1      20.924  16.420   4.190  0.00  0.00     0.047 C 
HETATM    4  C   UNK N   1      22.182  16.868   4.405  0.00  0.00     0.021 C 
HETATM    5  C   UNK N   1      23.084  16.157   5.158  0.00  0.00     0.048 C 
HETATM    6  C   UNK N   1      22.747  15.205   6.009  0.00  0.00     0.069 C 
HETATM    7  C   UNK N   1      22.493  18.141   4.088  0.00  0.00     0.064 C 
HETATM    8  C   UNK N   1      21.605  18.931   3.360  0.00  0.00     0.087 C 
HETATM    9  C   UNK N   1      20.370  18.383   3.013  0.00  0.00     0.113 C 
HETATM   10  N   UNK N   1      20.031  17.150   3.476  0.00  0.00    -0.364 N 
ATOM     11  HN  UNK N   1      19.102  16.774   3.288  1.00  0.00     0.165 HD
HETATM   12  C   UNK N   1      21.928  20.256   2.932  0.00  0.00     0.103 C 
HETATM   13  N   UNK N   1      22.151  21.329   2.566  0.00  0.00    -0.191 NA
ENDROOT
BRANCH   7  14
HETATM   14  N   UNK N   1      23.681  18.614   4.641  0.00  0.00    -0.377 N 
HETATM   15  H   UNK N   1      23.807  18.694   5.615  0.00  0.00     0.160 HD
BRANCH  14  16
HETATM   16  C   UNK N   1      24.684  18.969   3.739  0.00  0.00     0.130 C 
HETATM   17  C   UNK N   1      25.455  17.867   3.438  0.00  0.00     0.005 C 
HETATM   18  C   UNK N   1      26.483  17.603   4.285  0.00  0.00     0.037 C 
HETATM   19  C   UNK N   1      26.743  18.528   5.284  0.00  0.00     0.090 C 
HETATM   20  C   UNK N   1      26.099  19.800   5.318  0.00  0.00     0.066 C 
HETATM   21  C   UNK N   1      25.255  20.075   4.302  0.00  0.00     0.028 C 
HETATM   22 Cl   UNK N   1      26.267  21.054   6.537  0.00  0.00    -0.082 Cl
BRANCH  19  23
HETATM   23  O   UNK N   1      27.801  18.322   5.972  0.00  0.00    -0.345 OA
BRANCH  23  24
HETATM   24  C   UNK N   1      27.712  17.168   6.681  0.00  0.00     0.214 C 
BRANCH  24  25
HETATM   25  C   UNK N   1      28.712  17.328   7.644  0.00  0.00    -0.031 A 
HETATM   26  C   UNK N   1      28.372  18.080   8.734  0.00  0.00     0.009 A 
HETATM   27  C   UNK N   1      29.380  18.584   9.529  0.00  0.00     0.004 A 
HETATM   28  C   UNK N   1      30.722  18.357   9.187  0.00  0.00     0.042 A 
HETATM   29  C   UNK N   1      31.047  17.588   8.067  0.00  0.00     0.117 A 
HETATM   30  C   UNK N   1      30.037  17.081   7.292  0.00  0.00     0.051 A 
HETATM   31  F   UNK N   1      32.331  17.390   7.696  0.00  0.00    -0.206 F 
ENDBRANCH  24  25
ENDBRANCH  23  24
ENDBRANCH  19  23
ENDBRANCH  14  16
ENDBRANCH   7  14
BRANCH   6  32
HETATM   32  N   UNK N   1      23.887  14.874   6.814  0.00  0.00    -0.321 N 
HETATM   33  C   UNK N   1      24.549  13.784   7.236  0.00  0.00     0.245 C 
HETATM   34  O   UNK N   1      25.491  13.920   8.000  0.00  0.00    -0.268 OA
HETATM   35  H   UNK N   1      24.312  15.691   7.162  0.00  0.00     0.169 HD
BRANCH  33  36
HETATM   36  C   UNK N   1      24.135  12.467   6.876  0.00  0.00     0.072 C 
HETATM   37  C   UNK N   1      23.378  11.745   7.667  0.00  0.00     0.008 C 
BRANCH  37  38
HETATM   38  C   UNK N   1      23.369  10.310   7.350  0.00  0.00     0.299 C 
BRANCH  38  39
HETATM   39  N   UNK N   1      23.744  10.031   5.986  0.00  0.00     0.083 N 
HETATM   40  C   UNK N   1      22.578   9.524   5.304  0.00  0.00     0.309 C 
HETATM   41  C   UNK N   1      24.540   8.845   6.136  0.00  0.00     0.309 C 
ENDBRANCH  38  39
ENDBRANCH  37  38
ENDBRANCH  33  36
ENDBRANCH   6  32
BRANCH   1  42
HETATM   42  O   UNK N   1      20.636  14.545   7.141  0.00  0.00    -0.349 OA
BRANCH  42  43
HETATM   43  C   UNK N   1      20.716  15.258   8.349  0.00  0.00     0.171 C 
HETATM   44  C   UNK N   1      21.184  14.384   9.535  0.00  0.00     0.034 C 
ENDBRANCH  42  43
ENDBRANCH   1  42
TORSDOF 11
ENDMDL
MODEL 6
REMARK VINA RESULT:      -7.7      1.640      2.140
REMARK  11 active torsions:
REMARK  status: ('A' for Active; 'I' for Inactive)
REMARK    1  A    between atoms: C_2  and  O_3 
REMARK    2  A    between atoms: O_3  and  C_4 
REMARK    3  A    between atoms: C_9  and  N_10 
REMARK       I    between atoms: N_10  and  C_11 
REMARK    4  A    between atoms: C_11  and  C_13 
REMARK    5  A    between atoms: C_14  and  C_15 
REMARK    6  A    between atoms: C_15  and  N_16 
REMARK    7  A    between atoms: C_19  and  N_26 
REMARK    8  A    between atoms: N_26  and  C_27 
REMARK    9  A    between atoms: C_30  and  O_34 
REMARK   10  A    between atoms: O_34  and  C_35 
REMARK   11  A    between atoms: C_35  and  C_36 
ROOT
HETATM    1  C   UNK N   1      20.709  14.919   5.451  0.00  0.00     0.097 C 
HETATM    2  C   UNK N   1      19.678  15.557   4.716  0.00  0.00     0.069 C 
HETATM    3  C   UNK N   1      19.966  16.459   3.767  0.00  0.00     0.047 C 
HETATM    4  C   UNK N   1      21.279  16.665   3.521  0.00  0.00     0.021 C 
HETATM    5  C   UNK N   1      22.243  15.782   3.948  0.00  0.00     0.048 C 
HETATM    6  C   UNK N   1      22.053  14.888   4.900  0.00  0.00     0.069 C 
HETATM    7  C   UNK N   1      21.686  17.867   3.066  0.00  0.00     0.064 C 
HETATM    8  C   UNK N   1      20.759  18.824   2.654  0.00  0.00     0.087 C 
HETATM    9  C   UNK N   1      19.404  18.519   2.773  0.00  0.00     0.113 C 
HETATM   10  N   UNK N   1      19.029  17.358   3.374  0.00  0.00    -0.364 N 
ATOM     11  HN  UNK N   1      18.040  17.161   3.530  1.00  0.00     0.165 HD
HETATM   12  C   UNK N   1      21.149  20.077   2.089  0.00  0.00     0.103 C 
HETATM   13  N   UNK N   1      21.421  21.100   1.626  0.00  0.00    -0.191 NA
ENDROOT
BRANCH   7  14
HETATM   14  N   UNK N   1      23.057  18.101   3.160  0.00  0.00    -0.377 N 
HETATM   15  H   UNK N   1      23.710  17.588   2.632  0.00  0.00     0.160 HD
BRANCH  14  16
HETATM   16  C   UNK N   1      23.452  19.104   4.046  0.00  0.00     0.130 C 
HETATM   17  C   UNK N   1      24.154  20.078   3.368  0.00  0.00     0.005 C 
HETATM   18  C   UNK N   1      25.486  19.862   3.214  0.00  0.00     0.037 C 
HETATM   19  C   UNK N   1      26.035  18.764   3.857  0.00  0.00     0.090 C 
HETATM   20  C   UNK N   1      25.293  17.997   4.803  0.00  0.00     0.066 C 
HETATM   21  C   UNK N   1      24.041  18.421   5.072  0.00  0.00     0.028 C 
HETATM   22 Cl   UNK N   1      25.814  16.553   5.657  0.00  0.00    -0.082 Cl
BRANCH  19  23
HETATM   23  O   UNK N   1      27.309  18.670   3.808  0.00  0.00    -0.345 OA
BRANCH  23  24
HETATM   24  C   UNK N   1      27.906  19.670   4.504  0.00  0.00     0.214 C 
BRANCH  24  25
HETATM   25  C   UNK N   1      28.515  18.984   5.556  0.00  0.00    -0.031 A 
HETATM   26  C   UNK N   1      29.247  17.883   5.204  0.00  0.00     0.009 A 
HETATM   27  C   UNK N   1      29.564  16.960   6.180  0.00  0.00     0.004 A 
HETATM   28  C   UNK N   1      29.102  17.142   7.492  0.00  0.00     0.042 A 
HETATM   29  C   UNK N   1      28.354  18.272   7.830  0.00  0.00     0.117 A 
HETATM   30  C   UNK N   1      28.056  19.188   6.856  0.00  0.00     0.051 A 
HETATM   31  F   UNK N   1      27.864  18.447   9.077  0.00  0.00    -0.206 F 
ENDBRANCH  24  25
ENDBRANCH  23  24
ENDBRANCH  19  23
ENDBRANCH  14  16
ENDBRANCH   7  14
BRANCH   6  32
HETATM   32  N   UNK N   1      23.321  14.334   5.279  0.00  0.00    -0.321 N 
HETATM   33  C   UNK N   1      23.840  13.553   6.240  0.00  0.00     0.245 C 
HETATM   34  O   UNK N   1      25.044  13.346   6.252  0.00  0.00    -0.268 OA
HETATM   35  H   UNK N   1      24.021  14.612   4.645  0.00  0.00     0.169 HD
BRANCH  33  36
HETATM   36  C   UNK N   1      23.037  13.019   7.290  0.00  0.00     0.072 C 
HETATM   37  C   UNK N   1      23.422  13.070   8.543  0.00  0.00     0.008 C 
BRANCH  37  38
HETATM   38  C   UNK N   1      22.700  12.152   9.435  0.00  0.00     0.299 C 
BRANCH  38  39
HETATM   39  N   UNK N   1      22.502  12.690  10.757  0.00  0.00     0.083 N 
HETATM   40  C   UNK N   1      23.308  11.919  11.672  0.00  0.00     0.309 C 
HETATM   41  C   UNK N   1      21.177  12.228  11.068  0.00  0.00     0.309 C 
ENDBRANCH  38  39
ENDBRANCH  37  38
ENDBRANCH  33  36
ENDBRANCH   6  32
BRANCH   1  42
HETATM   42  O   UNK N   1      20.376  14.597   6.712  0.00  0.00    -0.349 OA
BRANCH  42  43
HETATM   43  C   UNK N   1      20.089  15.610   7.642  0.00  0.00     0.171 C 
HETATM   44  C   UNK N   1      20.374  15.185   9.101  0.00  0.00     0.034 C 
ENDBRANCH  42  43
ENDBRANCH   1  42
TORSDOF 11
ENDMDL
MODEL 7
REMARK VINA RESULT:      -7.6      3.293      6.717
REMARK  11 active torsions:
REMARK  status: ('A' for Active; 'I' for Inactive)
REMARK    1  A    between atoms: C_2  and  O_3 
REMARK    2  A    between atoms: O_3  and  C_4 
REMARK    3  A    between atoms: C_9  and  N_10 
REMARK       I    between atoms: N_10  and  C_11 
REMARK    4  A    between atoms: C_11  and  C_13 
REMARK    5  A    between atoms: C_14  and  C_15 
REMARK    6  A    between atoms: C_15  and  N_16 
REMARK    7  A    between atoms: C_19  and  N_26 
REMARK    8  A    between atoms: N_26  and  C_27 
REMARK    9  A    between atoms: C_30  and  O_34 
REMARK   10  A    between atoms: O_34  and  C_35 
REMARK   11  A    between atoms: C_35  and  C_36 
ROOT
HETATM    1  C   UNK N   1      26.097  18.120   4.193  0.00  0.00     0.097 C 
HETATM    2  C   UNK N   1      25.512  19.307   3.686  0.00  0.00     0.069 C 
HETATM    3  C   UNK N   1      24.189  19.511   3.763  0.00  0.00     0.047 C 
HETATM    4  C   UNK N   1      23.477  18.557   4.405  0.00  0.00     0.021 C 
HETATM    5  C   UNK N   1      24.080  17.627   5.217  0.00  0.00     0.048 C 
HETATM    6  C   UNK N   1      25.368  17.340   5.180  0.00  0.00     0.069 C 
HETATM    7  C   UNK N   1      22.190  18.350   4.060  0.00  0.00     0.064 C 
HETATM    8  C   UNK N   1      21.530  19.233   3.207  0.00  0.00     0.087 C 
HETATM    9  C   UNK N   1      22.253  20.305   2.684  0.00  0.00     0.113 C 
HETATM   10  N   UNK N   1      23.586  20.399   2.933  0.00  0.00    -0.364 N 
ATOM     11  HN  UNK N   1      24.135  21.138   2.494  1.00  0.00     0.165 HD
HETATM   12  C   UNK N   1      20.144  19.098   2.884  0.00  0.00     0.103 C 
HETATM   13  N   UNK N   1      19.027  19.025   2.599  0.00  0.00    -0.191 NA
ENDROOT
BRANCH   7  14
HETATM   14  N   UNK N   1      21.642  17.153   4.518  0.00  0.00    -0.377 N 
HETATM   15  H   UNK N   1      21.997  16.278   4.239  0.00  0.00     0.160 HD
BRANCH  14  16
HETATM   16  C   UNK N   1      20.560  17.264   5.392  0.00  0.00     0.130 C 
HETATM   17  C   UNK N   1      21.016  17.437   6.681  0.00  0.00     0.005 C 
HETATM   18  C   UNK N   1      21.301  16.306   7.376  0.00  0.00     0.037 C 
HETATM   19  C   UNK N   1      20.986  15.094   6.781  0.00  0.00     0.090 C 
HETATM   20  C   UNK N   1      20.218  15.020   5.583  0.00  0.00     0.066 C 
HETATM   21  C   UNK N   1      19.774  16.191   5.079  0.00  0.00     0.028 C 
HETATM   22 Cl   UNK N   1      19.784  13.581   4.674  0.00  0.00    -0.082 Cl
BRANCH  19  23
HETATM   23  O   UNK N   1      21.136  14.058   7.516  0.00  0.00    -0.345 OA
BRANCH  23  24
HETATM   24  C   UNK N   1      22.424  13.632   7.514  0.00  0.00     0.214 C 
BRANCH  24  25
HETATM   25  C   UNK N   1      22.493  12.872   8.684  0.00  0.00    -0.031 A 
HETATM   26  C   UNK N   1      21.351  12.835   9.437  0.00  0.00     0.009 A 
HETATM   27  C   UNK N   1      21.440  12.429  10.752  0.00  0.00     0.004 A 
HETATM   28  C   UNK N   1      22.689  12.107  11.303  0.00  0.00     0.042 A 
HETATM   29  C   UNK N   1      23.844  12.155  10.517  0.00  0.00     0.117 A 
HETATM   30  C   UNK N   1      23.741  12.547   9.209  0.00  0.00     0.051 A 
HETATM   31  F   UNK N   1      25.062  11.888  11.037  0.00  0.00    -0.206 F 
ENDBRANCH  24  25
ENDBRANCH  23  24
ENDBRANCH  19  23
ENDBRANCH  14  16
ENDBRANCH   7  14
BRANCH   6  32
HETATM   32  N   UNK N   1      25.604  16.153   5.950  0.00  0.00    -0.321 N 
HETATM   33  C   UNK N   1      25.684  14.825   5.767  0.00  0.00     0.245 C 
HETATM   34  O   UNK N   1      25.850  14.101   6.736  0.00  0.00    -0.268 OA
HETATM   35  H   UNK N   1      25.749  16.380   6.896  0.00  0.00     0.169 HD
BRANCH  33  36
HETATM   36  C   UNK N   1      25.507  14.231   4.482  0.00  0.00     0.072 C 
HETATM   37  C   UNK N   1      24.314  13.964   4.009  0.00  0.00     0.008 C 
BRANCH  37  38
HETATM   38  C   UNK N   1      24.308  13.017   2.885  0.00  0.00     0.299 C 
BRANCH  38  39
HETATM   39  N   UNK N   1      23.399  13.397   1.832  0.00  0.00     0.083 N 
HETATM   40  C   UNK N   1      24.131  14.205   0.889  0.00  0.00     0.309 C 
HETATM   41  C   UNK N   1      22.580  14.377   2.491  0.00  0.00     0.309 C 
ENDBRANCH  38  39
ENDBRANCH  37  38
ENDBRANCH  33  36
ENDBRANCH   6  32
BRANCH   1  42
HETATM   42  O   UNK N   1      27.191  17.710   3.531  0.00  0.00    -0.349 OA
BRANCH  42  43
HETATM   43  C   UNK N   1      28.429  17.650   4.191  0.00  0.00     0.171 C 
HETATM   44  C   UNK N   1      28.914  16.202   4.434  0.00  0.00     0.034 C 
ENDBRANCH  42  43
ENDBRANCH   1  42
TORSDOF 11
ENDMDL
MODEL 8
REMARK VINA RESULT:      -7.5      3.376      6.805
REMARK  11 active torsions:
REMARK  status: ('A' for Active; 'I' for Inactive)
REMARK    1  A    between atoms: C_2  and  O_3 
REMARK    2  A    between atoms: O_3  and  C_4 
REMARK    3  A    between atoms: C_9  and  N_10 
REMARK       I    between atoms: N_10  and  C_11 
REMARK    4  A    between atoms: C_11  and  C_13 
REMARK    5  A    between atoms: C_14  and  C_15 
REMARK    6  A    between atoms: C_15  and  N_16 
REMARK    7  A    between atoms: C_19  and  N_26 
REMARK    8  A    between atoms: N_26  and  C_27 
REMARK    9  A    between atoms: C_30  and  O_34 
REMARK   10  A    between atoms: O_34  and  C_35 
REMARK   11  A    between atoms: C_35  and  C_36 
ROOT
HETATM    1  C   UNK N   1      26.220  16.503   4.896  0.00  0.00     0.097 C 
HETATM    2  C   UNK N   1      25.980  17.846   4.512  0.00  0.00     0.069 C 
HETATM    3  C   UNK N   1      24.737  18.350   4.504  0.00  0.00     0.047 C 
HETATM    4  C   UNK N   1      23.759  17.525   4.942  0.00  0.00     0.021 C 
HETATM    5  C   UNK N   1      24.040  16.389   5.665  0.00  0.00     0.048 C 
HETATM    6  C   UNK N   1      25.225  15.810   5.698  0.00  0.00     0.069 C 
HETATM    7  C   UNK N   1      22.507  17.672   4.464  0.00  0.00     0.064 C 
HETATM    8  C   UNK N   1      22.166  18.780   3.690  0.00  0.00     0.087 C 
HETATM    9  C   UNK N   1      23.167  19.702   3.386  0.00  0.00     0.113 C 
HETATM   10  N   UNK N   1      24.449  19.445   3.759  0.00  0.00    -0.364 N 
ATOM     11  HN  UNK N   1      25.198  20.078   3.476  1.00  0.00     0.165 HD
HETATM   12  C   UNK N   1      20.832  19.017   3.234  0.00  0.00     0.103 C 
HETATM   13  N   UNK N   1      19.768  19.246   2.847  0.00  0.00    -0.191 NA
ENDROOT
BRANCH   7  14
HETATM   14  N   UNK N   1      21.654  16.595   4.700  0.00  0.00    -0.377 N 
HETATM   15  H   UNK N   1      21.892  15.676   4.440  0.00  0.00     0.160 HD
BRANCH  14  16
HETATM   16  C   UNK N   1      20.444  16.892   5.327  0.00  0.00     0.130 C 
HETATM   17  C   UNK N   1      20.668  17.227   6.645  0.00  0.00     0.005 C 
HETATM   18  C   UNK N   1      20.728  16.197   7.526  0.00  0.00     0.037 C 
HETATM   19  C   UNK N   1      20.429  14.929   7.049  0.00  0.00     0.090 C 
HETATM   20  C   UNK N   1      19.889  14.723   5.746  0.00  0.00     0.066 C 
HETATM   21  C   UNK N   1      19.643  15.830   5.014  0.00  0.00     0.028 C 
HETATM   22 Cl   UNK N   1      19.513  13.192   4.971  0.00  0.00    -0.082 Cl
BRANCH  19  23
HETATM   23  O   UNK N   1      20.355  14.006   7.931  0.00  0.00    -0.345 OA
BRANCH  23  24
HETATM   24  C   UNK N   1      20.657  14.478   9.167  0.00  0.00     0.214 C 
BRANCH  24  25
HETATM   25  C   UNK N   1      21.428  13.445   9.705  0.00  0.00    -0.031 A 
HETATM   26  C   UNK N   1      20.839  12.723  10.707  0.00  0.00     0.009 A 
HETATM   27  C   UNK N   1      21.640  11.951  11.523  0.00  0.00     0.004 A 
HETATM   28  C   UNK N   1      23.031  11.952  11.342  0.00  0.00     0.042 A 
HETATM   29  C   UNK N   1      23.612  12.698  10.314  0.00  0.00     0.117 A 
HETATM   30  C   UNK N   1      22.806  13.451   9.502  0.00  0.00     0.051 A 
HETATM   31  F   UNK N   1      24.952  12.746  10.147  0.00  0.00    -0.206 F 
ENDBRANCH  24  25
ENDBRANCH  23  24
ENDBRANCH  19  23
ENDBRANCH  14  16
ENDBRANCH   7  14
BRANCH   6  32
HETATM   32  N   UNK N   1      25.097  14.520   6.310  0.00  0.00    -0.321 N 
HETATM   33  C   UNK N   1      25.022  13.229   5.949  0.00  0.00     0.245 C 
HETATM   34  O   UNK N   1      24.848  12.380   6.810  0.00  0.00    -0.268 OA
HETATM   35  H   UNK N   1      25.048  14.607   7.289  0.00  0.00     0.169 HD
BRANCH  33  36
HETATM   36  C   UNK N   1      25.065  12.827   4.581  0.00  0.00     0.072 C 
HETATM   37  C   UNK N   1      23.981  12.780   3.845  0.00  0.00     0.008 C 
BRANCH  37  38
HETATM   38  C   UNK N   1      24.120  11.989   2.614  0.00  0.00     0.299 C 
BRANCH  38  39
HETATM   39  N   UNK N   1      23.066  12.237   1.662  0.00  0.00     0.083 N 
HETATM   40  C   UNK N   1      23.664  12.305   0.351  0.00  0.00     0.309 C 
HETATM   41  C   UNK N   1      22.756  13.617   1.919  0.00  0.00     0.309 C 
ENDBRANCH  38  39
ENDBRANCH  37  38
ENDBRANCH  33  36
ENDBRANCH   6  32
BRANCH   1  42
HETATM   42  O   UNK N   1      27.262  15.925   4.278  0.00  0.00    -0.349 OA
BRANCH  42  43
HETATM   43  C   UNK N   1      27.342  15.936   2.876  0.00  0.00     0.171 C 
HETATM   44  C   UNK N   1      26.050  15.429   2.195  0.00  0.00     0.034 C 
ENDBRANCH  42  43
ENDBRANCH   1  42
TORSDOF 11
ENDMDL
MODEL 9
REMARK VINA RESULT:      -7.5      3.473      7.272
REMARK  11 active torsions:
REMARK  status: ('A' for Active; 'I' for Inactive)
REMARK    1  A    between atoms: C_2  and  O_3 
REMARK    2  A    between atoms: O_3  and  C_4 
REMARK    3  A    between atoms: C_9  and  N_10 
REMARK       I    between atoms: N_10  and  C_11 
REMARK    4  A    between atoms: C_11  and  C_13 
REMARK    5  A    between atoms: C_14  and  C_15 
REMARK    6  A    between atoms: C_15  and  N_16 
REMARK    7  A    between atoms: C_19  and  N_26 
REMARK    8  A    between atoms: N_26  and  C_27 
REMARK    9  A    between atoms: C_30  and  O_34 
REMARK   10  A    between atoms: O_34  and  C_35 
REMARK   11  A    between atoms: C_35  and  C_36 
ROOT
HETATM    1  C   UNK N   1      22.440  19.399   3.571  0.00  0.00     0.097 C 
HETATM    2  C   UNK N   1      23.667  20.017   3.227  0.00  0.00     0.069 C 
HETATM    3  C   UNK N   1      24.838  19.418   3.485  0.00  0.00     0.047 C 
HETATM    4  C   UNK N   1      24.765  18.180   4.026  0.00  0.00     0.021 C 
HETATM    5  C   UNK N   1      23.604  17.444   3.995  0.00  0.00     0.048 C 
HETATM    6  C   UNK N   1      22.408  17.962   3.783  0.00  0.00     0.069 C 
HETATM    7  C   UNK N   1      25.762  17.747   4.823  0.00  0.00     0.064 C 
HETATM    8  C   UNK N   1      26.951  18.467   4.932  0.00  0.00     0.087 C 
HETATM    9  C   UNK N   1      27.057  19.669   4.231  0.00  0.00     0.113 C 
HETATM   10  N   UNK N   1      25.978  20.148   3.557  0.00  0.00    -0.364 N 
ATOM     11  HN  UNK N   1      26.026  21.061   3.104  1.00  0.00     0.165 HD
HETATM   12  C   UNK N   1      28.063  18.002   5.699  0.00  0.00     0.103 C 
HETATM   13  N   UNK N   1      28.985  17.662   6.307  0.00  0.00    -0.191 NA
ENDROOT
BRANCH   7  14
HETATM   14  N   UNK N   1      25.458  16.626   5.594  0.00  0.00    -0.377 N 
HETATM   15  H   UNK N   1      24.812  16.665   6.336  0.00  0.00     0.160 HD
BRANCH  14  16
HETATM   16  C   UNK N   1      26.120  15.446   5.255  0.00  0.00     0.130 C 
HETATM   17  C   UNK N   1      25.432  14.793   4.256  0.00  0.00     0.005 C 
HETATM   18  C   UNK N   1      24.430  13.969   4.654  0.00  0.00     0.037 C 
HETATM   19  C   UNK N   1      24.278  13.759   6.017  0.00  0.00     0.090 C 
HETATM   20  C   UNK N   1      25.242  14.219   6.961  0.00  0.00     0.066 C 
HETATM   21  C   UNK N   1      26.333  14.833   6.457  0.00  0.00     0.028 C 
HETATM   22 Cl   UNK N   1      25.174  14.090   8.712  0.00  0.00    -0.082 Cl
BRANCH  19  23
HETATM   23  O   UNK N   1      23.420  12.871   6.350  0.00  0.00    -0.345 OA
BRANCH  23  24
HETATM   24  C   UNK N   1      22.161  13.376   6.354  0.00  0.00     0.214 C 
BRANCH  24  25
HETATM   25  C   UNK N   1      21.725  13.090   7.649  0.00  0.00    -0.031 A 
HETATM   26  C   UNK N   1      21.004  14.076   8.265  0.00  0.00     0.009 A 
HETATM   27  C   UNK N   1      20.857  14.029   9.636  0.00  0.00     0.004 A 
HETATM   28  C   UNK N   1      21.477  13.009  10.372  0.00  0.00     0.042 A 
HETATM   29  C   UNK N   1      22.211  12.013   9.723  0.00  0.00     0.117 A 
HETATM   30  C   UNK N   1      22.340  12.063   8.360  0.00  0.00     0.051 A 
HETATM   31  F   UNK N   1      22.851  11.044  10.416  0.00  0.00    -0.206 F 
ENDBRANCH  24  25
ENDBRANCH  23  24
ENDBRANCH  19  23
ENDBRANCH  14  16
ENDBRANCH   7  14
BRANCH   6  32
HETATM   32  N   UNK N   1      21.413  16.976   4.089  0.00  0.00    -0.321 N 
HETATM   33  C   UNK N   1      20.843  15.900   3.522  0.00  0.00     0.245 C 
HETATM   34  O   UNK N   1      19.938  15.328   4.110  0.00  0.00    -0.268 OA
HETATM   35  H   UNK N   1      21.032  17.136   4.982  0.00  0.00     0.169 HD
BRANCH  33  36
HETATM   36  C   UNK N   1      21.211  15.453   2.219  0.00  0.00     0.072 C 
HETATM   37  C   UNK N   1      21.302  14.176   1.932  0.00  0.00     0.008 C 
BRANCH  37  38
HETATM   38  C   UNK N   1      22.057  13.885   0.705  0.00  0.00     0.299 C 
BRANCH  38  39
HETATM   39  N   UNK N   1      23.344  13.290   0.962  0.00  0.00     0.083 N 
HETATM   40  C   UNK N   1      24.346  14.312   0.779  0.00  0.00     0.309 C 
HETATM   41  C   UNK N   1      23.531  12.477  -0.208  0.00  0.00     0.309 C 
ENDBRANCH  38  39
ENDBRANCH  37  38
ENDBRANCH  33  36
ENDBRANCH   6  32
BRANCH   1  42
HETATM   42  O   UNK N   1      21.455  20.254   3.892  0.00  0.00    -0.349 OA
BRANCH  42  43
HETATM   43  C   UNK N   1      20.341  20.392   3.047  0.00  0.00     0.171 C 
HETATM   44  C   UNK N   1      20.705  20.282   1.548  0.00  0.00     0.034 C 
ENDBRANCH  42  43
ENDBRANCH   1  42
TORSDOF 11
ENDMDL
