MODEL 1
REMARK VINA RESULT:      -6.9      0.000      0.000
REMARK  0 active torsions:
REMARK  status: ('A' for Active; 'I' for Inactive)
ROOT
HETATM    1  C   UNK N   1      37.841   9.623  15.036  0.00  0.00     0.010 C 
HETATM    2  C   UNK N   1      35.215  13.563  18.447  0.00  0.00     0.021 C 
HETATM    3  C   UNK N   1      35.938  14.466  10.831  0.00  0.00     0.082 C 
HETATM    4  C   UNK N   1      35.971  10.445  16.434  0.00  0.00     0.005 C 
HETATM    5  C   UNK N   1      34.675  11.304  16.416  0.00  0.00     0.009 C 
HETATM    6  C   UNK N   1      37.352  11.754  13.031  0.00  0.00     0.014 C 
HETATM    7  C   UNK N   1      36.622  12.315  11.807  0.00  0.00     0.071 C 
HETATM    8  C   UNK N   1      37.074  10.879  15.429  0.00  0.00    -0.011 C 
HETATM    9  C   UNK N   1      35.924  13.367  17.111  0.00  0.00     0.089 C 
HETATM   10  C   UNK N   1      36.410  11.534  14.216  0.00  0.00     0.033 C 
HETATM   11  C   UNK N   1      34.967  12.758  16.027  0.00  0.00     0.042 C 
HETATM   12  C   UNK N   1      36.573  14.618  16.606  0.00  0.00     0.265 C 
HETATM   13  C   UNK N   1      36.163  14.236  14.346  0.00  0.00     0.311 C 
HETATM   14  C   UNK N   1      35.960  13.664  12.116  0.00  0.00     0.196 C 
HETATM   15  C   UNK N   1      35.532  12.807  14.553  0.00  0.00     0.154 C 
HETATM   16  O   UNK N   1      36.656  15.623  17.297  0.00  0.00    -0.265 OA
HETATM   17  O   UNK N   1      37.033  14.627  15.338  0.00  0.00    -0.286 OA
HETATM   18  O   UNK N   1      36.742  14.377  13.067  0.00  0.00    -0.319 OA
HETATM   19  O   UNK N   1      34.601  13.522  12.550  0.00  0.00    -0.200 OA
HETATM   20  O   UNK N   1      34.467  12.694  13.607  0.00  0.00    -0.221 OA
ENDROOT
TORSDOF 0
ENDMDL
MODEL 2
REMARK VINA RESULT:      -6.8      1.949      4.761
REMARK  0 active torsions:
REMARK  status: ('A' for Active; 'I' for Inactive)
ROOT
HETATM    1  C   UNK N   1      33.605   9.610  11.327  0.00  0.00     0.010 C 
HETATM    2  C   UNK N   1      37.346  13.928  10.139  0.00  0.00     0.021 C 
HETATM    3  C   UNK N   1      35.053  12.251  17.300  0.00  0.00     0.082 C 
HETATM    4  C   UNK N   1      35.819  10.503  10.673  0.00  0.00     0.005 C 
HETATM    5  C   UNK N   1      37.166  11.046  11.228  0.00  0.00     0.009 C 
HETATM    6  C   UNK N   1      33.871  10.783  14.039  0.00  0.00     0.014 C 
HETATM    7  C   UNK N   1      34.368  10.739  15.487  0.00  0.00     0.071 C 
HETATM    8  C   UNK N   1      34.576  10.759  11.570  0.00  0.00    -0.011 C 
HETATM    9  C   UNK N   1      36.341  13.415  11.166  0.00  0.00     0.089 C 
HETATM   10  C   UNK N   1      35.022  10.817  13.032  0.00  0.00     0.033 C 
HETATM   11  C   UNK N   1      36.959  12.302  12.082  0.00  0.00     0.042 C 
HETATM   12  C   UNK N   1      35.740  14.511  11.990  0.00  0.00     0.265 C 
HETATM   13  C   UNK N   1      35.592  13.300  13.973  0.00  0.00     0.311 C 
HETATM   14  C   UNK N   1      35.228  11.964  15.823  0.00  0.00     0.196 C 
HETATM   15  C   UNK N   1      36.090  11.941  13.350  0.00  0.00     0.154 C 
HETATM   16  O   UNK N   1      35.925  15.690  11.726  0.00  0.00    -0.265 OA
HETATM   17  O   UNK N   1      35.013  14.165  13.072  0.00  0.00    -0.286 OA
HETATM   18  O   UNK N   1      34.762  13.094  15.096  0.00  0.00    -0.319 OA
HETATM   19  O   UNK N   1      36.626  11.732  15.599  0.00  0.00    -0.200 OA
HETATM   20  O   UNK N   1      36.898  11.312  14.346  0.00  0.00    -0.221 OA
ENDROOT
TORSDOF 0
ENDMDL
MODEL 3
REMARK VINA RESULT:      -6.7     23.801     26.342
REMARK  0 active torsions:
REMARK  status: ('A' for Active; 'I' for Inactive)
ROOT
HETATM    1  C   UNK N   1      28.344  28.114  -8.459  0.00  0.00     0.010 C 
HETATM    2  C   UNK N   1      25.980  23.691  -5.476  0.00  0.00     0.021 C 
HETATM    3  C   UNK N   1      27.720  30.453  -2.223  0.00  0.00     0.082 C 
HETATM    4  C   UNK N   1      26.474  26.624  -7.821  0.00  0.00     0.005 C 
HETATM    5  C   UNK N   1      25.337  26.413  -6.781  0.00  0.00     0.009 C 
HETATM    6  C   UNK N   1      28.429  29.269  -5.728  0.00  0.00     0.014 C 
HETATM    7  C   UNK N   1      27.944  30.257  -4.663  0.00  0.00     0.071 C 
HETATM    8  C   UNK N   1      27.740  27.349  -7.288  0.00  0.00    -0.011 C 
HETATM    9  C   UNK N   1      26.801  24.969  -5.341  0.00  0.00     0.089 C 
HETATM   10  C   UNK N   1      27.332  28.290  -6.153  0.00  0.00     0.033 C 
HETATM   11  C   UNK N   1      25.895  26.250  -5.362  0.00  0.00     0.042 C 
HETATM   12  C   UNK N   1      27.690  24.966  -4.137  0.00  0.00     0.265 C 
HETATM   13  C   UNK N   1      27.493  27.236  -3.655  0.00  0.00     0.311 C 
HETATM   14  C   UNK N   1      27.467  29.532  -3.398  0.00  0.00     0.196 C 
HETATM   15  C   UNK N   1      26.629  27.578  -4.927  0.00  0.00     0.154 C 
HETATM   16  O   UNK N   1      27.847  23.963  -3.455  0.00  0.00    -0.265 OA
HETATM   17  O   UNK N   1      28.291  26.122  -3.789  0.00  0.00    -0.286 OA
HETATM   18  O   UNK N   1      28.233  28.349  -3.204  0.00  0.00    -0.319 OA
HETATM   19  O   UNK N   1      26.060  29.252  -3.422  0.00  0.00    -0.200 OA
HETATM   20  O   UNK N   1      25.678  28.562  -4.517  0.00  0.00    -0.221 OA
ENDROOT
TORSDOF 0
ENDMDL
MODEL 4
REMARK VINA RESULT:      -6.7      6.922      8.797
REMARK  0 active torsions:
REMARK  status: ('A' for Active; 'I' for Inactive)
ROOT
HETATM    1  C   UNK N   1      34.768  12.960   6.461  0.00  0.00     0.010 C 
HETATM    2  C   UNK N   1      35.204  17.156  10.493  0.00  0.00     0.021 C 
HETATM    3  C   UNK N   1      30.237  17.522   4.616  0.00  0.00     0.082 C 
HETATM    4  C   UNK N   1      34.424  13.898   8.726  0.00  0.00     0.005 C 
HETATM    5  C   UNK N   1      33.470  14.769   9.591  0.00  0.00     0.009 C 
HETATM    6  C   UNK N   1      32.907  14.952   5.293  0.00  0.00     0.014 C 
HETATM    7  C   UNK N   1      31.500  15.436   4.929  0.00  0.00     0.071 C 
HETATM    8  C   UNK N   1      34.460  14.249   7.212  0.00  0.00    -0.011 C 
HETATM    9  C   UNK N   1      34.754  16.860   9.066  0.00  0.00     0.089 C 
HETATM   10  C   UNK N   1      33.103  14.827   6.805  0.00  0.00     0.033 C 
HETATM   11  C   UNK N   1      33.336  16.189   9.029  0.00  0.00     0.042 C 
HETATM   12  C   UNK N   1      34.795  18.065   8.179  0.00  0.00     0.265 C 
HETATM   13  C   UNK N   1      32.911  17.533   6.918  0.00  0.00     0.311 C 
HETATM   14  C   UNK N   1      31.202  16.811   5.541  0.00  0.00     0.196 C 
HETATM   15  C   UNK N   1      32.677  16.130   7.595  0.00  0.00     0.154 C 
HETATM   16  O   UNK N   1      35.305  19.115   8.544  0.00  0.00    -0.265 OA
HETATM   17  O   UNK N   1      34.212  17.981   6.966  0.00  0.00    -0.286 OA
HETATM   18  O   UNK N   1      32.398  17.579   5.605  0.00  0.00    -0.319 OA
HETATM   19  O   UNK N   1      30.568  16.716   6.824  0.00  0.00    -0.200 OA
HETATM   20  O   UNK N   1      31.263  15.964   7.703  0.00  0.00    -0.221 OA
ENDROOT
TORSDOF 0
ENDMDL
MODEL 5
REMARK VINA RESULT:      -6.7     22.082     25.264
REMARK  0 active torsions:
REMARK  status: ('A' for Active; 'I' for Inactive)
ROOT
HETATM    1  C   UNK N   1      25.562  24.352  -8.187  0.00  0.00     0.010 C 
HETATM    2  C   UNK N   1      26.041  28.832  -4.478  0.00  0.00     0.021 C 
HETATM    3  C   UNK N   1      30.287  22.434  -3.857  0.00  0.00     0.082 C 
HETATM    4  C   UNK N   1      26.267  26.640  -7.559  0.00  0.00     0.005 C 
HETATM    5  C   UNK N   1      27.402  27.463  -6.885  0.00  0.00     0.009 C 
HETATM    6  C   UNK N   1      27.467  23.172  -6.242  0.00  0.00     0.014 C 
HETATM    7  C   UNK N   1      28.863  22.683  -5.845  0.00  0.00     0.071 C 
HETATM    8  C   UNK N   1      26.088  25.191  -7.028  0.00  0.00    -0.011 C 
HETATM    9  C   UNK N   1      26.286  27.335  -4.641  0.00  0.00     0.089 C 
HETATM   10  C   UNK N   1      27.439  24.675  -6.529  0.00  0.00     0.033 C 
HETATM   11  C   UNK N   1      27.612  27.043  -5.426  0.00  0.00     0.042 C 
HETATM   12  C   UNK N   1      26.263  26.595  -3.340  0.00  0.00     0.265 C 
HETATM   13  C   UNK N   1      27.920  25.051  -3.883  0.00  0.00     0.311 C 
HETATM   14  C   UNK N   1      29.370  23.395  -4.585  0.00  0.00     0.196 C 
HETATM   15  C   UNK N   1      28.087  25.538  -5.372  0.00  0.00     0.154 C 
HETATM   16  O   UNK N   1      25.911  27.133  -2.300  0.00  0.00    -0.265 OA
HETATM   17  O   UNK N   1      26.687  25.315  -3.330  0.00  0.00    -0.286 OA
HETATM   18  O   UNK N   1      28.276  23.695  -3.727  0.00  0.00    -0.319 OA
HETATM   19  O   UNK N   1      30.140  24.568  -4.888  0.00  0.00    -0.200 OA
HETATM   20  O   UNK N   1      29.480  25.443  -5.674  0.00  0.00    -0.221 OA
ENDROOT
TORSDOF 0
ENDMDL
MODEL 6
REMARK VINA RESULT:      -6.7     14.465     16.272
REMARK  0 active torsions:
REMARK  status: ('A' for Active; 'I' for Inactive)
ROOT
HETATM    1  C   UNK N   1      22.104  12.124  11.551  0.00  0.00     0.010 C 
HETATM    2  C   UNK N   1      24.049  10.175   6.406  0.00  0.00     0.021 C 
HETATM    3  C   UNK N   1      19.472  16.335   7.069  0.00  0.00     0.082 C 
HETATM    4  C   UNK N   1      23.850  11.780   9.832  0.00  0.00     0.005 C 
HETATM    5  C   UNK N   1      24.466  12.373   8.532  0.00  0.00     0.009 C 
HETATM    6  C   UNK N   1      20.605  13.939   9.745  0.00  0.00     0.014 C 
HETATM    7  C   UNK N   1      20.339  15.317   9.132  0.00  0.00     0.071 C 
HETATM    8  C   UNK N   1      22.339  12.069  10.047  0.00  0.00    -0.011 C 
HETATM    9  C   UNK N   1      22.953  10.995   7.079  0.00  0.00     0.089 C 
HETATM   10  C   UNK N   1      21.987  13.397   9.374  0.00  0.00     0.033 C 
HETATM   11  C   UNK N   1      23.431  12.453   7.404  0.00  0.00     0.042 C 
HETATM   12  C   UNK N   1      21.677  11.014   6.297  0.00  0.00     0.265 C 
HETATM   13  C   UNK N   1      21.077  13.202   6.823  0.00  0.00     0.311 C 
HETATM   14  C   UNK N   1      20.413  15.274   7.600  0.00  0.00     0.196 C 
HETATM   15  C   UNK N   1      22.273  13.444   7.818  0.00  0.00     0.154 C 
HETATM   16  O   UNK N   1      21.510  10.299   5.320  0.00  0.00    -0.265 OA
HETATM   17  O   UNK N   1      20.715  11.882   6.673  0.00  0.00    -0.286 OA
HETATM   18  O   UNK N   1      19.961  14.010   7.131  0.00  0.00    -0.319 OA
HETATM   19  O   UNK N   1      21.724  15.584   7.105  0.00  0.00    -0.200 OA
HETATM   20  O   UNK N   1      22.686  14.799   7.632  0.00  0.00    -0.221 OA
ENDROOT
TORSDOF 0
ENDMDL
MODEL 7
REMARK VINA RESULT:      -6.7      7.739     10.852
REMARK  0 active torsions:
REMARK  status: ('A' for Active; 'I' for Inactive)
ROOT
HETATM    1  C   UNK N   1      33.263  13.480   4.145  0.00  0.00     0.010 C 
HETATM    2  C   UNK N   1      29.374  17.831   4.125  0.00  0.00     0.021 C 
HETATM    3  C   UNK N   1      34.975  17.271   9.384  0.00  0.00     0.082 C 
HETATM    4  C   UNK N   1      32.294  15.579   3.260  0.00  0.00     0.005 C 
HETATM    5  C   UNK N   1      32.294  17.126   3.420  0.00  0.00     0.009 C 
HETATM    6  C   UNK N   1      34.037  14.836   6.667  0.00  0.00     0.014 C 
HETATM    7  C   UNK N   1      34.997  15.687   7.504  0.00  0.00     0.071 C 
HETATM    8  C   UNK N   1      32.572  14.773   4.559  0.00  0.00    -0.011 C 
HETATM    9  C   UNK N   1      30.349  17.053   5.003  0.00  0.00     0.089 C 
HETATM   10  C   UNK N   1      33.458  15.612   5.483  0.00  0.00     0.033 C 
HETATM   11  C   UNK N   1      31.826  17.548   4.816  0.00  0.00     0.042 C 
HETATM   12  C   UNK N   1      29.964  17.061   6.450  0.00  0.00     0.265 C 
HETATM   13  C   UNK N   1      32.130  17.130   7.301  0.00  0.00     0.311 C 
HETATM   14  C   UNK N   1      34.298  16.928   8.073  0.00  0.00     0.196 C 
HETATM   15  C   UNK N   1      32.839  17.008   5.900  0.00  0.00     0.154 C 
HETATM   16  O   UNK N   1      28.887  17.502   6.826  0.00  0.00    -0.265 OA
HETATM   17  O   UNK N   1      30.859  16.602   7.348  0.00  0.00    -0.286 OA
HETATM   18  O   UNK N   1      32.934  16.630   8.347  0.00  0.00    -0.319 OA
HETATM   19  O   UNK N   1      34.427  18.072   7.217  0.00  0.00    -0.200 OA
HETATM   20  O   UNK N   1      33.998  17.841   5.959  0.00  0.00    -0.221 OA
ENDROOT
TORSDOF 0
ENDMDL
MODEL 8
REMARK VINA RESULT:      -6.5     22.537     25.230
REMARK  0 active torsions:
REMARK  status: ('A' for Active; 'I' for Inactive)
ROOT
HETATM    1  C   UNK N   1      25.923  26.306  -7.569  0.00  0.00     0.010 C 
HETATM    2  C   UNK N   1      29.089  23.105  -3.858  0.00  0.00     0.021 C 
HETATM    3  C   UNK N   1      27.536  30.554  -2.660  0.00  0.00     0.082 C 
HETATM    4  C   UNK N   1      26.204  24.574  -5.825  0.00  0.00     0.005 C 
HETATM    5  C   UNK N   1      26.295  24.342  -4.290  0.00  0.00     0.009 C 
HETATM    6  C   UNK N   1      26.741  28.432  -5.669  0.00  0.00     0.014 C 
HETATM    7  C   UNK N   1      26.437  29.438  -4.555  0.00  0.00     0.071 C 
HETATM    8  C   UNK N   1      26.725  25.949  -6.325  0.00  0.00    -0.011 C 
HETATM    9  C   UNK N   1      28.798  24.529  -4.318  0.00  0.00     0.089 C 
HETATM   10  C   UNK N   1      26.532  26.986  -5.216  0.00  0.00     0.033 C 
HETATM   11  C   UNK N   1      27.482  25.093  -3.676  0.00  0.00     0.042 C 
HETATM   12  C   UNK N   1      29.945  25.462  -4.088  0.00  0.00     0.265 C 
HETATM   13  C   UNK N   1      28.664  27.337  -3.571  0.00  0.00     0.311 C 
HETATM   14  C   UNK N   1      27.336  29.212  -3.333  0.00  0.00     0.196 C 
HETATM   15  C   UNK N   1      27.278  26.648  -3.862  0.00  0.00     0.154 C 
HETATM   16  O   UNK N   1      31.042  25.057  -3.730  0.00  0.00    -0.265 OA
HETATM   17  O   UNK N   1      29.730  26.784  -4.245  0.00  0.00    -0.286 OA
HETATM   18  O   UNK N   1      28.608  28.735  -3.752  0.00  0.00    -0.319 OA
HETATM   19  O   UNK N   1      26.737  28.338  -2.365  0.00  0.00    -0.200 OA
HETATM   20  O   UNK N   1      26.364  27.151  -2.885  0.00  0.00    -0.221 OA
ENDROOT
TORSDOF 0
ENDMDL
MODEL 9
REMARK VINA RESULT:      -6.2     22.391     25.076
REMARK  0 active torsions:
REMARK  status: ('A' for Active; 'I' for Inactive)
ROOT
HETATM    1  C   UNK N   1      29.092  23.190  -2.315  0.00  0.00     0.010 C 
HETATM    2  C   UNK N   1      29.591  21.553  -7.893  0.00  0.00     0.021 C 
HETATM    3  C   UNK N   1      24.723  27.058  -5.584  0.00  0.00     0.082 C 
HETATM    4  C   UNK N   1      30.257  23.090  -4.496  0.00  0.00     0.005 C 
HETATM    5  C   UNK N   1      30.368  23.769  -5.891  0.00  0.00     0.009 C 
HETATM    6  C   UNK N   1      26.904  24.808  -3.494  0.00  0.00     0.014 C 
HETATM    7  C   UNK N   1      26.296  26.145  -3.931  0.00  0.00     0.071 C 
HETATM    8  C   UNK N   1      28.860  23.178  -3.820  0.00  0.00    -0.011 C 
HETATM    9  C   UNK N   1      28.662  22.217  -6.882  0.00  0.00     0.089 C 
HETATM   10  C   UNK N   1      28.161  24.455  -4.291  0.00  0.00     0.033 C 
HETATM   11  C   UNK N   1      29.036  23.723  -6.648  0.00  0.00     0.042 C 
HETATM   12  C   UNK N   1      27.216  22.077  -7.239  0.00  0.00     0.265 C 
HETATM   13  C   UNK N   1      26.544  24.163  -6.453  0.00  0.00     0.311 C 
HETATM   14  C   UNK N   1      25.903  26.125  -5.414  0.00  0.00     0.196 C 
HETATM   15  C   UNK N   1      27.949  24.551  -5.856  0.00  0.00     0.154 C 
HETATM   16  O   UNK N   1      26.846  21.354  -8.154  0.00  0.00    -0.265 OA
HETATM   17  O   UNK N   1      26.317  22.808  -6.549  0.00  0.00    -0.286 OA
HETATM   18  O   UNK N   1      25.487  24.816  -5.784  0.00  0.00    -0.319 OA
HETATM   19  O   UNK N   1      26.951  26.606  -6.267  0.00  0.00    -0.200 OA
HETATM   20  O   UNK N   1      28.117  25.950  -6.094  0.00  0.00    -0.221 OA
ENDROOT
TORSDOF 0
ENDMDL
