REMARK  5 active torsions:
REMARK  status: ('A' for Active; 'I' for Inactive)
REMARK    1  A    between atoms: N_6  and  C_7 
REMARK    2  A    between atoms: N_29  and  C_30 
REMARK    3  A    between atoms: C_36  and  C_41 
REMARK    4  A    between atoms: C_53  and  C_58 
REMARK    5  A    between atoms: N_63  and  C_64 
ROOT
HETATM    1  C   UNK N   1       0.406   8.834   0.000  0.00  0.00     0.241 A 
HETATM    2  O   UNK N   1       1.249   8.450   0.000  0.00  0.00    -0.271 OA
HETATM    3  C   UNK N   1       0.006   7.956  -0.000  0.00  0.00     0.278 A 
HETATM    4  O   UNK N   1      -0.470   6.307  -0.000  0.00  0.00    -0.345 OA
HETATM    5  C   UNK N   1       0.547   6.024   0.000  0.00  0.00     0.061 A 
HETATM    6  C   UNK N   1       1.035   5.359  -0.000  0.00  0.00    -0.024 A 
HETATM    7  C   UNK N   1       1.855   4.849  -0.000  0.00  0.00     0.010 A 
HETATM    8  C   UNK N   1       2.187   6.204   0.000  0.00  0.00    -0.003 A 
HETATM    9  C   UNK N   1       1.699   6.869   0.000  0.00  0.00    -0.015 A 
HETATM   10  C   UNK N   1       0.879   6.179   0.000  0.00  0.00     0.070 A 
HETATM   11  C   UNK N   1       0.348   7.411  -0.000  0.00  0.00     0.056 A 
HETATM   12  C   UNK N   1      -1.172   7.170   0.000  0.00  0.00    -0.023 A 
HETATM   13  C   UNK N   1      -1.263   8.590  -0.000  0.00  0.00     0.010 A 
HETATM   14  C   UNK N   1      -2.018   8.922   0.000  0.00  0.00     0.001 A 
HETATM   15  C   UNK N   1      -2.683   8.434   0.000  0.00  0.00     0.010 A 
HETATM   16  C   UNK N   1      -2.593   7.614   0.000  0.00  0.00    -0.020 A 
HETATM   17  C   UNK N   1      -1.837   6.682  -0.000  0.00  0.00     0.081 A 
HETATM   18  O   UNK N   1      -1.685   6.004   0.000  0.00  0.00    -0.346 OA
HETATM   19  C   UNK N   1      -2.442   6.106  -0.000  0.00  0.00     0.229 A 
HETATM   20  C   UNK N   1      -3.577   5.257   0.000  0.00  0.00     0.237 A 
HETATM   21  O   UNK N   1      -1.984   4.874  -0.000  0.00  0.00    -0.375 OA
ATOM     22  HO  UNK N   1      -2.744   4.305   0.000  1.00  0.00     0.212 HD
HETATM   23  N   UNK N   1      -3.379   3.604   0.000  0.00  0.00    -0.394 N 
HETATM   24  C   UNK N   1      -3.224   7.083  -0.000  0.00  0.00     0.078 A 
HETATM   25  C   UNK N   1      -3.584   6.163  -0.000  0.00  0.00    -0.046 A 
HETATM   26  C   UNK N   1      -4.404   6.072  -0.000  0.00  0.00     0.005 A 
HETATM   27  C   UNK N   1      -4.736   5.317   0.000  0.00  0.00    -0.003 A 
HETATM   28  C   UNK N   1      -4.248   4.652   0.000  0.00  0.00    -0.019 A 
HETATM   29  C   UNK N   1      -2.828   4.143   0.000  0.00  0.00     0.045 A 
HETATM   30  C   UNK N   1      -2.496   5.498   0.000  0.00  0.00     0.159 A 
HETATM   31  O   UNK N   1      -2.524   4.701  -0.000  0.00  0.00    -0.372 OA
HETATM   32  C   UNK N   1      -2.435   3.078  -0.000  0.00  0.00     0.271 A 
HETATM   33  C   UNK N   1      -2.409   2.120   0.000  0.00  0.00     0.241 A 
HETATM   34  O   UNK N   1      -3.120   2.249   0.000  0.00  0.00    -0.271 OA
HETATM   35  N   UNK N   1      -2.178   1.248   0.000  0.00  0.00    -0.358 N 
HETATM   36  C   UNK N   1      -1.725   0.382  -0.000  0.00  0.00     0.142 A 
HETATM   37  C   UNK N   1      -1.425   0.159   0.000  0.00  0.00     0.135 A 
HETATM   38  N   UNK N   1      -2.396  -0.619  -0.000  0.00  0.00    -0.419 N 
HETATM   39  C   UNK N   1      -1.325  -1.926   0.000  0.00  0.00     0.142 C 
HETATM   40  C   UNK N   1      -3.213  -1.460   0.000  0.00  0.00     0.142 C 
HETATM   41  C   UNK N   1      -2.897   4.111   0.000  0.00  0.00     0.048 A 
HETATM   42  C   UNK N   1      -1.377   3.751  -0.000  0.00  0.00    -0.046 A 
HETATM   43  C   UNK N   1      -1.467   3.971   0.000  0.00  0.00     0.006 A 
HETATM   44  C   UNK N   1      -0.802   5.059  -0.000  0.00  0.00     0.001 A 
HETATM   45  C   UNK N   1      -0.647   4.128  -0.000  0.00  0.00     0.006 A 
HETATM   46  C   UNK N   1       0.044   3.908  -0.000  0.00  0.00    -0.043 A 
HETATM   47  C   UNK N   1      -0.621   2.820   0.000  0.00  0.00     0.180 A 
HETATM   48  O   UNK N   1       0.083   2.228  -0.000  0.00  0.00    -0.368 OA
HETATM   49  C   UNK N   1       0.859   1.759   0.000  0.00  0.00     0.271 A 
HETATM   50  C   UNK N   1       1.730   2.242  -0.000  0.00  0.00     0.241 A 
HETATM   51  O   UNK N   1       1.476   3.007   0.000  0.00  0.00    -0.271 OA
HETATM   52  N   UNK N   1       1.907   1.232  -0.000  0.00  0.00    -0.358 N 
HETATM   53  C   UNK N   1       0.675   3.838   0.000  0.00  0.00     0.078 A 
HETATM   54  H   UNK N   1      -2.521   3.120   0.000  0.00  0.00     0.155 HD
HETATM   55  H   UNK N   1      -3.096   0.892  -0.000  0.00  0.00     0.162 HD
HETATM   56  H   UNK N   1       1.350   0.420   0.000  0.00  0.00     0.162 HD
ENDROOT
BRANCH   1  57
HETATM   57  N   UNK N   1       0.269   9.740   0.000  0.00  0.00    -0.358 N 
HETATM   58  C   UNK N   1      -0.198  10.612  -0.000  0.00  0.00     0.142 A 
HETATM   59  C   UNK N   1      -0.770  10.692   0.000  0.00  0.00     0.135 A 
HETATM   60  N   UNK N   1      -0.358  11.542  -0.000  0.00  0.00    -0.419 N 
HETATM   61  C   UNK N   1      -1.596  12.715   0.000  0.00  0.00     0.142 C 
HETATM   62  C   UNK N   1       0.392  12.528   0.000  0.00  0.00     0.142 C 
HETATM   63  H   UNK N   1       1.203  10.050   0.000  0.00  0.00     0.162 HD
ENDBRANCH   1  57
BRANCH  23  64
HETATM   64  C   UNK N   1      -4.727   2.993  -0.000  0.00  0.00     0.146 A 
HETATM   65  C   UNK N   1      -5.495   2.504   0.000  0.00  0.00     0.290 A 
HETATM   66  N   UNK N   1      -5.119   2.231   0.000  0.00  0.00     0.081 N 
HETATM   67  C   UNK N   1      -6.372   1.091  -0.000  0.00  0.00     0.309 A 
HETATM   68  C   UNK N   1      -4.704   0.887   0.000  0.00  0.00     0.309 C 
ENDBRANCH  23  64
BRANCH  52  69
HETATM   69  C   UNK N   1       3.332   1.517   0.000  0.00  0.00     0.152 A 
HETATM   70  C   UNK N   1       4.200   1.581  -0.000  0.00  0.00     0.290 A 
HETATM   71  N   UNK N   1       4.187   2.828   0.000  0.00  0.00     0.081 N 
HETATM   72  C   UNK N   1       5.614   2.039  -0.000  0.00  0.00     0.309 A 
HETATM   73  C   UNK N   1       4.790   3.687   0.000  0.00  0.00     0.309 C 
ENDBRANCH  52  69
TORSDOF 5
