MODEL 1
REMARK VINA RESULT:      -4.7      0.000      0.000
REMARK  5 active torsions:
REMARK  status: ('A' for Active; 'I' for Inactive)
REMARK    1  A    between atoms: C_6  and  C_2 
REMARK    2  A    between atoms: C_6  and  C_4 
REMARK    3  A    between atoms: N_11  and  C_4 
REMARK    4  A    between atoms: O_13  and  C_6 
REMARK    5  A    between atoms: N_12  and  C_7 
ROOT
HETATM    1  C   UNK N   1      29.069  23.564  -6.911  0.00  0.00     0.089 C 
HETATM    2  C   UNK N   1      30.177  21.705  -4.059  0.00  0.00     0.144 A 
HETATM    3  C   UNK N   1      29.409  23.043  -5.560  0.00  0.00     0.081 A 
HETATM    4  C   UNK N   1      29.576  22.784  -3.440  0.00  0.00     0.193 A 
HETATM    5  N   UNK N   1      30.071  21.879  -5.391  0.00  0.00    -0.352 N 
ATOM      6  HN  UNK N   1      30.420  21.259  -6.123  1.00  0.00     0.166 HD
HETATM    7  N   UNK N   1      29.091  23.627  -4.379  0.00  0.00    -0.315 N 
ENDROOT
BRANCH   7   8
HETATM    8  C   UNK N   1      28.305  24.844  -4.117  0.00  0.00     0.165 C 
BRANCH   8   9
HETATM    9  C   UNK N   1      26.786  24.710  -4.235  0.00  0.00     0.150 C 
BRANCH   9  10
HETATM   10  C   UNK N   1      26.215  26.121  -4.318  0.00  0.00     0.148 C 
HETATM   11 Cl   UNK N   1      24.988  26.285  -5.609  0.00  0.00    -0.128 Cl
ENDBRANCH   9  10
BRANCH   9  12
HETATM   12  O   UNK N   1      26.297  24.112  -3.075  0.00  0.00    -0.393 OA
HETATM   13  H   UNK N   1      25.369  23.891  -2.898  0.00  0.00     0.210 HD
ENDBRANCH   9  12
ENDBRANCH   8   9
ENDBRANCH   7   8
BRANCH   4  14
HETATM   14  N   UNK N   1      29.458  22.943  -2.030  0.00  0.00    -0.096 N 
HETATM   15  O   UNK N   1      30.430  23.075  -1.349  0.00  0.00    -0.530 OA
HETATM   16  O   UNK N   1      28.380  22.938  -1.518  0.00  0.00    -0.530 OA
ENDBRANCH   4  14
TORSDOF 5
ENDMDL
MODEL 2
REMARK VINA RESULT:      -4.6      3.259      4.931
REMARK  5 active torsions:
REMARK  status: ('A' for Active; 'I' for Inactive)
REMARK    1  A    between atoms: C_6  and  C_2 
REMARK    2  A    between atoms: C_6  and  C_4 
REMARK    3  A    between atoms: N_11  and  C_4 
REMARK    4  A    between atoms: O_13  and  C_6 
REMARK    5  A    between atoms: N_12  and  C_7 
ROOT
HETATM    1  C   UNK N   1      30.246  21.573  -6.633  0.00  0.00     0.089 C 
HETATM    2  C   UNK N   1      28.729  23.775  -4.252  0.00  0.00     0.144 A 
HETATM    3  C   UNK N   1      29.747  22.285  -5.426  0.00  0.00     0.081 A 
HETATM    4  C   UNK N   1      29.383  22.900  -3.407  0.00  0.00     0.193 A 
HETATM    5  N   UNK N   1      28.959  23.377  -5.520  0.00  0.00    -0.352 N 
ATOM      6  HN  UNK N   1      28.610  23.813  -6.375  1.00  0.00     0.166 HD
HETATM    7  N   UNK N   1      30.025  21.963  -4.140  0.00  0.00    -0.315 N 
ENDROOT
BRANCH   7   8
HETATM    8  C   UNK N   1      30.906  20.910  -3.607  0.00  0.00     0.165 C 
BRANCH   8   9
HETATM    9  C   UNK N   1      32.371  21.294  -3.395  0.00  0.00     0.150 C 
BRANCH   9  10
HETATM   10  C   UNK N   1      33.217  20.262  -4.132  0.00  0.00     0.148 C 
HETATM   11 Cl   UNK N   1      34.177  20.988  -5.455  0.00  0.00    -0.128 Cl
ENDBRANCH   9  10
BRANCH   9  12
HETATM   12  O   UNK N   1      32.666  21.205  -2.035  0.00  0.00    -0.393 OA
HETATM   13  H   UNK N   1      32.018  21.174  -1.315  0.00  0.00     0.210 HD
ENDBRANCH   9  12
ENDBRANCH   8   9
ENDBRANCH   7   8
BRANCH   4  14
HETATM   14  N   UNK N   1      29.402  23.011  -1.988  0.00  0.00    -0.096 N 
HETATM   15  O   UNK N   1      28.389  22.940  -1.359  0.00  0.00    -0.530 OA
HETATM   16  O   UNK N   1      30.435  23.185  -1.417  0.00  0.00    -0.530 OA
ENDBRANCH   4  14
TORSDOF 5
ENDMDL
MODEL 3
REMARK VINA RESULT:      -4.6     14.396     16.076
REMARK  5 active torsions:
REMARK  status: ('A' for Active; 'I' for Inactive)
REMARK    1  A    between atoms: C_6  and  C_2 
REMARK    2  A    between atoms: C_6  and  C_4 
REMARK    3  A    between atoms: N_11  and  C_4 
REMARK    4  A    between atoms: O_13  and  C_6 
REMARK    5  A    between atoms: N_12  and  C_7 
ROOT
HETATM    1  C   UNK N   1      33.398  12.910   7.493  0.00  0.00     0.089 C 
HETATM    2  C   UNK N   1      34.217  14.423  10.633  0.00  0.00     0.144 A 
HETATM    3  C   UNK N   1      33.897  13.754   8.612  0.00  0.00     0.081 A 
HETATM    4  C   UNK N   1      34.800  15.320   9.760  0.00  0.00     0.193 A 
HETATM    5  N   UNK N   1      33.655  13.438   9.902  0.00  0.00    -0.352 N 
ATOM      6  HN  UNK N   1      33.151  12.623  10.252  1.00  0.00     0.166 HD
HETATM    7  N   UNK N   1      34.601  14.904   8.489  0.00  0.00    -0.315 N 
ENDROOT
BRANCH   7   8
HETATM    8  C   UNK N   1      34.993  15.638   7.274  0.00  0.00     0.165 C 
BRANCH   8   9
HETATM    9  C   UNK N   1      33.989  16.662   6.745  0.00  0.00     0.150 C 
BRANCH   9  10
HETATM   10  C   UNK N   1      33.805  16.386   5.258  0.00  0.00     0.148 C 
HETATM   11 Cl   UNK N   1      32.946  17.713   4.420  0.00  0.00    -0.128 Cl
ENDBRANCH   9  10
BRANCH   9  12
HETATM   12  O   UNK N   1      34.533  17.939   6.885  0.00  0.00    -0.393 OA
HETATM   13  H   UNK N   1      35.456  18.141   7.103  0.00  0.00     0.210 HD
ENDBRANCH   9  12
ENDBRANCH   8   9
ENDBRANCH   7   8
BRANCH   4  14
HETATM   14  N   UNK N   1      35.466  16.515  10.156  0.00  0.00    -0.096 N 
HETATM   15  O   UNK N   1      36.526  16.466  10.706  0.00  0.00    -0.530 OA
HETATM   16  O   UNK N   1      34.963  17.576   9.946  0.00  0.00    -0.530 OA
ENDBRANCH   4  14
TORSDOF 5
ENDMDL
MODEL 4
REMARK VINA RESULT:      -4.5      2.920      4.172
REMARK  5 active torsions:
REMARK  status: ('A' for Active; 'I' for Inactive)
REMARK    1  A    between atoms: C_6  and  C_2 
REMARK    2  A    between atoms: C_6  and  C_4 
REMARK    3  A    between atoms: N_11  and  C_4 
REMARK    4  A    between atoms: O_13  and  C_6 
REMARK    5  A    between atoms: N_12  and  C_7 
ROOT
HETATM    1  C   UNK N   1      24.521  27.252  -5.692  0.00  0.00     0.089 C 
HETATM    2  C   UNK N   1      26.158  24.089  -5.329  0.00  0.00     0.144 A 
HETATM    3  C   UNK N   1      25.342  26.080  -5.285  0.00  0.00     0.081 A 
HETATM    4  C   UNK N   1      26.647  24.755  -4.223  0.00  0.00     0.193 A 
HETATM    5  N   UNK N   1      25.341  24.931  -5.994  0.00  0.00    -0.352 N 
ATOM      6  HN  UNK N   1      24.828  24.740  -6.855  1.00  0.00     0.166 HD
HETATM    7  N   UNK N   1      26.137  26.006  -4.191  0.00  0.00    -0.315 N 
ENDROOT
BRANCH   7   8
HETATM    8  C   UNK N   1      26.349  26.993  -3.119  0.00  0.00     0.165 C 
BRANCH   8   9
HETATM    9  C   UNK N   1      27.158  28.237  -3.491  0.00  0.00     0.150 C 
BRANCH   9  10
HETATM   10  C   UNK N   1      28.590  27.782  -3.746  0.00  0.00     0.148 C 
HETATM   11 Cl   UNK N   1      28.921  27.518  -5.484  0.00  0.00    -0.128 Cl
ENDBRANCH   9  10
BRANCH   9  12
HETATM   12  O   UNK N   1      27.167  29.109  -2.403  0.00  0.00    -0.393 OA
HETATM   13  H   UNK N   1      27.832  29.127  -1.697  0.00  0.00     0.210 HD
ENDBRANCH   9  12
ENDBRANCH   8   9
ENDBRANCH   7   8
BRANCH   4  14
HETATM   14  N   UNK N   1      27.520  24.180  -3.256  0.00  0.00    -0.096 N 
HETATM   15  O   UNK N   1      27.081  23.655  -2.277  0.00  0.00    -0.530 OA
HETATM   16  O   UNK N   1      28.701  24.228  -3.416  0.00  0.00    -0.530 OA
ENDBRANCH   4  14
TORSDOF 5
ENDMDL
MODEL 5
REMARK VINA RESULT:      -4.5     11.956     13.380
REMARK  5 active torsions:
REMARK  status: ('A' for Active; 'I' for Inactive)
REMARK    1  A    between atoms: C_6  and  C_2 
REMARK    2  A    between atoms: C_6  and  C_4 
REMARK    3  A    between atoms: N_11  and  C_4 
REMARK    4  A    between atoms: O_13  and  C_6 
REMARK    5  A    between atoms: N_12  and  C_7 
ROOT
HETATM    1  C   UNK N   1      29.111  16.533   5.677  0.00  0.00     0.089 C 
HETATM    2  C   UNK N   1      32.221  17.745   4.381  0.00  0.00     0.144 A 
HETATM    3  C   UNK N   1      30.523  16.924   5.418  0.00  0.00     0.081 A 
HETATM    4  C   UNK N   1      32.645  17.174   5.564  0.00  0.00     0.193 A 
HETATM    5  N   UNK N   1      30.884  17.587   4.300  0.00  0.00    -0.352 N 
ATOM      6  HN  UNK N   1      30.271  17.904   3.548  1.00  0.00     0.166 HD
HETATM    7  N   UNK N   1      31.582  16.656   6.219  0.00  0.00    -0.315 N 
ENDROOT
BRANCH   7   8
HETATM    8  C   UNK N   1      31.638  15.886   7.473  0.00  0.00     0.165 C 
BRANCH   8   9
HETATM    9  C   UNK N   1      31.672  16.699   8.768  0.00  0.00     0.150 C 
BRANCH   9  10
HETATM   10  C   UNK N   1      31.023  18.045   8.471  0.00  0.00     0.148 C 
HETATM   11 Cl   UNK N   1      29.389  18.186   9.184  0.00  0.00    -0.128 Cl
ENDBRANCH   9  10
BRANCH   9  12
HETATM   12  O   UNK N   1      33.002  16.927   9.120  0.00  0.00    -0.393 OA
HETATM   13  H   UNK N   1      33.624  17.501   8.646  0.00  0.00     0.210 HD
ENDBRANCH   9  12
ENDBRANCH   8   9
ENDBRANCH   7   8
BRANCH   4  14
HETATM   14  N   UNK N   1      34.003  17.112   5.989  0.00  0.00    -0.096 N 
HETATM   15  O   UNK N   1      34.707  16.209   5.649  0.00  0.00    -0.530 OA
HETATM   16  O   UNK N   1      34.445  17.965   6.698  0.00  0.00    -0.530 OA
ENDBRANCH   4  14
TORSDOF 5
ENDMDL
MODEL 6
REMARK VINA RESULT:      -4.5     12.059     13.549
REMARK  5 active torsions:
REMARK  status: ('A' for Active; 'I' for Inactive)
REMARK    1  A    between atoms: C_6  and  C_2 
REMARK    2  A    between atoms: C_6  and  C_4 
REMARK    3  A    between atoms: N_11  and  C_4 
REMARK    4  A    between atoms: O_13  and  C_6 
REMARK    5  A    between atoms: N_12  and  C_7 
ROOT
HETATM    1  C   UNK N   1      30.066  17.441   4.465  0.00  0.00     0.089 C 
HETATM    2  C   UNK N   1      27.865  18.876   6.897  0.00  0.00     0.144 A 
HETATM    3  C   UNK N   1      29.320  17.854   5.684  0.00  0.00     0.081 A 
HETATM    4  C   UNK N   1      28.682  18.119   7.712  0.00  0.00     0.193 A 
HETATM    5  N   UNK N   1      28.270  18.700   5.623  0.00  0.00    -0.352 N 
ATOM      6  HN  UNK N   1      27.866  19.120   4.785  1.00  0.00     0.166 HD
HETATM    7  N   UNK N   1      29.599  17.475   6.954  0.00  0.00    -0.315 N 
ENDROOT
BRANCH   7   8
HETATM    8  C   UNK N   1      30.702  16.642   7.463  0.00  0.00     0.165 C 
BRANCH   8   9
HETATM    9  C   UNK N   1      31.986  17.378   7.848  0.00  0.00     0.150 C 
BRANCH   9  10
HETATM   10  C   UNK N   1      33.143  16.638   7.187  0.00  0.00     0.148 C 
HETATM   11 Cl   UNK N   1      33.664  17.414   5.662  0.00  0.00    -0.128 Cl
ENDBRANCH   9  10
BRANCH   9  12
HETATM   12  O   UNK N   1      32.153  17.296   9.230  0.00  0.00    -0.393 OA
HETATM   13  H   UNK N   1      32.808  17.785   9.753  0.00  0.00     0.210 HD
ENDBRANCH   9  12
ENDBRANCH   8   9
ENDBRANCH   7   8
BRANCH   4  14
HETATM   14  N   UNK N   1      28.586  18.070   9.132  0.00  0.00    -0.096 N 
HETATM   15  O   UNK N   1      29.335  18.703   9.814  0.00  0.00    -0.530 OA
HETATM   16  O   UNK N   1      27.755  17.388   9.649  0.00  0.00    -0.530 OA
ENDBRANCH   4  14
TORSDOF 5
ENDMDL
MODEL 7
REMARK VINA RESULT:      -4.4     12.480     13.417
REMARK  5 active torsions:
REMARK  status: ('A' for Active; 'I' for Inactive)
REMARK    1  A    between atoms: C_6  and  C_2 
REMARK    2  A    between atoms: C_6  and  C_4 
REMARK    3  A    between atoms: N_11  and  C_4 
REMARK    4  A    between atoms: O_13  and  C_6 
REMARK    5  A    between atoms: N_12  and  C_7 
ROOT
HETATM    1  C   UNK N   1      19.635  14.987   3.516  0.00  0.00     0.089 C 
HETATM    2  C   UNK N   1      20.132  18.134   1.883  0.00  0.00     0.144 A 
HETATM    3  C   UNK N   1      19.924  16.396   3.135  0.00  0.00     0.081 A 
HETATM    4  C   UNK N   1      20.531  18.449   3.167  0.00  0.00     0.193 A 
HETATM    5  N   UNK N   1      19.747  16.842   1.873  0.00  0.00    -0.352 N 
ATOM      6  HN  UNK N   1      19.395  16.310   1.077  1.00  0.00     0.166 HD
HETATM    7  N   UNK N   1      20.403  17.360   3.957  0.00  0.00    -0.315 N 
ENDROOT
BRANCH   7   8
HETATM    8  C   UNK N   1      20.812  17.270   5.369  0.00  0.00     0.165 C 
BRANCH   8   9
HETATM    9  C   UNK N   1      22.294  16.997   5.631  0.00  0.00     0.150 C 
BRANCH   9  10
HETATM   10  C   UNK N   1      22.369  15.942   6.728  0.00  0.00     0.148 C 
HETATM   11 Cl   UNK N   1      20.984  16.030   7.855  0.00  0.00    -0.128 Cl
ENDBRANCH   9  10
BRANCH   9  12
HETATM   12  O   UNK N   1      22.887  18.164   6.112  0.00  0.00    -0.393 OA
HETATM   13  H   UNK N   1      22.421  18.914   6.511  0.00  0.00     0.210 HD
ENDBRANCH   9  12
ENDBRANCH   8   9
ENDBRANCH   7   8
BRANCH   4  14
HETATM   14  N   UNK N   1      21.037  19.719   3.566  0.00  0.00    -0.096 N 
HETATM   15  O   UNK N   1      20.292  20.599   3.881  0.00  0.00    -0.530 OA
HETATM   16  O   UNK N   1      22.214  19.915   3.580  0.00  0.00    -0.530 OA
ENDBRANCH   4  14
TORSDOF 5
ENDMDL
MODEL 8
REMARK VINA RESULT:      -4.3     11.254     12.871
REMARK  5 active torsions:
REMARK  status: ('A' for Active; 'I' for Inactive)
REMARK    1  A    between atoms: C_6  and  C_2 
REMARK    2  A    between atoms: C_6  and  C_4 
REMARK    3  A    between atoms: N_11  and  C_4 
REMARK    4  A    between atoms: O_13  and  C_6 
REMARK    5  A    between atoms: N_12  and  C_7 
ROOT
HETATM    1  C   UNK N   1      29.400  17.284   8.262  0.00  0.00     0.089 C 
HETATM    2  C   UNK N   1      32.909  17.980   8.394  0.00  0.00     0.144 A 
HETATM    3  C   UNK N   1      30.862  17.428   8.026  0.00  0.00     0.081 A 
HETATM    4  C   UNK N   1      32.811  17.412   7.139  0.00  0.00     0.193 A 
HETATM    5  N   UNK N   1      31.679  17.982   8.946  0.00  0.00    -0.352 N 
ATOM      6  HN  UNK N   1      31.419  18.330   9.869  1.00  0.00     0.166 HD
HETATM    7  N   UNK N   1      31.526  17.064   6.903  0.00  0.00    -0.315 N 
ENDROOT
BRANCH   7   8
HETATM    8  C   UNK N   1      31.004  16.511   5.642  0.00  0.00     0.165 C 
BRANCH   8   9
HETATM    9  C   UNK N   1      30.451  17.522   4.636  0.00  0.00     0.150 C 
BRANCH   9  10
HETATM   10  C   UNK N   1      29.300  16.843   3.903  0.00  0.00     0.148 C 
HETATM   11 Cl   UNK N   1      27.844  17.878   3.815  0.00  0.00    -0.128 Cl
ENDBRANCH   9  10
BRANCH   9  12
HETATM   12  O   UNK N   1      31.445  17.816   3.703  0.00  0.00    -0.393 OA
HETATM   13  H   UNK N   1      31.609  18.685   3.305  0.00  0.00     0.210 HD
ENDBRANCH   9  12
ENDBRANCH   8   9
ENDBRANCH   7   8
BRANCH   4  14
HETATM   14  N   UNK N   1      33.900  17.263   6.233  0.00  0.00    -0.096 N 
HETATM   15  O   UNK N   1      34.763  16.465   6.444  0.00  0.00    -0.530 OA
HETATM   16  O   UNK N   1      33.958  17.945   5.256  0.00  0.00    -0.530 OA
ENDBRANCH   4  14
TORSDOF 5
ENDMDL
MODEL 9
REMARK VINA RESULT:      -4.3     17.833     19.400
REMARK  5 active torsions:
REMARK  status: ('A' for Active; 'I' for Inactive)
REMARK    1  A    between atoms: C_6  and  C_2 
REMARK    2  A    between atoms: C_6  and  C_4 
REMARK    3  A    between atoms: N_11  and  C_4 
REMARK    4  A    between atoms: O_13  and  C_6 
REMARK    5  A    between atoms: N_12  and  C_7 
ROOT
HETATM    1  C   UNK N   1      35.197  13.090   8.823  0.00  0.00     0.089 C 
HETATM    2  C   UNK N   1      36.466  12.153  12.037  0.00  0.00     0.144 A 
HETATM    3  C   UNK N   1      35.606  12.989  10.250  0.00  0.00     0.081 A 
HETATM    4  C   UNK N   1      35.871  13.361  12.343  0.00  0.00     0.193 A 
HETATM    5  N   UNK N   1      36.298  11.929  10.718  0.00  0.00    -0.352 N 
ATOM      6  HN  UNK N   1      36.627  11.125  10.183  1.00  0.00     0.166 HD
HETATM    7  N   UNK N   1      35.329  13.890  11.223  0.00  0.00    -0.315 N 
ENDROOT
BRANCH   7   8
HETATM    8  C   UNK N   1      34.530  15.126  11.156  0.00  0.00     0.165 C 
BRANCH   8   9
HETATM    9  C   UNK N   1      35.306  16.424  10.930  0.00  0.00     0.150 C 
BRANCH   9  10
HETATM   10  C   UNK N   1      34.962  16.916   9.530  0.00  0.00     0.148 C 
HETATM   11 Cl   UNK N   1      33.373  16.317   8.969  0.00  0.00    -0.128 Cl
ENDBRANCH   9  10
BRANCH   9  12
HETATM   12  O   UNK N   1      36.672  16.143  10.967  0.00  0.00    -0.393 OA
HETATM   13  H   UNK N   1      37.384  16.763  10.746  0.00  0.00     0.210 HD
ENDBRANCH   9  12
ENDBRANCH   8   9
ENDBRANCH   7   8
BRANCH   4  14
HETATM   14  N   UNK N   1      35.812  13.924  13.649  0.00  0.00    -0.096 N 
HETATM   15  O   UNK N   1      35.031  13.514  14.454  0.00  0.00    -0.530 OA
HETATM   16  O   UNK N   1      36.543  14.820  13.946  0.00  0.00    -0.530 OA
ENDBRANCH   4  14
TORSDOF 5
ENDMDL
