REMARK  4 active torsions:
REMARK  status: ('A' for Active; 'I' for Inactive)
REMARK    1  A    between atoms: C_9  and  N_3 
REMARK    2  A    between atoms: C_11  and  O_16 
REMARK    3  A    between atoms: C_12  and  C_14 
REMARK    4  A    between atoms: C_14  and  O_15 
ROOT
HETATM    1  C   UNK N   1      -1.235   1.834  -0.397  0.00  0.00     0.269 C 
HETATM    2  C   UNK N   1       0.070   1.167  -0.011  0.00  0.00     0.250 C 
HETATM    3  C   UNK N   1      -0.367  -0.247  -0.112  0.00  0.00     0.187 C 
HETATM    4  C   UNK N   1      -1.759  -0.167   0.485  0.00  0.00     0.179 C 
HETATM    5  O   UNK N   1      -2.239   1.153   0.320  0.00  0.00    -0.353 OA
HETATM    6  F   UNK N   1       1.098   1.447  -0.891  0.00  0.00    -0.242 F 
ENDROOT
BRANCH   1   7
HETATM    7  N   UNK N   1      -1.271   3.292  -0.148  0.00  0.00    -0.279 N 
HETATM    8  C   UNK N   1      -0.119   3.974   0.123  0.00  0.00     0.104 A 
HETATM    9  C   UNK N   1      -0.128   5.354   0.310  0.00  0.00     0.092 A 
HETATM   10  C   UNK N   1      -1.335   6.034   0.221  0.00  0.00     0.250 A 
HETATM   11  N   UNK N   1      -2.485   5.346  -0.044  0.00  0.00    -0.275 N 
HETATM   12  O   UNK N   1      -1.369   7.240   0.378  0.00  0.00    -0.268 OA
HETATM   13  C   UNK N   1      -2.466   3.988  -0.236  0.00  0.00     0.331 A 
HETATM   14  H   UNK N   1      -3.340   5.831  -0.099  0.00  0.00     0.173 HD
HETATM   15  O   UNK N   1      -3.509   3.406  -0.478  0.00  0.00    -0.246 OA
ENDBRANCH   1   7
BRANCH   3  16
HETATM   16  O   UNK N   1       0.456  -1.087   0.640  0.00  0.00    -0.390 OA
HETATM   17  H   UNK N   1       0.236  -1.874   1.162  0.00  0.00     0.210 HD
ENDBRANCH   3  16
BRANCH   4  18
HETATM   18  C   UNK N   1      -2.688  -1.155  -0.207  0.00  0.00     0.198 C 
BRANCH  18  19
HETATM   19  O   UNK N   1      -2.279  -2.466   0.045  0.00  0.00    -0.398 OA
HETATM   20  H   UNK N   1      -2.926  -3.167   0.220  0.00  0.00     0.209 HD
ENDBRANCH  18  19
ENDBRANCH   4  18
TORSDOF 4
