REMARK  12 active torsions:
REMARK  status: ('A' for Active; 'I' for Inactive)
REMARK    1  A    between atoms: C_2  and  O_3 
REMARK    2  A    between atoms: C_4  and  O_3 
REMARK    3  A    between atoms: C_4  and  C_5 
REMARK    4  A    between atoms: C_4  and  C_29 
REMARK    5  A    between atoms: C_5  and  C_6 
REMARK    6  A    between atoms: C_9  and  O_12 
REMARK    7  A    between atoms: O_12  and  C_13 
REMARK    8  A    between atoms: C_13  and  C_14 
REMARK    9  A    between atoms: C_14  and  N_15 
REMARK   10  A    between atoms: C_19  and  C_20 
REMARK   11  A    between atoms: C_23  and  S_26 
REMARK   12  A    between atoms: C_29  and  O_31 
ROOT
HETATM    1  O   UNK N   1       2.962  -0.811  -1.157  0.00  0.00    -0.350 OA
ENDROOT
BRANCH   1   2
HETATM    2  C   UNK N   1       3.850  -1.550  -0.447  0.00  0.00     0.068 A 
HETATM    3  C   UNK N   1       3.462  -2.699   0.265  0.00  0.00     0.037 A 
HETATM    4  C   UNK N   1       4.420  -3.522   0.851  0.00  0.00     0.010 A 
HETATM    5  C   UNK N   1       5.776  -3.197   0.744  0.00  0.00    -0.055 A 
HETATM    6  C   UNK N   1       6.162  -2.019   0.099  0.00  0.00     0.010 A 
HETATM    7  C   UNK N   1       5.201  -1.198  -0.494  0.00  0.00     0.037 A 
BRANCH   5   8
HETATM    8  C   UNK N   1       6.820  -4.144   1.221  0.00  0.00     0.081 C 
BRANCH   8   9
HETATM    9  C   UNK N   1       6.779  -5.409   0.357  0.00  0.00     0.223 C 
BRANCH   9  10
HETATM   10  O   UNK N   1       5.930  -6.361   0.931  0.00  0.00    -0.375 OA
BRANCH  10  11
HETATM   11  C   UNK N   1       5.033  -6.714  -0.081  0.00  0.00     0.164 C 
HETATM   12  C   UNK N   1       3.703  -7.101   0.531  0.00  0.00     0.033 C 
ENDBRANCH  10  11
ENDBRANCH   9  10
BRANCH   9  13
HETATM   13  C   UNK N   1       8.136  -6.006   0.107  0.00  0.00     0.170 C 
HETATM   14  O   UNK N   1       9.140  -5.512   0.597  0.00  0.00    -0.648 OA
BRANCH  13  15
HETATM   15  O   UNK N   1       8.248  -7.088  -0.686  0.00  0.00    -0.774 OA
HETATM   16  H   UNK N   1       7.634  -7.532  -1.239  0.00  0.00     0.167 HD
ENDBRANCH  13  15
ENDBRANCH   9  13
ENDBRANCH   8   9
ENDBRANCH   5   8
ENDBRANCH   1   2
BRANCH   1  17
HETATM   17  C   UNK N   1       1.608  -1.063  -1.258  0.00  0.00     0.196 C 
BRANCH  17  18
HETATM   18  C   UNK N   1       1.281  -2.514  -1.607  0.00  0.00     0.156 C 
BRANCH  18  19
HETATM   19  N   UNK N   1       0.318  -3.138  -0.678  0.00  0.00    -0.348 N 
HETATM   20  C   UNK N   1       0.172  -4.469  -0.537  0.00  0.00     0.008 A 
HETATM   21  C   UNK N   1      -0.850  -4.757   0.349  0.00  0.00     0.027 A 
HETATM   22  C   UNK N   1       0.985  -5.494  -1.251  0.00  0.00     0.068 C 
HETATM   23  C   UNK N   1      -1.359  -3.536   0.767  0.00  0.00     0.032 A 
HETATM   24  C   UNK N   1      -0.608  -2.564   0.129  0.00  0.00     0.045 A 
BRANCH  24  25
HETATM   25  C   UNK N   1      -0.836  -1.120   0.275  0.00  0.00    -0.009 A 
HETATM   26  C   UNK N   1      -1.883  -0.511  -0.423  0.00  0.00     0.015 A 
HETATM   27  C   UNK N   1      -2.016   0.880  -0.410  0.00  0.00     0.019 A 
HETATM   28  C   UNK N   1      -1.106   1.666   0.307  0.00  0.00    -0.000 A 
HETATM   29  C   UNK N   1      -0.074   1.058   1.028  0.00  0.00     0.019 A 
HETATM   30  C   UNK N   1       0.062  -0.332   1.011  0.00  0.00     0.015 A 
BRANCH  28  31
HETATM   31  S   UNK N   1      -1.225   3.449   0.256  0.00  0.00    -0.134 SA
HETATM   32  C   UNK N   1      -2.653   3.487   1.373  0.00  0.00     0.095 C 
ENDBRANCH  28  31
ENDBRANCH  24  25
ENDBRANCH  18  19
ENDBRANCH  17  18
ENDBRANCH   1  17
TORSDOF 12
