MODEL 1
REMARK VINA RESULT:      -6.8      0.000      0.000
REMARK  20 active torsions:
REMARK  status: ('A' for Active; 'I' for Inactive)
REMARK    1  A    between atoms: C_18  and  C_12 
REMARK    2  A    between atoms: C_19  and  C_12 
REMARK    3  A    between atoms: C_20  and  C_13 
REMARK    4  A    between atoms: C_21  and  C_13 
REMARK    5  A    between atoms: C_22  and  C_14 
REMARK    6  A    between atoms: C_23  and  C_14 
REMARK    7  A    between atoms: C_24  and  C_15 
REMARK    8  A    between atoms: C_25  and  C_15 
REMARK    9  A    between atoms: C_26  and  C_16 
REMARK   10  A    between atoms: C_27  and  C_16 
REMARK   11  A    between atoms: C_28  and  C_17 
REMARK   12  A    between atoms: C_29  and  C_17 
REMARK   13  A    between atoms: C_35  and  C_19 
REMARK   14  A    between atoms: C_36  and  C_21 
REMARK   15  A    between atoms: C_37  and  C_23 
REMARK   16  A    between atoms: C_38  and  C_25 
REMARK   17  A    between atoms: C_39  and  C_27 
REMARK   18  A    between atoms: C_40  and  C_29 
REMARK   19  A    between atoms: C_33  and  C_32 
REMARK   20  A    between atoms: C_42  and  C_33 
ROOT
HETATM    1  C   UNK N   1      24.744  17.491   4.842  0.00  0.00     0.031 C 
ENDROOT
BRANCH   1   2
HETATM    2  C   UNK N   1      26.027  16.964   4.290  0.00  0.00    -0.024 C 
HETATM    3  C   UNK N   1      26.035  16.110   3.255  0.00  0.00    -0.087 C 
HETATM    4  C   UNK N   1      24.777  15.716   2.546  0.00  0.00     0.043 C 
BRANCH   3   5
HETATM    5  C   UNK N   1      27.299  15.432   2.868  0.00  0.00     0.037 C 
BRANCH   5   6
HETATM    6  C   UNK N   1      28.451  15.753   3.792  0.00  0.00     0.031 C 
BRANCH   6   7
HETATM    7  C   UNK N   1      29.532  16.568   3.161  0.00  0.00    -0.024 C 
HETATM    8  C   UNK N   1      30.816  16.164   3.104  0.00  0.00    -0.087 C 
HETATM    9  C   UNK N   1      31.249  14.807   3.566  0.00  0.00     0.043 C 
BRANCH   8  10
HETATM   10  C   UNK N   1      31.859  17.141   2.683  0.00  0.00     0.037 C 
BRANCH  10  11
HETATM   11  C   UNK N   1      33.055  16.807   3.567  0.00  0.00     0.031 C 
BRANCH  11  12
HETATM   12  C   UNK N   1      33.128  17.538   4.865  0.00  0.00    -0.024 C 
HETATM   13  C   UNK N   1      33.792  17.107   5.960  0.00  0.00    -0.087 C 
HETATM   14  C   UNK N   1      34.572  15.835   5.990  0.00  0.00     0.043 C 
BRANCH  13  15
HETATM   15  C   UNK N   1      33.746  17.913   7.213  0.00  0.00     0.037 C 
BRANCH  15  16
HETATM   16  C   UNK N   1      33.036  17.154   8.320  0.00  0.00     0.031 C 
BRANCH  16  17
HETATM   17  C   UNK N   1      31.732  17.834   8.577  0.00  0.00    -0.024 C 
HETATM   18  C   UNK N   1      30.592  17.405   8.010  0.00  0.00    -0.087 C 
HETATM   19  C   UNK N   1      30.576  16.211   7.105  0.00  0.00     0.043 C 
BRANCH  18  20
HETATM   20  C   UNK N   1      29.307  18.114   8.272  0.00  0.00     0.037 C 
BRANCH  20  21
HETATM   21  C   UNK N   1      28.510  18.238   6.984  0.00  0.00     0.031 C 
BRANCH  21  22
HETATM   22  C   UNK N   1      27.757  19.531   6.958  0.00  0.00    -0.024 C 
HETATM   23  C   UNK N   1      27.621  20.280   5.855  0.00  0.00    -0.091 C 
HETATM   24  C   UNK N   1      26.847  21.547   5.931  0.00  0.00     0.042 C 
HETATM   25  C   UNK N   1      28.221  19.877   4.543  0.00  0.00     0.042 C 
ENDBRANCH  21  22
ENDBRANCH  20  21
ENDBRANCH  18  20
ENDBRANCH  16  17
ENDBRANCH  15  16
ENDBRANCH  13  15
ENDBRANCH  11  12
ENDBRANCH  10  11
ENDBRANCH   8  10
ENDBRANCH   6   7
ENDBRANCH   5   6
ENDBRANCH   3   5
ENDBRANCH   1   2
BRANCH   1  26
HETATM   26  C   UNK N   1      24.636  18.944   4.395  0.00  0.00     0.037 C 
BRANCH  26  27
HETATM   27  C   UNK N   1      23.280  19.223   3.799  0.00  0.00    -0.087 C 
HETATM   28  C   UNK N   1      23.122  20.382   2.862  0.00  0.00     0.043 C 
HETATM   29  C   UNK N   1      22.234  18.447   4.114  0.00  0.00    -0.024 C 
BRANCH  29  30
HETATM   30  C   UNK N   1      20.867  18.667   3.494  0.00  0.00     0.031 C 
BRANCH  30  31
HETATM   31  C   UNK N   1      20.525  17.562   2.472  0.00  0.00     0.037 C 
BRANCH  31  32
HETATM   32  C   UNK N   1      20.249  16.334   3.267  0.00  0.00    -0.087 C 
HETATM   33  C   UNK N   1      19.300  16.432   4.423  0.00  0.00     0.043 C 
HETATM   34  C   UNK N   1      21.035  15.258   3.087  0.00  0.00    -0.020 C 
BRANCH  34  35
HETATM   35  C   UNK N   1      21.108  14.252   4.175  0.00  0.00     0.070 C 
BRANCH  35  36
HETATM   36  C   UNK N   1      22.407  13.775   4.713  0.00  0.00     0.006 A 
HETATM   37  C   UNK N   1      22.949  14.393   5.788  0.00  0.00    -0.001 A 
HETATM   38  C   UNK N   1      22.170  15.427   6.548  0.00  0.00     0.053 C 
HETATM   39  C   UNK N   1      24.351  14.118   6.173  0.00  0.00     0.189 A 
HETATM   40  C   UNK N   1      25.188  13.232   5.338  0.00  0.00     0.029 A 
HETATM   41  O   UNK N   1      24.841  14.698   7.136  0.00  0.00    -0.287 OA
HETATM   42  C   UNK N   1      26.553  13.073   5.605  0.00  0.00     0.016 A 
HETATM   43  C   UNK N   1      24.612  12.565   4.238  0.00  0.00     0.029 A 
HETATM   44  C   UNK N   1      27.342  12.260   4.789  0.00  0.00     0.001 A 
HETATM   45  C   UNK N   1      26.767  11.589   3.705  0.00  0.00     0.001 A 
HETATM   46  C   UNK N   1      25.407  11.740   3.431  0.00  0.00     0.016 A 
HETATM   47  C   UNK N   1      23.188  12.787   3.926  0.00  0.00     0.190 A 
HETATM   48  O   UNK N   1      22.669  12.207   2.976  0.00  0.00    -0.287 OA
ENDBRANCH  35  36
ENDBRANCH  34  35
ENDBRANCH  31  32
ENDBRANCH  30  31
ENDBRANCH  29  30
ENDBRANCH  26  27
ENDBRANCH   1  26
TORSDOF 20
ENDMDL
MODEL 2
REMARK VINA RESULT:      -6.5      1.547      2.280
REMARK  20 active torsions:
REMARK  status: ('A' for Active; 'I' for Inactive)
REMARK    1  A    between atoms: C_18  and  C_12 
REMARK    2  A    between atoms: C_19  and  C_12 
REMARK    3  A    between atoms: C_20  and  C_13 
REMARK    4  A    between atoms: C_21  and  C_13 
REMARK    5  A    between atoms: C_22  and  C_14 
REMARK    6  A    between atoms: C_23  and  C_14 
REMARK    7  A    between atoms: C_24  and  C_15 
REMARK    8  A    between atoms: C_25  and  C_15 
REMARK    9  A    between atoms: C_26  and  C_16 
REMARK   10  A    between atoms: C_27  and  C_16 
REMARK   11  A    between atoms: C_28  and  C_17 
REMARK   12  A    between atoms: C_29  and  C_17 
REMARK   13  A    between atoms: C_35  and  C_19 
REMARK   14  A    between atoms: C_36  and  C_21 
REMARK   15  A    between atoms: C_37  and  C_23 
REMARK   16  A    between atoms: C_38  and  C_25 
REMARK   17  A    between atoms: C_39  and  C_27 
REMARK   18  A    between atoms: C_40  and  C_29 
REMARK   19  A    between atoms: C_33  and  C_32 
REMARK   20  A    between atoms: C_42  and  C_33 
ROOT
HETATM    1  C   UNK N   1      24.937  15.523   4.299  0.00  0.00     0.031 C 
ENDROOT
BRANCH   1   2
HETATM    2  C   UNK N   1      26.321  15.561   3.745  0.00  0.00    -0.024 C 
HETATM    3  C   UNK N   1      26.543  15.421   2.429  0.00  0.00    -0.087 C 
HETATM    4  C   UNK N   1      25.420  15.312   1.445  0.00  0.00     0.043 C 
BRANCH   3   5
HETATM    5  C   UNK N   1      27.931  15.242   1.930  0.00  0.00     0.037 C 
BRANCH   5   6
HETATM    6  C   UNK N   1      28.963  15.245   3.034  0.00  0.00     0.031 C 
BRANCH   6   7
HETATM    7  C   UNK N   1      30.045  16.260   2.857  0.00  0.00    -0.024 C 
HETATM    8  C   UNK N   1      31.335  16.017   3.160  0.00  0.00    -0.087 C 
HETATM    9  C   UNK N   1      31.814  14.666   3.592  0.00  0.00     0.043 C 
BRANCH   8  10
HETATM   10  C   UNK N   1      32.294  17.157   3.186  0.00  0.00     0.037 C 
BRANCH  10  11
HETATM   11  C   UNK N   1      33.146  16.893   4.422  0.00  0.00     0.031 C 
BRANCH  11  12
HETATM   12  C   UNK N   1      32.695  17.563   5.677  0.00  0.00    -0.024 C 
HETATM   13  C   UNK N   1      32.681  16.987   6.899  0.00  0.00    -0.087 C 
HETATM   14  C   UNK N   1      33.152  15.594   7.148  0.00  0.00     0.043 C 
BRANCH  13  15
HETATM   15  C   UNK N   1      32.160  17.754   8.066  0.00  0.00     0.037 C 
BRANCH  15  16
HETATM   16  C   UNK N   1      30.850  17.166   8.561  0.00  0.00     0.031 C 
BRANCH  16  17
HETATM   17  C   UNK N   1      29.739  17.858   7.842  0.00  0.00    -0.024 C 
HETATM   18  C   UNK N   1      29.068  17.258   6.845  0.00  0.00    -0.087 C 
HETATM   19  C   UNK N   1      29.393  15.859   6.420  0.00  0.00     0.043 C 
BRANCH  18  20
HETATM   20  C   UNK N   1      27.972  17.979   6.134  0.00  0.00     0.037 C 
BRANCH  20  21
HETATM   21  C   UNK N   1      28.537  18.733   4.941  0.00  0.00     0.031 C 
BRANCH  21  22
HETATM   22  C   UNK N   1      27.456  19.017   3.945  0.00  0.00    -0.024 C 
HETATM   23  C   UNK N   1      26.573  20.015   4.085  0.00  0.00    -0.091 C 
HETATM   24  C   UNK N   1      25.539  20.220   3.036  0.00  0.00     0.042 C 
HETATM   25  C   UNK N   1      26.596  20.936   5.266  0.00  0.00     0.042 C 
ENDBRANCH  21  22
ENDBRANCH  20  21
ENDBRANCH  18  20
ENDBRANCH  16  17
ENDBRANCH  15  16
ENDBRANCH  13  15
ENDBRANCH  11  12
ENDBRANCH  10  11
ENDBRANCH   8  10
ENDBRANCH   6   7
ENDBRANCH   5   6
ENDBRANCH   3   5
ENDBRANCH   1   2
BRANCH   1  26
HETATM   26  C   UNK N   1      24.550  16.962   4.619  0.00  0.00     0.037 C 
BRANCH  26  27
HETATM   27  C   UNK N   1      23.121  17.234   4.224  0.00  0.00    -0.087 C 
HETATM   28  C   UNK N   1      22.448  18.474   4.734  0.00  0.00     0.043 C 
HETATM   29  C   UNK N   1      22.464  16.373   3.435  0.00  0.00    -0.024 C 
BRANCH  29  30
HETATM   30  C   UNK N   1      21.044  16.641   2.976  0.00  0.00     0.031 C 
BRANCH  30  31
HETATM   31  C   UNK N   1      20.854  16.286   1.486  0.00  0.00     0.037 C 
BRANCH  31  32
HETATM   32  C   UNK N   1      20.818  14.799   1.415  0.00  0.00    -0.087 C 
HETATM   33  C   UNK N   1      19.664  14.084   2.050  0.00  0.00     0.043 C 
HETATM   34  C   UNK N   1      21.922  14.144   1.018  0.00  0.00    -0.020 C 
BRANCH  34  35
HETATM   35  C   UNK N   1      22.076  12.722   1.414  0.00  0.00     0.070 C 
BRANCH  35  36
HETATM   36  C   UNK N   1      23.296  12.229   2.102  0.00  0.00     0.006 A 
HETATM   37  C   UNK N   1      23.367  12.291   3.452  0.00  0.00    -0.001 A 
HETATM   38  C   UNK N   1      22.166  12.679   4.265  0.00  0.00     0.053 C 
HETATM   39  C   UNK N   1      24.659  12.063   4.137  0.00  0.00     0.189 A 
HETATM   40  C   UNK N   1      25.889  11.848   3.347  0.00  0.00     0.029 A 
HETATM   41  O   UNK N   1      24.720  12.142   5.360  0.00  0.00    -0.287 OA
HETATM   42  C   UNK N   1      27.140  11.772   3.972  0.00  0.00     0.016 A 
HETATM   43  C   UNK N   1      25.805  11.752   1.942  0.00  0.00     0.029 A 
HETATM   44  C   UNK N   1      28.299  11.603   3.212  0.00  0.00     0.001 A 
HETATM   45  C   UNK N   1      28.214  11.496   1.820  0.00  0.00     0.001 A 
HETATM   46  C   UNK N   1      26.971  11.569   1.188  0.00  0.00     0.016 A 
HETATM   47  C   UNK N   1      24.492  11.896   1.288  0.00  0.00     0.190 A 
HETATM   48  O   UNK N   1      24.402  11.806   0.067  0.00  0.00    -0.287 OA
ENDBRANCH  35  36
ENDBRANCH  34  35
ENDBRANCH  31  32
ENDBRANCH  30  31
ENDBRANCH  29  30
ENDBRANCH  26  27
ENDBRANCH   1  26
TORSDOF 20
ENDMDL
MODEL 3
REMARK VINA RESULT:      -6.1      2.437      9.326
REMARK  20 active torsions:
REMARK  status: ('A' for Active; 'I' for Inactive)
REMARK    1  A    between atoms: C_18  and  C_12 
REMARK    2  A    between atoms: C_19  and  C_12 
REMARK    3  A    between atoms: C_20  and  C_13 
REMARK    4  A    between atoms: C_21  and  C_13 
REMARK    5  A    between atoms: C_22  and  C_14 
REMARK    6  A    between atoms: C_23  and  C_14 
REMARK    7  A    between atoms: C_24  and  C_15 
REMARK    8  A    between atoms: C_25  and  C_15 
REMARK    9  A    between atoms: C_26  and  C_16 
REMARK   10  A    between atoms: C_27  and  C_16 
REMARK   11  A    between atoms: C_28  and  C_17 
REMARK   12  A    between atoms: C_29  and  C_17 
REMARK   13  A    between atoms: C_35  and  C_19 
REMARK   14  A    between atoms: C_36  and  C_21 
REMARK   15  A    between atoms: C_37  and  C_23 
REMARK   16  A    between atoms: C_38  and  C_25 
REMARK   17  A    between atoms: C_39  and  C_27 
REMARK   18  A    between atoms: C_40  and  C_29 
REMARK   19  A    between atoms: C_33  and  C_32 
REMARK   20  A    between atoms: C_42  and  C_33 
ROOT
HETATM    1  C   UNK N   1      24.037  10.632   5.006  0.00  0.00     0.031 C 
ENDROOT
BRANCH   1   2
HETATM    2  C   UNK N   1      24.198  10.987   6.446  0.00  0.00    -0.024 C 
HETATM    3  C   UNK N   1      23.136  11.312   7.200  0.00  0.00    -0.087 C 
HETATM    4  C   UNK N   1      21.738  11.246   6.668  0.00  0.00     0.043 C 
BRANCH   3   5
HETATM    5  C   UNK N   1      23.341  11.873   8.562  0.00  0.00     0.037 C 
BRANCH   5   6
HETATM    6  C   UNK N   1      24.168  13.138   8.563  0.00  0.00     0.031 C 
BRANCH   6   7
HETATM    7  C   UNK N   1      23.747  14.144   7.543  0.00  0.00    -0.024 C 
HETATM    8  C   UNK N   1      24.617  14.763   6.721  0.00  0.00    -0.087 C 
HETATM    9  C   UNK N   1      26.071  14.406   6.681  0.00  0.00     0.043 C 
BRANCH   8  10
HETATM   10  C   UNK N   1      24.144  15.923   5.914  0.00  0.00     0.037 C 
BRANCH  10  11
HETATM   11  C   UNK N   1      22.720  15.542   5.524  0.00  0.00     0.031 C 
BRANCH  11  12
HETATM   12  C   UNK N   1      22.220  16.120   4.243  0.00  0.00    -0.024 C 
HETATM   13  C   UNK N   1      20.922  16.175   3.872  0.00  0.00    -0.087 C 
HETATM   14  C   UNK N   1      19.809  15.679   4.733  0.00  0.00     0.043 C 
BRANCH  13  15
HETATM   15  C   UNK N   1      20.562  16.738   2.540  0.00  0.00     0.037 C 
BRANCH  15  16
HETATM   16  C   UNK N   1      20.087  15.644   1.600  0.00  0.00     0.031 C 
BRANCH  16  17
HETATM   17  C   UNK N   1      21.278  15.123   0.866  0.00  0.00    -0.024 C 
HETATM   18  C   UNK N   1      21.712  13.863   1.037  0.00  0.00    -0.087 C 
HETATM   19  C   UNK N   1      21.008  12.917   1.960  0.00  0.00     0.043 C 
BRANCH  18  20
HETATM   20  C   UNK N   1      22.914  13.375   0.301  0.00  0.00     0.037 C 
BRANCH  20  21
HETATM   21  C   UNK N   1      23.010  11.862   0.412  0.00  0.00     0.031 C 
BRANCH  21  22
HETATM   22  C   UNK N   1      24.441  11.425   0.363  0.00  0.00    -0.024 C 
HETATM   23  C   UNK N   1      24.869  10.255   0.858  0.00  0.00    -0.091 C 
HETATM   24  C   UNK N   1      26.312   9.910   0.755  0.00  0.00     0.042 C 
HETATM   25  C   UNK N   1      23.937   9.281   1.510  0.00  0.00     0.042 C 
ENDBRANCH  21  22
ENDBRANCH  20  21
ENDBRANCH  18  20
ENDBRANCH  16  17
ENDBRANCH  15  16
ENDBRANCH  13  15
ENDBRANCH  11  12
ENDBRANCH  10  11
ENDBRANCH   8  10
ENDBRANCH   6   7
ENDBRANCH   5   6
ENDBRANCH   3   5
ENDBRANCH   1   2
BRANCH   1  26
HETATM   26  C   UNK N   1      23.742  11.930   4.263  0.00  0.00     0.037 C 
BRANCH  26  27
HETATM   27  C   UNK N   1      25.014  12.556   3.750  0.00  0.00    -0.087 C 
HETATM   28  C   UNK N   1      26.315  11.843   3.967  0.00  0.00     0.043 C 
HETATM   29  C   UNK N   1      24.976  13.737   3.117  0.00  0.00    -0.024 C 
BRANCH  29  30
HETATM   30  C   UNK N   1      26.228  14.371   2.543  0.00  0.00     0.031 C 
BRANCH  30  31
HETATM   31  C   UNK N   1      25.971  15.824   2.092  0.00  0.00     0.037 C 
BRANCH  31  32
HETATM   32  C   UNK N   1      26.556  16.695   3.148  0.00  0.00    -0.087 C 
HETATM   33  C   UNK N   1      25.852  17.974   3.487  0.00  0.00     0.043 C 
HETATM   34  C   UNK N   1      27.805  16.441   3.576  0.00  0.00    -0.020 C 
BRANCH  34  35
HETATM   35  C   UNK N   1      28.566  17.543   4.215  0.00  0.00     0.070 C 
BRANCH  35  36
HETATM   36  C   UNK N   1      29.511  17.296   5.333  0.00  0.00     0.006 A 
HETATM   37  C   UNK N   1      29.075  17.410   6.609  0.00  0.00    -0.001 A 
HETATM   38  C   UNK N   1      27.616  17.602   6.905  0.00  0.00     0.053 C 
HETATM   39  C   UNK N   1      30.047  17.436   7.725  0.00  0.00     0.189 A 
HETATM   40  C   UNK N   1      31.498  17.420   7.444  0.00  0.00     0.029 A 
HETATM   41  O   UNK N   1      29.646  17.561   8.877  0.00  0.00    -0.287 OA
HETATM   42  C   UNK N   1      32.430  17.587   8.475  0.00  0.00     0.016 A 
HETATM   43  C   UNK N   1      31.948  17.268   6.117  0.00  0.00     0.029 A 
HETATM   44  C   UNK N   1      33.797  17.604   8.194  0.00  0.00     0.001 A 
HETATM   45  C   UNK N   1      34.243  17.441   6.879  0.00  0.00     0.001 A 
HETATM   46  C   UNK N   1      33.322  17.273   5.844  0.00  0.00     0.016 A 
HETATM   47  C   UNK N   1      30.958  17.156   5.029  0.00  0.00     0.190 A 
HETATM   48  O   UNK N   1      31.334  17.015   3.869  0.00  0.00    -0.287 OA
ENDBRANCH  35  36
ENDBRANCH  34  35
ENDBRANCH  31  32
ENDBRANCH  30  31
ENDBRANCH  29  30
ENDBRANCH  26  27
ENDBRANCH   1  26
TORSDOF 20
ENDMDL
MODEL 4
REMARK VINA RESULT:      -6.0      2.126      5.545
REMARK  20 active torsions:
REMARK  status: ('A' for Active; 'I' for Inactive)
REMARK    1  A    between atoms: C_18  and  C_12 
REMARK    2  A    between atoms: C_19  and  C_12 
REMARK    3  A    between atoms: C_20  and  C_13 
REMARK    4  A    between atoms: C_21  and  C_13 
REMARK    5  A    between atoms: C_22  and  C_14 
REMARK    6  A    between atoms: C_23  and  C_14 
REMARK    7  A    between atoms: C_24  and  C_15 
REMARK    8  A    between atoms: C_25  and  C_15 
REMARK    9  A    between atoms: C_26  and  C_16 
REMARK   10  A    between atoms: C_27  and  C_16 
REMARK   11  A    between atoms: C_28  and  C_17 
REMARK   12  A    between atoms: C_29  and  C_17 
REMARK   13  A    between atoms: C_35  and  C_19 
REMARK   14  A    between atoms: C_36  and  C_21 
REMARK   15  A    between atoms: C_37  and  C_23 
REMARK   16  A    between atoms: C_38  and  C_25 
REMARK   17  A    between atoms: C_39  and  C_27 
REMARK   18  A    between atoms: C_40  and  C_29 
REMARK   19  A    between atoms: C_33  and  C_32 
REMARK   20  A    between atoms: C_42  and  C_33 
ROOT
HETATM    1  C   UNK N   1      27.956  14.737   1.902  0.00  0.00     0.031 C 
ENDROOT
BRANCH   1   2
HETATM    2  C   UNK N   1      29.089  15.433   2.578  0.00  0.00    -0.024 C 
HETATM    3  C   UNK N   1      30.149  14.748   3.033  0.00  0.00    -0.087 C 
HETATM    4  C   UNK N   1      30.294  13.275   2.808  0.00  0.00     0.043 C 
BRANCH   3   5
HETATM    5  C   UNK N   1      31.154  15.427   3.893  0.00  0.00     0.037 C 
BRANCH   5   6
HETATM    6  C   UNK N   1      30.779  16.852   4.230  0.00  0.00     0.031 C 
BRANCH   6   7
HETATM    7  C   UNK N   1      29.599  16.976   5.136  0.00  0.00    -0.024 C 
HETATM    8  C   UNK N   1      29.711  17.097   6.474  0.00  0.00    -0.087 C 
HETATM    9  C   UNK N   1      31.037  17.236   7.155  0.00  0.00     0.043 C 
BRANCH   8  10
HETATM   10  C   UNK N   1      28.487  16.966   7.312  0.00  0.00     0.037 C 
BRANCH  10  11
HETATM   11  C   UNK N   1      27.693  15.856   6.634  0.00  0.00     0.031 C 
BRANCH  11  12
HETATM   12  C   UNK N   1      26.246  16.136   6.407  0.00  0.00    -0.024 C 
HETATM   13  C   UNK N   1      25.252  15.230   6.538  0.00  0.00    -0.087 C 
HETATM   14  C   UNK N   1      25.488  13.820   6.963  0.00  0.00     0.043 C 
BRANCH  13  15
HETATM   15  C   UNK N   1      23.849  15.630   6.235  0.00  0.00     0.037 C 
BRANCH  15  16
HETATM   16  C   UNK N   1      23.663  15.871   4.747  0.00  0.00     0.031 C 
BRANCH  16  17
HETATM   17  C   UNK N   1      23.393  17.327   4.550  0.00  0.00    -0.024 C 
HETATM   18  C   UNK N   1      24.229  18.107   3.847  0.00  0.00    -0.087 C 
HETATM   19  C   UNK N   1      25.465  17.549   3.212  0.00  0.00     0.043 C 
BRANCH  18  20
HETATM   20  C   UNK N   1      23.941  19.561   3.680  0.00  0.00     0.037 C 
BRANCH  20  21
HETATM   21  C   UNK N   1      25.237  20.355   3.722  0.00  0.00     0.031 C 
BRANCH  21  22
HETATM   22  C   UNK N   1      25.741  20.456   5.127  0.00  0.00    -0.024 C 
HETATM   23  C   UNK N   1      27.025  20.270   5.462  0.00  0.00    -0.091 C 
HETATM   24  C   UNK N   1      27.427  20.400   6.888  0.00  0.00     0.042 C 
HETATM   25  C   UNK N   1      28.071  19.940   4.443  0.00  0.00     0.042 C 
ENDBRANCH  21  22
ENDBRANCH  20  21
ENDBRANCH  18  20
ENDBRANCH  16  17
ENDBRANCH  15  16
ENDBRANCH  13  15
ENDBRANCH  11  12
ENDBRANCH  10  11
ENDBRANCH   8  10
ENDBRANCH   6   7
ENDBRANCH   5   6
ENDBRANCH   3   5
ENDBRANCH   1   2
BRANCH   1  26
HETATM   26  C   UNK N   1      26.883  14.511   2.961  0.00  0.00     0.037 C 
BRANCH  26  27
HETATM   27  C   UNK N   1      25.689  13.804   2.373  0.00  0.00    -0.087 C 
HETATM   28  C   UNK N   1      25.227  12.519   2.992  0.00  0.00     0.043 C 
HETATM   29  C   UNK N   1      25.059  14.317   1.307  0.00  0.00    -0.024 C 
BRANCH  29  30
HETATM   30  C   UNK N   1      23.824  13.660   0.722  0.00  0.00     0.031 C 
BRANCH  30  31
HETATM   31  C   UNK N   1      22.545  14.456   1.059  0.00  0.00     0.037 C 
BRANCH  31  32
HETATM   32  C   UNK N   1      21.899  13.740   2.193  0.00  0.00    -0.087 C 
HETATM   33  C   UNK N   1      21.551  12.294   2.015  0.00  0.00     0.043 C 
HETATM   34  C   UNK N   1      21.425  14.460   3.225  0.00  0.00    -0.020 C 
BRANCH  34  35
HETATM   35  C   UNK N   1      20.371  13.855   4.077  0.00  0.00     0.070 C 
BRANCH  35  36
HETATM   36  C   UNK N   1      20.512  13.768   5.552  0.00  0.00     0.006 A 
HETATM   37  C   UNK N   1      20.099  14.802   6.321  0.00  0.00    -0.001 A 
HETATM   38  C   UNK N   1      19.340  15.948   5.719  0.00  0.00     0.053 C 
HETATM   39  C   UNK N   1      20.471  14.855   7.753  0.00  0.00     0.189 A 
HETATM   40  C   UNK N   1      21.360  13.824   8.327  0.00  0.00     0.029 A 
HETATM   41  O   UNK N   1      20.111  15.807   8.439  0.00  0.00    -0.287 OA
HETATM   42  C   UNK N   1      21.837  13.936   9.639  0.00  0.00     0.016 A 
HETATM   43  C   UNK N   1      21.762  12.731   7.531  0.00  0.00     0.029 A 
HETATM   44  C   UNK N   1      22.704  12.973  10.158  0.00  0.00     0.001 A 
HETATM   45  C   UNK N   1      23.092  11.883   9.373  0.00  0.00     0.001 A 
HETATM   46  C   UNK N   1      22.621  11.762   8.064  0.00  0.00     0.016 A 
HETATM   47  C   UNK N   1      21.307  12.654   6.131  0.00  0.00     0.190 A 
HETATM   48  O   UNK N   1      21.640  11.705   5.428  0.00  0.00    -0.287 OA
ENDBRANCH  35  36
ENDBRANCH  34  35
ENDBRANCH  31  32
ENDBRANCH  30  31
ENDBRANCH  29  30
ENDBRANCH  26  27
ENDBRANCH   1  26
TORSDOF 20
ENDMDL
MODEL 5
REMARK VINA RESULT:      -6.0      1.636      4.243
REMARK  20 active torsions:
REMARK  status: ('A' for Active; 'I' for Inactive)
REMARK    1  A    between atoms: C_18  and  C_12 
REMARK    2  A    between atoms: C_19  and  C_12 
REMARK    3  A    between atoms: C_20  and  C_13 
REMARK    4  A    between atoms: C_21  and  C_13 
REMARK    5  A    between atoms: C_22  and  C_14 
REMARK    6  A    between atoms: C_23  and  C_14 
REMARK    7  A    between atoms: C_24  and  C_15 
REMARK    8  A    between atoms: C_25  and  C_15 
REMARK    9  A    between atoms: C_26  and  C_16 
REMARK   10  A    between atoms: C_27  and  C_16 
REMARK   11  A    between atoms: C_28  and  C_17 
REMARK   12  A    between atoms: C_29  and  C_17 
REMARK   13  A    between atoms: C_35  and  C_19 
REMARK   14  A    between atoms: C_36  and  C_21 
REMARK   15  A    between atoms: C_37  and  C_23 
REMARK   16  A    between atoms: C_38  and  C_25 
REMARK   17  A    between atoms: C_39  and  C_27 
REMARK   18  A    between atoms: C_40  and  C_29 
REMARK   19  A    between atoms: C_33  and  C_32 
REMARK   20  A    between atoms: C_42  and  C_33 
ROOT
HETATM    1  C   UNK N   1      26.478  15.029   3.280  0.00  0.00     0.031 C 
ENDROOT
BRANCH   1   2
HETATM    2  C   UNK N   1      27.574  16.028   3.114  0.00  0.00    -0.024 C 
HETATM    3  C   UNK N   1      28.730  15.693   2.521  0.00  0.00    -0.087 C 
HETATM    4  C   UNK N   1      28.947  14.340   1.918  0.00  0.00     0.043 C 
BRANCH   3   5
HETATM    5  C   UNK N   1      29.881  16.632   2.565  0.00  0.00     0.037 C 
BRANCH   5   6
HETATM    6  C   UNK N   1      30.639  16.580   3.871  0.00  0.00     0.031 C 
BRANCH   6   7
HETATM    7  C   UNK N   1      31.681  15.511   3.931  0.00  0.00    -0.024 C 
HETATM    8  C   UNK N   1      31.549  14.399   4.680  0.00  0.00    -0.087 C 
HETATM    9  C   UNK N   1      30.291  14.084   5.428  0.00  0.00     0.043 C 
BRANCH   8  10
HETATM   10  C   UNK N   1      32.734  13.516   4.871  0.00  0.00     0.037 C 
BRANCH  10  11
HETATM   11  C   UNK N   1      33.741  14.403   5.593  0.00  0.00     0.031 C 
BRANCH  11  12
HETATM   12  C   UNK N   1      33.281  14.993   6.884  0.00  0.00    -0.024 C 
HETATM   13  C   UNK N   1      33.324  16.307   7.194  0.00  0.00    -0.087 C 
HETATM   14  C   UNK N   1      33.820  17.350   6.250  0.00  0.00     0.043 C 
BRANCH  13  15
HETATM   15  C   UNK N   1      32.875  16.759   8.542  0.00  0.00     0.037 C 
BRANCH  15  16
HETATM   16  C   UNK N   1      31.909  17.925   8.427  0.00  0.00     0.031 C 
BRANCH  16  17
HETATM   17  C   UNK N   1      30.682  17.436   7.732  0.00  0.00    -0.024 C 
HETATM   18  C   UNK N   1      29.460  17.608   8.261  0.00  0.00    -0.087 C 
HETATM   19  C   UNK N   1      29.271  18.315   9.567  0.00  0.00     0.043 C 
BRANCH  18  20
HETATM   20  C   UNK N   1      28.252  17.094   7.551  0.00  0.00     0.037 C 
BRANCH  20  21
HETATM   21  C   UNK N   1      28.075  17.830   6.233  0.00  0.00     0.031 C 
BRANCH  21  22
HETATM   22  C   UNK N   1      27.658  19.247   6.478  0.00  0.00    -0.024 C 
HETATM   23  C   UNK N   1      27.335  20.098   5.495  0.00  0.00    -0.091 C 
HETATM   24  C   UNK N   1      26.927  21.485   5.844  0.00  0.00     0.042 C 
HETATM   25  C   UNK N   1      27.368  19.695   4.054  0.00  0.00     0.042 C 
ENDBRANCH  21  22
ENDBRANCH  20  21
ENDBRANCH  18  20
ENDBRANCH  16  17
ENDBRANCH  15  16
ENDBRANCH  13  15
ENDBRANCH  11  12
ENDBRANCH  10  11
ENDBRANCH   8  10
ENDBRANCH   6   7
ENDBRANCH   5   6
ENDBRANCH   3   5
ENDBRANCH   1   2
BRANCH   1  26
HETATM   26  C   UNK N   1      25.416  15.364   2.238  0.00  0.00     0.037 C 
BRANCH  26  27
HETATM   27  C   UNK N   1      24.908  14.112   1.569  0.00  0.00    -0.087 C 
HETATM   28  C   UNK N   1      23.722  14.205   0.657  0.00  0.00     0.043 C 
HETATM   29  C   UNK N   1      25.508  12.935   1.796  0.00  0.00    -0.024 C 
BRANCH  29  30
HETATM   30  C   UNK N   1      25.056  11.666   1.100  0.00  0.00     0.031 C 
BRANCH  30  31
HETATM   31  C   UNK N   1      24.607  10.593   2.115  0.00  0.00     0.037 C 
BRANCH  31  32
HETATM   32  C   UNK N   1      23.206  10.935   2.486  0.00  0.00    -0.087 C 
HETATM   33  C   UNK N   1      22.162  10.921   1.411  0.00  0.00     0.043 C 
HETATM   34  C   UNK N   1      22.972  11.479   3.692  0.00  0.00    -0.020 C 
BRANCH  34  35
HETATM   35  C   UNK N   1      21.728  12.267   3.877  0.00  0.00     0.070 C 
BRANCH  35  36
HETATM   36  C   UNK N   1      21.746  13.748   3.968  0.00  0.00     0.006 A 
HETATM   37  C   UNK N   1      21.010  14.476   3.096  0.00  0.00    -0.001 A 
HETATM   38  C   UNK N   1      20.043  13.804   2.165  0.00  0.00     0.053 C 
HETATM   39  C   UNK N   1      21.218  15.938   2.990  0.00  0.00     0.189 A 
HETATM   40  C   UNK N   1      22.283  16.593   3.776  0.00  0.00     0.029 A 
HETATM   41  O   UNK N   1      20.562  16.587   2.182  0.00  0.00    -0.287 OA
HETATM   42  C   UNK N   1      22.588  17.946   3.584  0.00  0.00     0.016 A 
HETATM   43  C   UNK N   1      23.026  15.838   4.707  0.00  0.00     0.029 A 
HETATM   44  C   UNK N   1      23.619  18.547   4.308  0.00  0.00     0.001 A 
HETATM   45  C   UNK N   1      24.347  17.800   5.240  0.00  0.00     0.001 A 
HETATM   46  C   UNK N   1      24.051  16.451   5.439  0.00  0.00     0.016 A 
HETATM   47  C   UNK N   1      22.741  14.399   4.858  0.00  0.00     0.190 A 
HETATM   48  O   UNK N   1      23.373  13.730   5.670  0.00  0.00    -0.287 OA
ENDBRANCH  35  36
ENDBRANCH  34  35
ENDBRANCH  31  32
ENDBRANCH  30  31
ENDBRANCH  29  30
ENDBRANCH  26  27
ENDBRANCH   1  26
TORSDOF 20
ENDMDL
MODEL 6
REMARK VINA RESULT:      -6.0      5.901     11.673
REMARK  20 active torsions:
REMARK  status: ('A' for Active; 'I' for Inactive)
REMARK    1  A    between atoms: C_18  and  C_12 
REMARK    2  A    between atoms: C_19  and  C_12 
REMARK    3  A    between atoms: C_20  and  C_13 
REMARK    4  A    between atoms: C_21  and  C_13 
REMARK    5  A    between atoms: C_22  and  C_14 
REMARK    6  A    between atoms: C_23  and  C_14 
REMARK    7  A    between atoms: C_24  and  C_15 
REMARK    8  A    between atoms: C_25  and  C_15 
REMARK    9  A    between atoms: C_26  and  C_16 
REMARK   10  A    between atoms: C_27  and  C_16 
REMARK   11  A    between atoms: C_28  and  C_17 
REMARK   12  A    between atoms: C_29  and  C_17 
REMARK   13  A    between atoms: C_35  and  C_19 
REMARK   14  A    between atoms: C_36  and  C_21 
REMARK   15  A    between atoms: C_37  and  C_23 
REMARK   16  A    between atoms: C_38  and  C_25 
REMARK   17  A    between atoms: C_39  and  C_27 
REMARK   18  A    between atoms: C_40  and  C_29 
REMARK   19  A    between atoms: C_33  and  C_32 
REMARK   20  A    between atoms: C_42  and  C_33 
ROOT
HETATM    1  C   UNK N   1      35.653  10.493  16.643  0.00  0.00     0.031 C 
ENDROOT
BRANCH   1   2
HETATM    2  C   UNK N   1      36.396  11.581  15.943  0.00  0.00    -0.024 C 
HETATM    3  C   UNK N   1      36.017  12.863  16.061  0.00  0.00    -0.087 C 
HETATM    4  C   UNK N   1      34.898  13.278  16.964  0.00  0.00     0.043 C 
BRANCH   3   5
HETATM    5  C   UNK N   1      36.630  13.897  15.186  0.00  0.00     0.037 C 
BRANCH   5   6
HETATM    6  C   UNK N   1      36.678  13.490  13.731  0.00  0.00     0.031 C 
BRANCH   6   7
HETATM    7  C   UNK N   1      35.460  13.863  12.952  0.00  0.00    -0.024 C 
HETATM    8  C   UNK N   1      35.502  14.227  11.655  0.00  0.00    -0.087 C 
HETATM    9  C   UNK N   1      36.764  14.175  10.851  0.00  0.00     0.043 C 
BRANCH   8  10
HETATM   10  C   UNK N   1      34.283  14.815  11.034  0.00  0.00     0.037 C 
BRANCH  10  11
HETATM   11  C   UNK N   1      34.167  14.094   9.696  0.00  0.00     0.031 C 
BRANCH  11  12
HETATM   12  C   UNK N   1      33.855  14.954   8.518  0.00  0.00    -0.024 C 
HETATM   13  C   UNK N   1      34.683  15.162   7.470  0.00  0.00    -0.087 C 
HETATM   14  C   UNK N   1      36.023  14.518   7.352  0.00  0.00     0.043 C 
BRANCH  13  15
HETATM   15  C   UNK N   1      34.267  16.086   6.377  0.00  0.00     0.037 C 
BRANCH  15  16
HETATM   16  C   UNK N   1      33.540  17.296   6.938  0.00  0.00     0.031 C 
BRANCH  16  17
HETATM   17  C   UNK N   1      32.173  17.326   6.338  0.00  0.00    -0.024 C 
HETATM   18  C   UNK N   1      31.074  17.139   7.087  0.00  0.00    -0.087 C 
HETATM   19  C   UNK N   1      31.169  16.909   8.564  0.00  0.00     0.043 C 
BRANCH  18  20
HETATM   20  C   UNK N   1      29.722  17.159   6.458  0.00  0.00     0.037 C 
BRANCH  20  21
HETATM   21  C   UNK N   1      29.807  17.761   5.065  0.00  0.00     0.031 C 
BRANCH  21  22
HETATM   22  C   UNK N   1      28.491  18.354   4.672  0.00  0.00    -0.024 C 
HETATM   23  C   UNK N   1      27.580  17.701   3.936  0.00  0.00    -0.091 C 
HETATM   24  C   UNK N   1      26.298  18.377   3.603  0.00  0.00     0.042 C 
HETATM   25  C   UNK N   1      27.813  16.307   3.441  0.00  0.00     0.042 C 
ENDBRANCH  21  22
ENDBRANCH  20  21
ENDBRANCH  18  20
ENDBRANCH  16  17
ENDBRANCH  15  16
ENDBRANCH  13  15
ENDBRANCH  11  12
ENDBRANCH  10  11
ENDBRANCH   8  10
ENDBRANCH   6   7
ENDBRANCH   5   6
ENDBRANCH   3   5
ENDBRANCH   1   2
BRANCH   1  26
HETATM   26  C   UNK N   1      35.376   9.411  15.606  0.00  0.00     0.037 C 
BRANCH  26  27
HETATM   27  C   UNK N   1      34.660   9.984  14.409  0.00  0.00    -0.087 C 
HETATM   28  C   UNK N   1      33.403  10.773  14.623  0.00  0.00     0.043 C 
HETATM   29  C   UNK N   1      35.141   9.781  13.175  0.00  0.00    -0.024 C 
BRANCH  29  30
HETATM   30  C   UNK N   1      34.476  10.386  11.954  0.00  0.00     0.031 C 
BRANCH  30  31
HETATM   31  C   UNK N   1      35.507  10.725  10.857  0.00  0.00     0.037 C 
BRANCH  31  32
HETATM   32  C   UNK N   1      34.789  10.599   9.559  0.00  0.00    -0.087 C 
HETATM   33  C   UNK N   1      33.484   9.861   9.537  0.00  0.00     0.043 C 
HETATM   34  C   UNK N   1      35.438  10.921   8.427  0.00  0.00    -0.020 C 
BRANCH  34  35
HETATM   35  C   UNK N   1      34.951  10.343   7.150  0.00  0.00     0.070 C 
BRANCH  35  36
HETATM   36  C   UNK N   1      34.632  11.195   5.977  0.00  0.00     0.006 A 
HETATM   37  C   UNK N   1      35.626  11.572   5.140  0.00  0.00    -0.001 A 
HETATM   38  C   UNK N   1      37.004  10.992   5.278  0.00  0.00     0.053 C 
HETATM   39  C   UNK N   1      35.386  12.629   4.132  0.00  0.00     0.189 A 
HETATM   40  C   UNK N   1      34.087  13.332   4.091  0.00  0.00     0.029 A 
HETATM   41  O   UNK N   1      36.298  12.980   3.390  0.00  0.00    -0.287 OA
HETATM   42  C   UNK N   1      33.890  14.427   3.242  0.00  0.00     0.016 A 
HETATM   43  C   UNK N   1      33.043  12.915   4.943  0.00  0.00     0.029 A 
HETATM   44  C   UNK N   1      32.669  15.105   3.236  0.00  0.00     0.001 A 
HETATM   45  C   UNK N   1      31.631  14.684   4.073  0.00  0.00     0.001 A 
HETATM   46  C   UNK N   1      31.817  13.592   4.922  0.00  0.00     0.016 A 
HETATM   47  C   UNK N   1      33.280  11.801   5.879  0.00  0.00     0.190 A 
HETATM   48  O   UNK N   1      32.379  11.421   6.621  0.00  0.00    -0.287 OA
ENDBRANCH  35  36
ENDBRANCH  34  35
ENDBRANCH  31  32
ENDBRANCH  30  31
ENDBRANCH  29  30
ENDBRANCH  26  27
ENDBRANCH   1  26
TORSDOF 20
ENDMDL
MODEL 7
REMARK VINA RESULT:      -5.9      2.611      8.715
REMARK  20 active torsions:
REMARK  status: ('A' for Active; 'I' for Inactive)
REMARK    1  A    between atoms: C_18  and  C_12 
REMARK    2  A    between atoms: C_19  and  C_12 
REMARK    3  A    between atoms: C_20  and  C_13 
REMARK    4  A    between atoms: C_21  and  C_13 
REMARK    5  A    between atoms: C_22  and  C_14 
REMARK    6  A    between atoms: C_23  and  C_14 
REMARK    7  A    between atoms: C_24  and  C_15 
REMARK    8  A    between atoms: C_25  and  C_15 
REMARK    9  A    between atoms: C_26  and  C_16 
REMARK   10  A    between atoms: C_27  and  C_16 
REMARK   11  A    between atoms: C_28  and  C_17 
REMARK   12  A    between atoms: C_29  and  C_17 
REMARK   13  A    between atoms: C_35  and  C_19 
REMARK   14  A    between atoms: C_36  and  C_21 
REMARK   15  A    between atoms: C_37  and  C_23 
REMARK   16  A    between atoms: C_38  and  C_25 
REMARK   17  A    between atoms: C_39  and  C_27 
REMARK   18  A    between atoms: C_40  and  C_29 
REMARK   19  A    between atoms: C_33  and  C_32 
REMARK   20  A    between atoms: C_42  and  C_33 
ROOT
HETATM    1  C   UNK N   1      23.525  18.472   4.616  0.00  0.00     0.031 C 
ENDROOT
BRANCH   1   2
HETATM    2  C   UNK N   1      22.225  18.021   4.039  0.00  0.00    -0.024 C 
HETATM    3  C   UNK N   1      21.202  17.670   4.832  0.00  0.00    -0.087 C 
HETATM    4  C   UNK N   1      21.275  17.797   6.322  0.00  0.00     0.043 C 
BRANCH   3   5
HETATM    5  C   UNK N   1      20.002  17.018   4.244  0.00  0.00     0.037 C 
BRANCH   5   6
HETATM    6  C   UNK N   1      20.142  16.746   2.764  0.00  0.00     0.031 C 
BRANCH   6   7
HETATM    7  C   UNK N   1      19.568  15.438   2.325  0.00  0.00    -0.024 C 
HETATM    8  C   UNK N   1      20.192  14.618   1.457  0.00  0.00    -0.087 C 
HETATM    9  C   UNK N   1      21.572  14.895   0.947  0.00  0.00     0.043 C 
BRANCH   8  10
HETATM   10  C   UNK N   1      19.439  13.464   0.892  0.00  0.00     0.037 C 
BRANCH  10  11
HETATM   11  C   UNK N   1      20.233  12.246   1.351  0.00  0.00     0.031 C 
BRANCH  11  12
HETATM   12  C   UNK N   1      20.195  11.959   2.815  0.00  0.00    -0.024 C 
HETATM   13  C   UNK N   1      19.769  10.802   3.366  0.00  0.00    -0.087 C 
HETATM   14  C   UNK N   1      19.305   9.638   2.556  0.00  0.00     0.043 C 
BRANCH  13  15
HETATM   15  C   UNK N   1      19.737  10.662   4.849  0.00  0.00     0.037 C 
BRANCH  15  16
HETATM   16  C   UNK N   1      20.804   9.692   5.325  0.00  0.00     0.031 C 
BRANCH  16  17
HETATM   17  C   UNK N   1      22.081  10.452   5.470  0.00  0.00    -0.024 C 
HETATM   18  C   UNK N   1      23.151   9.917   6.082  0.00  0.00    -0.087 C 
HETATM   19  C   UNK N   1      23.116   8.525   6.631  0.00  0.00     0.043 C 
BRANCH  18  20
HETATM   20  C   UNK N   1      24.409  10.706   6.226  0.00  0.00     0.037 C 
BRANCH  20  21
HETATM   21  C   UNK N   1      24.837  11.250   4.873  0.00  0.00     0.031 C 
BRANCH  21  22
HETATM   22  C   UNK N   1      26.239  11.769   4.940  0.00  0.00    -0.024 C 
HETATM   23  C   UNK N   1      26.925  12.174   3.862  0.00  0.00    -0.091 C 
HETATM   24  C   UNK N   1      28.313  12.680   4.035  0.00  0.00     0.042 C 
HETATM   25  C   UNK N   1      26.335  12.137   2.487  0.00  0.00     0.042 C 
ENDBRANCH  21  22
ENDBRANCH  20  21
ENDBRANCH  18  20
ENDBRANCH  16  17
ENDBRANCH  15  16
ENDBRANCH  13  15
ENDBRANCH  11  12
ENDBRANCH  10  11
ENDBRANCH   8  10
ENDBRANCH   6   7
ENDBRANCH   5   6
ENDBRANCH   3   5
ENDBRANCH   1   2
BRANCH   1  26
HETATM   26  C   UNK N   1      24.343  19.046   3.465  0.00  0.00     0.037 C 
BRANCH  26  27
HETATM   27  C   UNK N   1      25.512  19.844   3.982  0.00  0.00    -0.087 C 
HETATM   28  C   UNK N   1      26.387  20.571   3.005  0.00  0.00     0.043 C 
HETATM   29  C   UNK N   1      25.765  19.894   5.297  0.00  0.00    -0.024 C 
BRANCH  29  30
HETATM   30  C   UNK N   1      26.901  20.728   5.857  0.00  0.00     0.031 C 
BRANCH  30  31
HETATM   31  C   UNK N   1      27.642  19.988   6.990  0.00  0.00     0.037 C 
BRANCH  31  32
HETATM   32  C   UNK N   1      28.142  18.717   6.397  0.00  0.00    -0.087 C 
HETATM   33  C   UNK N   1      28.938  18.788   5.129  0.00  0.00     0.043 C 
HETATM   34  C   UNK N   1      27.660  17.553   6.864  0.00  0.00    -0.020 C 
BRANCH  34  35
HETATM   35  C   UNK N   1      27.743  16.357   5.990  0.00  0.00     0.070 C 
BRANCH  35  36
HETATM   36  C   UNK N   1      26.529  15.634   5.534  0.00  0.00     0.006 A 
HETATM   37  C   UNK N   1      26.161  15.707   4.234  0.00  0.00    -0.001 A 
HETATM   38  C   UNK N   1      27.060  16.353   3.220  0.00  0.00     0.053 C 
HETATM   39  C   UNK N   1      24.825  15.228   3.813  0.00  0.00     0.189 A 
HETATM   40  C   UNK N   1      23.860  14.745   4.822  0.00  0.00     0.029 A 
HETATM   41  O   UNK N   1      24.491  15.317   2.636  0.00  0.00    -0.287 OA
HETATM   42  C   UNK N   1      22.546  14.422   4.462  0.00  0.00     0.016 A 
HETATM   43  C   UNK N   1      24.258  14.640   6.171  0.00  0.00     0.029 A 
HETATM   44  C   UNK N   1      21.633  13.999   5.430  0.00  0.00     0.001 A 
HETATM   45  C   UNK N   1      22.031  13.884   6.765  0.00  0.00     0.001 A 
HETATM   46  C   UNK N   1      23.339  14.202   7.134  0.00  0.00     0.016 A 
HETATM   47  C   UNK N   1      25.624  15.042   6.552  0.00  0.00     0.190 A 
HETATM   48  O   UNK N   1      25.988  14.948   7.721  0.00  0.00    -0.287 OA
ENDBRANCH  35  36
ENDBRANCH  34  35
ENDBRANCH  31  32
ENDBRANCH  30  31
ENDBRANCH  29  30
ENDBRANCH  26  27
ENDBRANCH   1  26
TORSDOF 20
ENDMDL
MODEL 8
REMARK VINA RESULT:      -5.8      2.158      3.164
REMARK  20 active torsions:
REMARK  status: ('A' for Active; 'I' for Inactive)
REMARK    1  A    between atoms: C_18  and  C_12 
REMARK    2  A    between atoms: C_19  and  C_12 
REMARK    3  A    between atoms: C_20  and  C_13 
REMARK    4  A    between atoms: C_21  and  C_13 
REMARK    5  A    between atoms: C_22  and  C_14 
REMARK    6  A    between atoms: C_23  and  C_14 
REMARK    7  A    between atoms: C_24  and  C_15 
REMARK    8  A    between atoms: C_25  and  C_15 
REMARK    9  A    between atoms: C_26  and  C_16 
REMARK   10  A    between atoms: C_27  and  C_16 
REMARK   11  A    between atoms: C_28  and  C_17 
REMARK   12  A    between atoms: C_29  and  C_17 
REMARK   13  A    between atoms: C_35  and  C_19 
REMARK   14  A    between atoms: C_36  and  C_21 
REMARK   15  A    between atoms: C_37  and  C_23 
REMARK   16  A    between atoms: C_38  and  C_25 
REMARK   17  A    between atoms: C_39  and  C_27 
REMARK   18  A    between atoms: C_40  and  C_29 
REMARK   19  A    between atoms: C_33  and  C_32 
REMARK   20  A    between atoms: C_42  and  C_33 
ROOT
HETATM    1  C   UNK N   1      25.017  14.239   5.852  0.00  0.00     0.031 C 
ENDROOT
BRANCH   1   2
HETATM    2  C   UNK N   1      26.255  14.693   5.155  0.00  0.00    -0.024 C 
HETATM    3  C   UNK N   1      26.492  14.358   3.878  0.00  0.00    -0.087 C 
HETATM    4  C   UNK N   1      25.494  13.596   3.062  0.00  0.00     0.043 C 
BRANCH   3   5
HETATM    5  C   UNK N   1      27.824  14.631   3.277  0.00  0.00     0.037 C 
BRANCH   5   6
HETATM    6  C   UNK N   1      28.747  15.390   4.203  0.00  0.00     0.031 C 
BRANCH   6   7
HETATM    7  C   UNK N   1      29.692  16.311   3.505  0.00  0.00    -0.024 C 
HETATM    8  C   UNK N   1      30.981  15.999   3.269  0.00  0.00    -0.087 C 
HETATM    9  C   UNK N   1      31.547  14.649   3.585  0.00  0.00     0.043 C 
BRANCH   8  10
HETATM   10  C   UNK N   1      31.904  17.067   2.794  0.00  0.00     0.037 C 
BRANCH  10  11
HETATM   11  C   UNK N   1      33.175  16.843   3.606  0.00  0.00     0.031 C 
BRANCH  11  12
HETATM   12  C   UNK N   1      33.263  17.589   4.895  0.00  0.00    -0.024 C 
HETATM   13  C   UNK N   1      33.868  17.133   6.013  0.00  0.00    -0.087 C 
HETATM   14  C   UNK N   1      34.561  15.813   6.082  0.00  0.00     0.043 C 
BRANCH  13  15
HETATM   15  C   UNK N   1      33.843  17.961   7.252  0.00  0.00     0.037 C 
BRANCH  15  16
HETATM   16  C   UNK N   1      33.109  17.241   8.370  0.00  0.00     0.031 C 
BRANCH  16  17
HETATM   17  C   UNK N   1      31.749  17.848   8.489  0.00  0.00    -0.024 C 
HETATM   18  C   UNK N   1      30.673  17.274   7.928  0.00  0.00    -0.087 C 
HETATM   19  C   UNK N   1      30.784  15.986   7.171  0.00  0.00     0.043 C 
BRANCH  18  20
HETATM   20  C   UNK N   1      29.330  17.911   8.050  0.00  0.00     0.037 C 
BRANCH  20  21
HETATM   21  C   UNK N   1      28.699  18.057   6.675  0.00  0.00     0.031 C 
BRANCH  21  22
HETATM   22  C   UNK N   1      27.838  19.280   6.624  0.00  0.00    -0.024 C 
HETATM   23  C   UNK N   1      27.240  19.711   5.504  0.00  0.00    -0.091 C 
HETATM   24  C   UNK N   1      26.398  20.936   5.558  0.00  0.00     0.042 C 
HETATM   25  C   UNK N   1      27.390  18.994   4.198  0.00  0.00     0.042 C 
ENDBRANCH  21  22
ENDBRANCH  20  21
ENDBRANCH  18  20
ENDBRANCH  16  17
ENDBRANCH  15  16
ENDBRANCH  13  15
ENDBRANCH  11  12
ENDBRANCH  10  11
ENDBRANCH   8  10
ENDBRANCH   6   7
ENDBRANCH   5   6
ENDBRANCH   3   5
ENDBRANCH   1   2
BRANCH   1  26
HETATM   26  C   UNK N   1      24.337  15.488   6.400  0.00  0.00     0.037 C 
BRANCH  26  27
HETATM   27  C   UNK N   1      23.700  16.283   5.289  0.00  0.00    -0.087 C 
HETATM   28  C   UNK N   1      23.971  17.755   5.201  0.00  0.00     0.043 C 
HETATM   29  C   UNK N   1      22.898  15.679   4.402  0.00  0.00    -0.024 C 
BRANCH  29  30
HETATM   30  C   UNK N   1      22.282  16.438   3.242  0.00  0.00     0.031 C 
BRANCH  30  31
HETATM   31  C   UNK N   1      21.126  15.644   2.597  0.00  0.00     0.037 C 
BRANCH  31  32
HETATM   32  C   UNK N   1      20.335  15.075   3.723  0.00  0.00    -0.087 C 
HETATM   33  C   UNK N   1      19.770  16.016   4.742  0.00  0.00     0.043 C 
HETATM   34  C   UNK N   1      20.365  13.747   3.926  0.00  0.00    -0.020 C 
BRANCH  34  35
HETATM   35  C   UNK N   1      20.026  13.236   5.278  0.00  0.00     0.070 C 
BRANCH  35  36
HETATM   36  C   UNK N   1      21.073  12.929   6.284  0.00  0.00     0.006 A 
HETATM   37  C   UNK N   1      22.044  12.037   5.981  0.00  0.00    -0.001 A 
HETATM   38  C   UNK N   1      22.179  11.497   4.587  0.00  0.00     0.053 C 
HETATM   39  C   UNK N   1      22.930  11.515   7.046  0.00  0.00     0.189 A 
HETATM   40  C   UNK N   1      22.705  11.904   8.454  0.00  0.00     0.029 A 
HETATM   41  O   UNK N   1      23.794  10.690   6.767  0.00  0.00    -0.287 OA
HETATM   42  C   UNK N   1      23.440  11.312   9.488  0.00  0.00     0.016 A 
HETATM   43  C   UNK N   1      21.713  12.858   8.761  0.00  0.00     0.029 A 
HETATM   44  C   UNK N   1      23.195  11.663  10.817  0.00  0.00     0.001 A 
HETATM   45  C   UNK N   1      22.220  12.618  11.121  0.00  0.00     0.001 A 
HETATM   46  C   UNK N   1      21.482  13.214  10.096  0.00  0.00     0.016 A 
HETATM   47  C   UNK N   1      20.901  13.429   7.672  0.00  0.00     0.190 A 
HETATM   48  O   UNK N   1      20.040  14.268   7.923  0.00  0.00    -0.287 OA
ENDBRANCH  35  36
ENDBRANCH  34  35
ENDBRANCH  31  32
ENDBRANCH  30  31
ENDBRANCH  29  30
ENDBRANCH  26  27
ENDBRANCH   1  26
TORSDOF 20
ENDMDL
MODEL 9
REMARK VINA RESULT:      -5.7      2.093      2.611
REMARK  20 active torsions:
REMARK  status: ('A' for Active; 'I' for Inactive)
REMARK    1  A    between atoms: C_18  and  C_12 
REMARK    2  A    between atoms: C_19  and  C_12 
REMARK    3  A    between atoms: C_20  and  C_13 
REMARK    4  A    between atoms: C_21  and  C_13 
REMARK    5  A    between atoms: C_22  and  C_14 
REMARK    6  A    between atoms: C_23  and  C_14 
REMARK    7  A    between atoms: C_24  and  C_15 
REMARK    8  A    between atoms: C_25  and  C_15 
REMARK    9  A    between atoms: C_26  and  C_16 
REMARK   10  A    between atoms: C_27  and  C_16 
REMARK   11  A    between atoms: C_28  and  C_17 
REMARK   12  A    between atoms: C_29  and  C_17 
REMARK   13  A    between atoms: C_35  and  C_19 
REMARK   14  A    between atoms: C_36  and  C_21 
REMARK   15  A    between atoms: C_37  and  C_23 
REMARK   16  A    between atoms: C_38  and  C_25 
REMARK   17  A    between atoms: C_39  and  C_27 
REMARK   18  A    between atoms: C_40  and  C_29 
REMARK   19  A    between atoms: C_33  and  C_32 
REMARK   20  A    between atoms: C_42  and  C_33 
ROOT
HETATM    1  C   UNK N   1      25.254  14.605   4.373  0.00  0.00     0.031 C 
ENDROOT
BRANCH   1   2
HETATM    2  C   UNK N   1      26.598  14.895   3.795  0.00  0.00    -0.024 C 
HETATM    3  C   UNK N   1      26.746  15.159   2.487  0.00  0.00    -0.087 C 
HETATM    4  C   UNK N   1      25.572  15.266   1.564  0.00  0.00     0.043 C 
BRANCH   3   5
HETATM    5  C   UNK N   1      28.108  15.226   1.897  0.00  0.00     0.037 C 
BRANCH   5   6
HETATM    6  C   UNK N   1      29.207  15.109   2.928  0.00  0.00     0.031 C 
BRANCH   6   7
HETATM    7  C   UNK N   1      30.266  16.155   2.815  0.00  0.00    -0.024 C 
HETATM    8  C   UNK N   1      31.542  15.953   3.201  0.00  0.00    -0.087 C 
HETATM    9  C   UNK N   1      32.032  14.619   3.670  0.00  0.00     0.043 C 
BRANCH   8  10
HETATM   10  C   UNK N   1      32.462  17.122   3.281  0.00  0.00     0.037 C 
BRANCH  10  11
HETATM   11  C   UNK N   1      33.239  16.890   4.571  0.00  0.00     0.031 C 
BRANCH  11  12
HETATM   12  C   UNK N   1      32.670  17.523   5.796  0.00  0.00    -0.024 C 
HETATM   13  C   UNK N   1      32.641  16.953   7.021  0.00  0.00    -0.087 C 
HETATM   14  C   UNK N   1      33.214  15.606   7.304  0.00  0.00     0.043 C 
BRANCH  13  15
HETATM   15  C   UNK N   1      31.998  17.677   8.154  0.00  0.00     0.037 C 
BRANCH  15  16
HETATM   16  C   UNK N   1      30.696  17.007   8.556  0.00  0.00     0.031 C 
BRANCH  16  17
HETATM   17  C   UNK N   1      29.588  17.678   7.813  0.00  0.00    -0.024 C 
HETATM   18  C   UNK N   1      28.985  17.086   6.769  0.00  0.00    -0.087 C 
HETATM   19  C   UNK N   1      29.385  15.717   6.313  0.00  0.00     0.043 C 
BRANCH  18  20
HETATM   20  C   UNK N   1      27.891  17.786   6.036  0.00  0.00     0.037 C 
BRANCH  20  21
HETATM   21  C   UNK N   1      28.426  18.364   4.735  0.00  0.00     0.031 C 
BRANCH  21  22
HETATM   22  C   UNK N   1      27.297  18.727   3.822  0.00  0.00    -0.024 C 
HETATM   23  C   UNK N   1      26.601  19.867   3.933  0.00  0.00    -0.091 C 
HETATM   24  C   UNK N   1      25.499  20.138   2.971  0.00  0.00     0.042 C 
HETATM   25  C   UNK N   1      26.900  20.880   4.993  0.00  0.00     0.042 C 
ENDBRANCH  21  22
ENDBRANCH  20  21
ENDBRANCH  18  20
ENDBRANCH  16  17
ENDBRANCH  15  16
ENDBRANCH  13  15
ENDBRANCH  11  12
ENDBRANCH  10  11
ENDBRANCH   8  10
ENDBRANCH   6   7
ENDBRANCH   5   6
ENDBRANCH   3   5
ENDBRANCH   1   2
BRANCH   1  26
HETATM   26  C   UNK N   1      24.928  15.749   5.326  0.00  0.00     0.037 C 
BRANCH  26  27
HETATM   27  C   UNK N   1      23.815  16.605   4.775  0.00  0.00    -0.087 C 
HETATM   28  C   UNK N   1      23.693  18.025   5.240  0.00  0.00     0.043 C 
HETATM   29  C   UNK N   1      22.948  16.095   3.890  0.00  0.00    -0.024 C 
BRANCH  29  30
HETATM   30  C   UNK N   1      21.849  16.942   3.277  0.00  0.00     0.031 C 
BRANCH  30  31
HETATM   31  C   UNK N   1      20.815  16.073   2.531  0.00  0.00     0.037 C 
BRANCH  31  32
HETATM   32  C   UNK N   1      19.967  15.444   3.580  0.00  0.00    -0.087 C 
HETATM   33  C   UNK N   1      19.277  16.336   4.567  0.00  0.00     0.043 C 
HETATM   34  C   UNK N   1      20.048  14.115   3.765  0.00  0.00    -0.020 C 
BRANCH  34  35
HETATM   35  C   UNK N   1      19.629  13.562   5.077  0.00  0.00     0.070 C 
BRANCH  35  36
HETATM   36  C   UNK N   1      20.530  12.708   5.891  0.00  0.00     0.006 A 
HETATM   37  C   UNK N   1      21.392  13.290   6.756  0.00  0.00    -0.001 A 
HETATM   38  C   UNK N   1      21.320  14.763   7.035  0.00  0.00     0.053 C 
HETATM   39  C   UNK N   1      22.476  12.491   7.372  0.00  0.00     0.189 A 
HETATM   40  C   UNK N   1      22.669  11.079   6.982  0.00  0.00     0.029 A 
HETATM   41  O   UNK N   1      23.267  13.030   8.140  0.00  0.00    -0.287 OA
HETATM   42  C   UNK N   1      23.772  10.351   7.445  0.00  0.00     0.016 A 
HETATM   43  C   UNK N   1      21.750  10.468   6.105  0.00  0.00     0.029 A 
HETATM   44  C   UNK N   1      23.962   9.028   7.042  0.00  0.00     0.001 A 
HETATM   45  C   UNK N   1      23.044   8.419   6.182  0.00  0.00     0.001 A 
HETATM   46  C   UNK N   1      21.941   9.136   5.715  0.00  0.00     0.016 A 
HETATM   47  C   UNK N   1      20.627  11.261   5.572  0.00  0.00     0.190 A 
HETATM   48  O   UNK N   1      19.813  10.741   4.814  0.00  0.00    -0.287 OA
ENDBRANCH  35  36
ENDBRANCH  34  35
ENDBRANCH  31  32
ENDBRANCH  30  31
ENDBRANCH  29  30
ENDBRANCH  26  27
ENDBRANCH   1  26
TORSDOF 20
ENDMDL
