MODEL 1
REMARK VINA RESULT:      -3.4      0.000      0.000
REMARK  1 active torsions:
REMARK  status: ('A' for Active; 'I' for Inactive)
REMARK    1  A    between atoms: C_2  and  C_1 
ROOT
HETATM    1  C   UNK N   1      17.743  26.715   8.225  0.00  0.00     0.412 C 
HETATM    2  F   UNK N   1      17.106  27.032   7.040  0.00  0.00    -0.168 F 
HETATM    3  F   UNK N   1      16.945  27.706   8.760  0.00  0.00    -0.168 F 
HETATM    4  F   UNK N   1      18.493  25.742   7.580  0.00  0.00    -0.168 F 
ENDROOT
BRANCH   1   5
HETATM    5  C   UNK N   1      18.310  26.539   9.643  0.00  0.00     0.339 C 
HETATM    6  F   UNK N   1      19.142  27.555  10.094  0.00  0.00    -0.246 F 
ENDBRANCH   1   5
TORSDOF 1
ENDMDL
MODEL 2
REMARK VINA RESULT:      -3.3     15.923     16.476
REMARK  1 active torsions:
REMARK  status: ('A' for Active; 'I' for Inactive)
REMARK    1  A    between atoms: C_2  and  C_1 
ROOT
HETATM    1  C   UNK N   1      23.105  11.908  12.124  0.00  0.00     0.412 C 
HETATM    2  F   UNK N   1      23.245  11.788  13.494  0.00  0.00    -0.168 F 
HETATM    3  F   UNK N   1      21.753  11.925  12.402  0.00  0.00    -0.168 F 
HETATM    4  F   UNK N   1      24.482  11.879  11.964  0.00  0.00    -0.168 F 
ENDROOT
BRANCH   1   5
HETATM    5  C   UNK N   1      22.705  12.044  10.645  0.00  0.00     0.339 C 
HETATM    6  F   UNK N   1      22.961  10.941   9.843  0.00  0.00    -0.246 F 
ENDBRANCH   1   5
TORSDOF 1
ENDMDL
MODEL 3
REMARK VINA RESULT:      -3.2      1.106      2.969
REMARK  1 active torsions:
REMARK  status: ('A' for Active; 'I' for Inactive)
REMARK    1  A    between atoms: C_2  and  C_1 
ROOT
HETATM    1  C   UNK N   1      18.544  27.190   9.601  0.00  0.00     0.412 C 
HETATM    2  F   UNK N   1      19.590  27.047  10.494  0.00  0.00    -0.168 F 
HETATM    3  F   UNK N   1      18.532  25.810   9.606  0.00  0.00    -0.168 F 
HETATM    4  F   UNK N   1      18.650  28.571   9.675  0.00  0.00    -0.168 F 
ENDROOT
BRANCH   1   5
HETATM    5  C   UNK N   1      17.375  27.101   8.607  0.00  0.00     0.339 C 
HETATM    6  F   UNK N   1      17.694  26.647   7.335  0.00  0.00    -0.246 F 
ENDBRANCH   1   5
TORSDOF 1
ENDMDL
MODEL 4
REMARK VINA RESULT:      -3.1     14.955     15.576
REMARK  1 active torsions:
REMARK  status: ('A' for Active; 'I' for Inactive)
REMARK    1  A    between atoms: C_2  and  C_1 
ROOT
HETATM    1  C   UNK N   1      21.865  12.299  11.045  0.00  0.00     0.412 C 
HETATM    2  F   UNK N   1      20.641  12.575  10.463  0.00  0.00    -0.168 F 
HETATM    3  F   UNK N   1      21.109  11.962  12.149  0.00  0.00    -0.168 F 
HETATM    4  F   UNK N   1      22.519  12.664   9.878  0.00  0.00    -0.168 F 
ENDROOT
BRANCH   1   5
HETATM    5  C   UNK N   1      23.094  11.930  11.892  0.00  0.00     0.339 C 
HETATM    6  F   UNK N   1      22.836  11.562  13.205  0.00  0.00    -0.246 F 
ENDBRANCH   1   5
TORSDOF 1
ENDMDL
MODEL 5
REMARK VINA RESULT:      -3.0     16.259     16.483
REMARK  1 active torsions:
REMARK  status: ('A' for Active; 'I' for Inactive)
REMARK    1  A    between atoms: C_2  and  C_1 
ROOT
HETATM    1  C   UNK N   1      23.341  11.682  11.238  0.00  0.00     0.412 C 
HETATM    2  F   UNK N   1      24.134  11.690  10.105  0.00  0.00    -0.168 F 
HETATM    3  F   UNK N   1      24.526  11.922  11.903  0.00  0.00    -0.168 F 
HETATM    4  F   UNK N   1      22.214  11.441  10.466  0.00  0.00    -0.168 F 
ENDROOT
BRANCH   1   5
HETATM    5  C   UNK N   1      22.670  11.716  12.621  0.00  0.00     0.339 C 
HETATM    6  F   UNK N   1      23.524  11.854  13.706  0.00  0.00    -0.246 F 
ENDBRANCH   1   5
TORSDOF 1
ENDMDL
MODEL 6
REMARK VINA RESULT:      -3.0     14.538     15.352
REMARK  1 active torsions:
REMARK  status: ('A' for Active; 'I' for Inactive)
REMARK    1  A    between atoms: C_2  and  C_1 
ROOT
HETATM    1  C   UNK N   1      25.853  28.373  -4.252  0.00  0.00     0.412 C 
HETATM    2  F   UNK N   1      26.198  29.309  -3.295  0.00  0.00    -0.168 F 
HETATM    3  F   UNK N   1      25.260  27.713  -3.195  0.00  0.00    -0.168 F 
HETATM    4  F   UNK N   1      26.483  29.122  -5.235  0.00  0.00    -0.168 F 
ENDROOT
BRANCH   1   5
HETATM    5  C   UNK N   1      25.362  27.209  -5.129  0.00  0.00     0.339 C 
HETATM    6  F   UNK N   1      24.123  27.384  -5.730  0.00  0.00    -0.246 F 
ENDBRANCH   1   5
TORSDOF 1
ENDMDL
MODEL 7
REMARK VINA RESULT:      -3.0     22.832     23.848
REMARK  1 active torsions:
REMARK  status: ('A' for Active; 'I' for Inactive)
REMARK    1  A    between atoms: C_2  and  C_1 
ROOT
HETATM    1  C   UNK N   1      35.096  13.390  18.369  0.00  0.00     0.412 C 
HETATM    2  F   UNK N   1      34.961  13.266  19.740  0.00  0.00    -0.168 F 
HETATM    3  F   UNK N   1      35.120  12.010  18.384  0.00  0.00    -0.168 F 
HETATM    4  F   UNK N   1      35.059  14.773  18.475  0.00  0.00    -0.168 F 
ENDROOT
BRANCH   1   5
HETATM    5  C   UNK N   1      35.250  13.280  16.843  0.00  0.00     0.339 C 
HETATM    6  F   UNK N   1      34.069  13.246  16.116  0.00  0.00    -0.246 F 
ENDBRANCH   1   5
TORSDOF 1
ENDMDL
MODEL 8
REMARK VINA RESULT:      -2.9     22.889     23.928
REMARK  1 active torsions:
REMARK  status: ('A' for Active; 'I' for Inactive)
REMARK    1  A    between atoms: C_2  and  C_1 
ROOT
HETATM    1  C   UNK N   1      35.116  13.087  18.412  0.00  0.00     0.412 C 
HETATM    2  F   UNK N   1      35.001  13.144  19.788  0.00  0.00    -0.168 F 
HETATM    3  F   UNK N   1      35.083  14.465  18.489  0.00  0.00    -0.168 F 
HETATM    4  F   UNK N   1      35.139  11.701  18.455  0.00  0.00    -0.168 F 
ENDROOT
BRANCH   1   5
HETATM    5  C   UNK N   1      35.237  13.272  16.890  0.00  0.00     0.339 C 
HETATM    6  F   UNK N   1      34.041  13.319  16.187  0.00  0.00    -0.246 F 
ENDBRANCH   1   5
TORSDOF 1
ENDMDL
MODEL 9
REMARK VINA RESULT:      -2.9     22.803     23.412
REMARK  1 active torsions:
REMARK  status: ('A' for Active; 'I' for Inactive)
REMARK    1  A    between atoms: C_2  and  C_1 
ROOT
HETATM    1  C   UNK N   1      35.761  14.478  17.576  0.00  0.00     0.412 C 
HETATM    2  F   UNK N   1      36.341  15.641  18.047  0.00  0.00    -0.168 F 
HETATM    3  F   UNK N   1      34.987  14.564  18.716  0.00  0.00    -0.168 F 
HETATM    4  F   UNK N   1      36.593  14.493  16.467  0.00  0.00    -0.168 F 
ENDROOT
BRANCH   1   5
HETATM    5  C   UNK N   1      34.974  13.196  17.255  0.00  0.00     0.339 C 
HETATM    6  F   UNK N   1      33.999  13.313  16.274  0.00  0.00    -0.246 F 
ENDBRANCH   1   5
TORSDOF 1
ENDMDL
