MODEL 1
REMARK VINA RESULT:      -6.3      0.000      0.000
REMARK  1 active torsions:
REMARK  status: ('A' for Active; 'I' for Inactive)
REMARK    1  A    between atoms: O_15  and  C_12 
ROOT
HETATM    1  C   UNK N   1      34.877  10.367  20.607  0.00  0.00     0.052 C 
HETATM    2  C   UNK N   1      34.923   8.940  18.054  0.00  0.00     0.052 C 
HETATM    3  C   UNK N   1      35.461  14.720  18.185  0.00  0.00     0.052 C 
HETATM    4  C   UNK N   1      36.429  10.842  13.713  0.00  0.00     0.046 C 
HETATM    5  C   UNK N   1      34.015  10.383  13.682  0.00  0.00     0.046 C 
HETATM    6  C   UNK N   1      35.563  13.264  15.623  0.00  0.00     0.045 C 
HETATM    7  C   UNK N   1      34.785  12.561  14.522  0.00  0.00     0.042 C 
HETATM    8  C   UNK N   1      35.037  11.117  19.322  0.00  0.00    -0.020 A 
HETATM    9  C   UNK N   1      35.060  10.430  18.095  0.00  0.00    -0.019 A 
HETATM   10  C   UNK N   1      35.319  13.230  18.147  0.00  0.00    -0.019 A 
HETATM   11  C   UNK N   1      35.351  12.541  16.921  0.00  0.00    -0.015 A 
HETATM   12  C   UNK N   1      35.160  12.516  19.346  0.00  0.00     0.078 A 
HETATM   13  C   UNK N   1      35.209  11.142  16.896  0.00  0.00     0.083 A 
HETATM   14  C   UNK N   1      35.125  11.063  14.456  0.00  0.00     0.061 C 
HETATM   15  O   UNK N   1      35.214  10.473  15.711  0.00  0.00    -0.340 OA
ENDROOT
BRANCH  12  16
HETATM   16  O   UNK N   1      35.132  13.173  20.522  0.00  0.00    -0.360 OA
HETATM   17  H   UNK N   1      34.312  13.375  20.927  0.00  0.00     0.217 HD
ENDBRANCH  12  16
TORSDOF 1
ENDMDL
MODEL 2
REMARK VINA RESULT:      -6.0     10.666     13.459
REMARK  1 active torsions:
REMARK  status: ('A' for Active; 'I' for Inactive)
REMARK    1  A    between atoms: O_15  and  C_12 
ROOT
HETATM    1  C   UNK N   1      27.944  17.538   5.902  0.00  0.00     0.052 C 
HETATM    2  C   UNK N   1      29.633  17.575   8.289  0.00  0.00     0.052 C 
HETATM    3  C   UNK N   1      32.025  17.087   3.021  0.00  0.00     0.052 C 
HETATM    4  C   UNK N   1      34.557  18.266   8.329  0.00  0.00     0.046 C 
HETATM    5  C   UNK N   1      33.984  15.981   9.031  0.00  0.00     0.046 C 
HETATM    6  C   UNK N   1      33.719  17.183   5.433  0.00  0.00     0.045 C 
HETATM    7  C   UNK N   1      34.276  16.434   6.633  0.00  0.00     0.042 C 
HETATM    8  C   UNK N   1      29.431  17.429   5.780  0.00  0.00    -0.020 A 
HETATM    9  C   UNK N   1      30.243  17.448   6.929  0.00  0.00    -0.019 A 
HETATM   10  C   UNK N   1      31.412  17.209   4.381  0.00  0.00    -0.019 A 
HETATM   11  C   UNK N   1      32.223  17.238   5.531  0.00  0.00    -0.015 A 
HETATM   12  C   UNK N   1      30.016  17.304   4.510  0.00  0.00     0.078 A 
HETATM   13  C   UNK N   1      31.636  17.345   6.804  0.00  0.00     0.083 A 
HETATM   14  C   UNK N   1      33.766  17.025   7.957  0.00  0.00     0.061 C 
HETATM   15  O   UNK N   1      32.414  17.347   7.920  0.00  0.00    -0.340 OA
ENDROOT
BRANCH  12  16
HETATM   16  O   UNK N   1      29.237  17.280   3.410  0.00  0.00    -0.360 OA
HETATM   17  H   UNK N   1      28.339  17.021   3.477  0.00  0.00     0.217 HD
ENDBRANCH  12  16
TORSDOF 1
ENDMDL
MODEL 3
REMARK VINA RESULT:      -5.9     11.411     13.266
REMARK  1 active torsions:
REMARK  status: ('A' for Active; 'I' for Inactive)
REMARK    1  A    between atoms: O_15  and  C_12 
ROOT
HETATM    1  C   UNK N   1      26.924  18.762   5.610  0.00  0.00     0.052 C 
HETATM    2  C   UNK N   1      29.042  17.299   4.221  0.00  0.00     0.052 C 
HETATM    3  C   UNK N   1      29.595  18.599   9.854  0.00  0.00     0.052 C 
HETATM    4  C   UNK N   1      32.775  14.853   6.414  0.00  0.00     0.046 C 
HETATM    5  C   UNK N   1      33.609  16.806   5.179  0.00  0.00     0.046 C 
HETATM    6  C   UNK N   1      31.695  17.074   8.454  0.00  0.00     0.045 C 
HETATM    7  C   UNK N   1      32.884  17.112   7.508  0.00  0.00     0.042 C 
HETATM    8  C   UNK N   1      28.161  18.343   6.341  0.00  0.00    -0.020 A 
HETATM    9  C   UNK N   1      29.178  17.638   5.673  0.00  0.00    -0.019 A 
HETATM   10  C   UNK N   1      29.457  18.265   8.401  0.00  0.00    -0.019 A 
HETATM   11  C   UNK N   1      30.470  17.552   7.733  0.00  0.00    -0.015 A 
HETATM   12  C   UNK N   1      28.305  18.660   7.702  0.00  0.00     0.078 A 
HETATM   13  C   UNK N   1      30.334  17.250   6.366  0.00  0.00     0.083 A 
HETATM   14  C   UNK N   1      32.598  16.345   6.207  0.00  0.00     0.061 C 
HETATM   15  O   UNK N   1      31.321  16.584   5.709  0.00  0.00    -0.340 OA
ENDROOT
BRANCH  12  16
HETATM   16  O   UNK N   1      27.331  19.341   8.339  0.00  0.00    -0.360 OA
HETATM   17  H   UNK N   1      26.501  18.937   8.494  0.00  0.00     0.217 HD
ENDBRANCH  12  16
TORSDOF 1
ENDMDL
MODEL 4
REMARK VINA RESULT:      -5.9      1.242      3.358
REMARK  1 active torsions:
REMARK  status: ('A' for Active; 'I' for Inactive)
REMARK    1  A    between atoms: O_15  and  C_12 
ROOT
HETATM    1  C   UNK N   1      35.296  15.047  18.129  0.00  0.00     0.052 C 
HETATM    2  C   UNK N   1      36.079  13.712  15.646  0.00  0.00     0.052 C 
HETATM    3  C   UNK N   1      34.896  10.591  20.398  0.00  0.00     0.052 C 
HETATM    4  C   UNK N   1      35.567   8.858  14.695  0.00  0.00     0.046 C 
HETATM    5  C   UNK N   1      37.940   9.476  14.859  0.00  0.00     0.046 C 
HETATM    6  C   UNK N   1      35.631   9.257  17.873  0.00  0.00     0.045 C 
HETATM    7  C   UNK N   1      36.743   8.859  16.916  0.00  0.00     0.042 C 
HETATM    8  C   UNK N   1      35.399  13.555  18.070  0.00  0.00    -0.020 A 
HETATM    9  C   UNK N   1      35.774  12.914  16.875  0.00  0.00    -0.019 A 
HETATM   10  C   UNK N   1      35.205  11.393  19.172  0.00  0.00    -0.019 A 
HETATM   11  C   UNK N   1      35.572  10.752  17.974  0.00  0.00    -0.015 A 
HETATM   12  C   UNK N   1      35.121  12.794  19.217  0.00  0.00     0.078 A 
HETATM   13  C   UNK N   1      35.868  11.515  16.830  0.00  0.00     0.083 A 
HETATM   14  C   UNK N   1      36.599   9.563  15.557  0.00  0.00     0.061 C 
HETATM   15  O   UNK N   1      36.248  10.903  15.676  0.00  0.00    -0.340 OA
ENDROOT
BRANCH  12  16
HETATM   16  O   UNK N   1      34.767  13.410  20.362  0.00  0.00    -0.360 OA
HETATM   17  H   UNK N   1      34.892  14.334  20.456  0.00  0.00     0.217 HD
ENDBRANCH  12  16
TORSDOF 1
ENDMDL
MODEL 5
REMARK VINA RESULT:      -5.8     11.245     13.639
REMARK  1 active torsions:
REMARK  status: ('A' for Active; 'I' for Inactive)
REMARK    1  A    between atoms: O_15  and  C_12 
ROOT
HETATM    1  C   UNK N   1      33.933  17.145   6.572  0.00  0.00     0.052 C 
HETATM    2  C   UNK N   1      32.274  17.377   4.174  0.00  0.00     0.052 C 
HETATM    3  C   UNK N   1      29.831  17.467   9.441  0.00  0.00     0.052 C 
HETATM    4  C   UNK N   1      27.529  18.863   4.081  0.00  0.00     0.046 C 
HETATM    5  C   UNK N   1      27.721  16.493   3.459  0.00  0.00     0.046 C 
HETATM    6  C   UNK N   1      28.177  17.757   7.017  0.00  0.00     0.045 C 
HETATM    7  C   UNK N   1      27.506  17.069   5.839  0.00  0.00     0.042 C 
HETATM    8  C   UNK N   1      32.447  17.286   6.688  0.00  0.00    -0.020 A 
HETATM    9  C   UNK N   1      31.650  17.398   5.534  0.00  0.00    -0.019 A 
HETATM   10  C   UNK N   1      30.457  17.441   8.081  0.00  0.00    -0.019 A 
HETATM   11  C   UNK N   1      29.662  17.562   6.926  0.00  0.00    -0.015 A 
HETATM   12  C   UNK N   1      31.849  17.301   7.958  0.00  0.00     0.078 A 
HETATM   13  C   UNK N   1      30.259  17.529   5.654  0.00  0.00     0.083 A 
HETATM   14  C   UNK N   1      28.106  17.524   4.499  0.00  0.00     0.061 C 
HETATM   15  O   UNK N   1      29.493  17.620   4.533  0.00  0.00    -0.340 OA
ENDROOT
BRANCH  12  16
HETATM   16  O   UNK N   1      32.613  17.187   9.063  0.00  0.00    -0.360 OA
HETATM   17  H   UNK N   1      33.209  16.470   9.149  0.00  0.00     0.217 HD
ENDBRANCH  12  16
TORSDOF 1
ENDMDL
MODEL 6
REMARK VINA RESULT:      -5.7     17.893     20.149
REMARK  1 active torsions:
REMARK  status: ('A' for Active; 'I' for Inactive)
REMARK    1  A    between atoms: O_15  and  C_12 
ROOT
HETATM    1  C   UNK N   1      19.617  16.662   4.167  0.00  0.00     0.052 C 
HETATM    2  C   UNK N   1      22.323  16.527   5.270  0.00  0.00     0.052 C 
HETATM    3  C   UNK N   1      20.833  20.860   1.704  0.00  0.00     0.052 C 
HETATM    4  C   UNK N   1      25.646  20.226   5.226  0.00  0.00     0.046 C 
HETATM    5  C   UNK N   1      26.372  18.374   3.782  0.00  0.00     0.046 C 
HETATM    6  C   UNK N   1      23.539  20.741   2.868  0.00  0.00     0.045 C 
HETATM    7  C   UNK N   1      24.922  20.112   2.823  0.00  0.00     0.042 C 
HETATM    8  C   UNK N   1      20.632  17.705   3.817  0.00  0.00    -0.020 A 
HETATM    9  C   UNK N   1      21.933  17.640   4.349  0.00  0.00    -0.019 A 
HETATM   10  C   UNK N   1      21.222  19.742   2.621  0.00  0.00    -0.019 A 
HETATM   11  C   UNK N   1      22.519  19.680   3.161  0.00  0.00    -0.015 A 
HETATM   12  C   UNK N   1      20.281  18.753   2.950  0.00  0.00     0.078 A 
HETATM   13  C   UNK N   1      22.877  18.622   4.015  0.00  0.00     0.083 A 
HETATM   14  C   UNK N   1      25.221  19.306   4.097  0.00  0.00     0.061 C 
HETATM   15  O   UNK N   1      24.138  18.543   4.520  0.00  0.00    -0.340 OA
ENDROOT
BRANCH  12  16
HETATM   16  O   UNK N   1      19.036  18.810   2.437  0.00  0.00    -0.360 OA
HETATM   17  H   UNK N   1      18.452  18.085   2.539  0.00  0.00     0.217 HD
ENDBRANCH  12  16
TORSDOF 1
ENDMDL
MODEL 7
REMARK VINA RESULT:      -5.6     10.980     13.233
REMARK  1 active torsions:
REMARK  status: ('A' for Active; 'I' for Inactive)
REMARK    1  A    between atoms: O_15  and  C_12 
ROOT
HETATM    1  C   UNK N   1      33.446  15.999   3.653  0.00  0.00     0.052 C 
HETATM    2  C   UNK N   1      30.580  16.570   3.778  0.00  0.00     0.052 C 
HETATM    3  C   UNK N   1      33.917  17.303   8.473  0.00  0.00     0.052 C 
HETATM    4  C   UNK N   1      28.300  19.109   7.395  0.00  0.00     0.046 C 
HETATM    5  C   UNK N   1      27.612  16.750   7.409  0.00  0.00     0.046 C 
HETATM    6  C   UNK N   1      31.037  17.929   8.569  0.00  0.00     0.045 C 
HETATM    7  C   UNK N   1      29.617  17.396   8.677  0.00  0.00     0.042 C 
HETATM    8  C   UNK N   1      32.824  16.480   4.926  0.00  0.00    -0.020 A 
HETATM    9  C   UNK N   1      31.445  16.756   4.985  0.00  0.00    -0.019 A 
HETATM   10  C   UNK N   1      33.052  17.112   7.266  0.00  0.00    -0.019 A 
HETATM   11  C   UNK N   1      31.676  17.396   7.321  0.00  0.00    -0.015 A 
HETATM   12  C   UNK N   1      33.623  16.653   6.067  0.00  0.00     0.078 A 
HETATM   13  C   UNK N   1      30.871  17.205   6.183  0.00  0.00     0.083 A 
HETATM   14  C   UNK N   1      28.808  17.679   7.401  0.00  0.00     0.061 C 
HETATM   15  O   UNK N   1      29.535  17.454   6.238  0.00  0.00    -0.340 OA
ENDROOT
BRANCH  12  16
HETATM   16  O   UNK N   1      34.942  16.383   6.010  0.00  0.00    -0.360 OA
HETATM   17  H   UNK N   1      35.352  16.213   5.185  0.00  0.00     0.217 HD
ENDBRANCH  12  16
TORSDOF 1
ENDMDL
MODEL 8
REMARK VINA RESULT:      -5.4      1.803      4.602
REMARK  1 active torsions:
REMARK  status: ('A' for Active; 'I' for Inactive)
REMARK    1  A    between atoms: O_15  and  C_12 
ROOT
HETATM    1  C   UNK N   1      34.652  10.481  14.362  0.00  0.00     0.052 C 
HETATM    2  C   UNK N   1      35.313   8.373  16.280  0.00  0.00     0.052 C 
HETATM    3  C   UNK N   1      35.024  13.910  18.004  0.00  0.00     0.052 C 
HETATM    4  C   UNK N   1      35.273   8.858  21.228  0.00  0.00     0.046 C 
HETATM    5  C   UNK N   1      37.561   8.522  20.396  0.00  0.00     0.046 C 
HETATM    6  C   UNK N   1      35.633  11.768  19.937  0.00  0.00     0.045 C 
HETATM    7  C   UNK N   1      36.673  10.813  20.499  0.00  0.00     0.042 C 
HETATM    8  C   UNK N   1      34.921  10.817  15.796  0.00  0.00    -0.020 A 
HETATM    9  C   UNK N   1      35.238   9.802  16.717  0.00  0.00    -0.019 A 
HETATM   10  C   UNK N   1      35.103  12.482  17.563  0.00  0.00    -0.019 A 
HETATM   11  C   UNK N   1      35.410  11.465  18.485  0.00  0.00    -0.015 A 
HETATM   12  C   UNK N   1      34.860  12.155  16.218  0.00  0.00     0.078 A 
HETATM   13  C   UNK N   1      35.489  10.127  18.058  0.00  0.00     0.083 A 
HETATM   14  C   UNK N   1      36.302   9.346  20.225  0.00  0.00     0.061 C 
HETATM   15  O   UNK N   1      35.811   9.143  18.940  0.00  0.00    -0.340 OA
ENDROOT
BRANCH  12  16
HETATM   16  O   UNK N   1      34.562  13.126  15.333  0.00  0.00    -0.360 OA
HETATM   17  H   UNK N   1      35.179  13.810  15.161  0.00  0.00     0.217 HD
ENDBRANCH  12  16
TORSDOF 1
ENDMDL
MODEL 9
REMARK VINA RESULT:      -5.3     10.401     13.036
REMARK  1 active torsions:
REMARK  status: ('A' for Active; 'I' for Inactive)
REMARK    1  A    between atoms: O_15  and  C_12 
ROOT
HETATM    1  C   UNK N   1      27.750  15.728   4.448  0.00  0.00     0.052 C 
HETATM    2  C   UNK N   1      30.552  14.933   4.723  0.00  0.00     0.052 C 
HETATM    3  C   UNK N   1      28.210  18.728   8.442  0.00  0.00     0.052 C 
HETATM    4  C   UNK N   1      33.399  15.733   8.720  0.00  0.00     0.046 C 
HETATM    5  C   UNK N   1      34.185  17.055   6.803  0.00  0.00     0.046 C 
HETATM    6  C   UNK N   1      31.016  17.875   8.741  0.00  0.00     0.045 C 
HETATM    7  C   UNK N   1      32.452  18.014   8.259  0.00  0.00     0.042 C 
HETATM    8  C   UNK N   1      28.596  16.296   5.545  0.00  0.00    -0.020 A 
HETATM    9  C   UNK N   1      29.943  15.912   5.677  0.00  0.00    -0.019 A 
HETATM   10  C   UNK N   1      28.818  17.753   7.483  0.00  0.00    -0.019 A 
HETATM   11  C   UNK N   1      30.163  17.361   7.619  0.00  0.00    -0.015 A 
HETATM   12  C   UNK N   1      28.038  17.219   6.444  0.00  0.00     0.078 A 
HETATM   13  C   UNK N   1      30.727  16.450   6.708  0.00  0.00     0.083 A 
HETATM   14  C   UNK N   1      32.971  16.707   7.638  0.00  0.00     0.061 C 
HETATM   15  O   UNK N   1      32.033  16.088   6.819  0.00  0.00    -0.340 OA
ENDROOT
BRANCH  12  16
HETATM   16  O   UNK N   1      26.749  17.590   6.312  0.00  0.00    -0.360 OA
HETATM   17  H   UNK N   1      26.130  17.006   5.921  0.00  0.00     0.217 HD
ENDBRANCH  12  16
TORSDOF 1
ENDMDL
