MODEL 1
REMARK VINA RESULT:      -5.2      0.000      0.000
REMARK  3 active torsions:
REMARK  status: ('A' for Active; 'I' for Inactive)
REMARK    1  A    between atoms: C_11  and  C_9 
REMARK    2  A    between atoms: N_12  and  C_9 
REMARK    3  A    between atoms: C_11  and  C_10 
ROOT
HETATM    1  C   UNK N   1      28.993  17.060   5.794  0.00  0.00     0.048 C 
HETATM    2  C   UNK N   1      30.408  17.499   7.811  0.00  0.00     0.007 A 
HETATM    3  C   UNK N   1      31.478  17.151   5.671  0.00  0.00     0.007 A 
HETATM    4  C   UNK N   1      31.661  17.667   8.412  0.00  0.00     0.016 A 
HETATM    5  C   UNK N   1      32.725  17.319   6.272  0.00  0.00     0.016 A 
HETATM    6  C   UNK N   1      30.319  17.240   6.439  0.00  0.00    -0.062 A 
HETATM    7  C   UNK N   1      32.837  17.579   7.644  0.00  0.00     0.012 A 
ENDROOT
BRANCH   7   8
HETATM    8  C   UNK N   1      34.168  17.759   8.290  0.00  0.00     0.181 C 
HETATM    9  O   UNK N   1      34.795  18.786   8.074  0.00  0.00    -0.290 OA
BRANCH   8  10
HETATM   10  C   UNK N   1      34.782  16.718   9.210  0.00  0.00     0.147 C 
HETATM   11  C   UNK N   1      35.117  15.288   8.774  0.00  0.00     0.040 C 
BRANCH  10  12
HETATM   12  N   UNK N   1      35.055  17.145  10.590  0.00  0.00    -0.415 N 
HETATM   13  C   UNK N   1      35.628  16.072  11.394  0.00  0.00     0.140 C 
HETATM   14  H   UNK N   1      34.866  18.083  10.944  0.00  0.00     0.153 HD
ENDBRANCH  10  12
ENDBRANCH   8  10
ENDBRANCH   7   8
TORSDOF 3
ENDMDL
MODEL 2
REMARK VINA RESULT:      -5.0      0.831      1.612
REMARK  3 active torsions:
REMARK  status: ('A' for Active; 'I' for Inactive)
REMARK    1  A    between atoms: C_11  and  C_9 
REMARK    2  A    between atoms: N_12  and  C_9 
REMARK    3  A    between atoms: C_11  and  C_10 
ROOT
HETATM    1  C   UNK N   1      30.315  17.074   4.730  0.00  0.00     0.048 C 
HETATM    2  C   UNK N   1      32.743  17.200   5.321  0.00  0.00     0.007 A 
HETATM    3  C   UNK N   1      31.094  17.290   7.086  0.00  0.00     0.007 A 
HETATM    4  C   UNK N   1      33.767  17.310   6.269  0.00  0.00     0.016 A 
HETATM    5  C   UNK N   1      32.115  17.399   8.029  0.00  0.00     0.016 A 
HETATM    6  C   UNK N   1      31.407  17.190   5.731  0.00  0.00    -0.062 A 
HETATM    7  C   UNK N   1      33.460  17.411   7.639  0.00  0.00     0.012 A 
ENDROOT
BRANCH   7   8
HETATM    8  C   UNK N   1      34.555  17.528   8.644  0.00  0.00     0.181 C 
HETATM    9  O   UNK N   1      35.100  18.611   8.801  0.00  0.00    -0.290 OA
BRANCH   8  10
HETATM   10  C   UNK N   1      35.025  16.354   9.486  0.00  0.00     0.147 C 
HETATM   11  C   UNK N   1      35.474  15.012   8.900  0.00  0.00     0.040 C 
BRANCH  10  12
HETATM   12  N   UNK N   1      35.036  16.557  10.942  0.00  0.00    -0.415 N 
HETATM   13  C   UNK N   1      35.934  15.630  11.619  0.00  0.00     0.140 C 
HETATM   14  H   UNK N   1      34.479  17.265  11.422  0.00  0.00     0.153 HD
ENDBRANCH  10  12
ENDBRANCH   8  10
ENDBRANCH   7   8
TORSDOF 3
ENDMDL
MODEL 3
REMARK VINA RESULT:      -5.0     11.351     12.818
REMARK  3 active torsions:
REMARK  status: ('A' for Active; 'I' for Inactive)
REMARK    1  A    between atoms: C_11  and  C_9 
REMARK    2  A    between atoms: N_12  and  C_9 
REMARK    3  A    between atoms: C_11  and  C_10 
ROOT
HETATM    1  C   UNK N   1      23.287  11.567  12.641  0.00  0.00     0.048 C 
HETATM    2  C   UNK N   1      21.269  12.389  11.409  0.00  0.00     0.007 A 
HETATM    3  C   UNK N   1      23.460  12.736  10.449  0.00  0.00     0.007 A 
HETATM    4  C   UNK N   1      20.683  13.028  10.309  0.00  0.00     0.016 A 
HETATM    5  C   UNK N   1      22.875  13.372   9.355  0.00  0.00     0.016 A 
HETATM    6  C   UNK N   1      22.658  12.244  11.477  0.00  0.00    -0.062 A 
HETATM    7  C   UNK N   1      21.486  13.527   9.267  0.00  0.00     0.012 A 
ENDROOT
BRANCH   7   8
HETATM    8  C   UNK N   1      20.856  14.206   8.099  0.00  0.00     0.181 C 
HETATM    9  O   UNK N   1      20.280  13.528   7.261  0.00  0.00    -0.290 OA
BRANCH   8  10
HETATM   10  C   UNK N   1      20.900  15.712   7.903  0.00  0.00     0.147 C 
HETATM   11  C   UNK N   1      20.028  16.698   8.687  0.00  0.00     0.040 C 
BRANCH  10  12
HETATM   12  N   UNK N   1      21.846  16.213   6.895  0.00  0.00    -0.415 N 
HETATM   13  C   UNK N   1      21.421  17.486   6.327  0.00  0.00     0.140 C 
HETATM   14  H   UNK N   1      22.701  15.725   6.625  0.00  0.00     0.153 HD
ENDBRANCH  10  12
ENDBRANCH   8  10
ENDBRANCH   7   8
TORSDOF 3
ENDMDL
MODEL 4
REMARK VINA RESULT:      -4.8     16.765     18.864
REMARK  3 active torsions:
REMARK  status: ('A' for Active; 'I' for Inactive)
REMARK    1  A    between atoms: C_11  and  C_9 
REMARK    2  A    between atoms: N_12  and  C_9 
REMARK    3  A    between atoms: C_11  and  C_10 
ROOT
HETATM    1  C   UNK N   1      29.530  30.690  -6.831  0.00  0.00     0.048 C 
HETATM    2  C   UNK N   1      28.249  28.603  -7.346  0.00  0.00     0.007 A 
HETATM    3  C   UNK N   1      27.743  29.830  -5.326  0.00  0.00     0.007 A 
HETATM    4  C   UNK N   1      27.264  27.662  -7.024  0.00  0.00     0.016 A 
HETATM    5  C   UNK N   1      26.763  28.891  -5.006  0.00  0.00     0.016 A 
HETATM    6  C   UNK N   1      28.487  29.687  -6.495  0.00  0.00    -0.062 A 
HETATM    7  C   UNK N   1      26.509  27.798  -5.845  0.00  0.00     0.012 A 
ENDROOT
BRANCH   7   8
HETATM    8  C   UNK N   1      25.461  26.792  -5.507  0.00  0.00     0.181 C 
HETATM    9  O   UNK N   1      24.285  27.114  -5.588  0.00  0.00    -0.290 OA
BRANCH   8  10
HETATM   10  C   UNK N   1      25.794  25.378  -5.065  0.00  0.00     0.147 C 
HETATM   11  C   UNK N   1      26.620  25.048  -3.819  0.00  0.00     0.040 C 
BRANCH  10  12
HETATM   12  N   UNK N   1      25.276  24.291  -5.909  0.00  0.00    -0.415 N 
HETATM   13  C   UNK N   1      26.013  24.168  -7.161  0.00  0.00     0.140 C 
HETATM   14  H   UNK N   1      24.492  23.692  -5.648  0.00  0.00     0.153 HD
ENDBRANCH  10  12
ENDBRANCH   8  10
ENDBRANCH   7   8
TORSDOF 3
ENDMDL
MODEL 5
REMARK VINA RESULT:      -4.7     14.195     15.208
REMARK  3 active torsions:
REMARK  status: ('A' for Active; 'I' for Inactive)
REMARK    1  A    between atoms: C_11  and  C_9 
REMARK    2  A    between atoms: N_12  and  C_9 
REMARK    3  A    between atoms: C_11  and  C_10 
ROOT
HETATM    1  C   UNK N   1      19.767  11.003   0.487  0.00  0.00     0.048 C 
HETATM    2  C   UNK N   1      21.098  13.098   0.810  0.00  0.00     0.007 A 
HETATM    3  C   UNK N   1      18.723  13.262   0.388  0.00  0.00     0.007 A 
HETATM    4  C   UNK N   1      21.184  14.493   0.881  0.00  0.00     0.016 A 
HETATM    5  C   UNK N   1      18.811  14.651   0.458  0.00  0.00     0.016 A 
HETATM    6  C   UNK N   1      19.866  12.484   0.563  0.00  0.00    -0.062 A 
HETATM    7  C   UNK N   1      20.035  15.286   0.705  0.00  0.00     0.012 A 
ENDROOT
BRANCH   7   8
HETATM    8  C   UNK N   1      20.133  16.772   0.781  0.00  0.00     0.181 C 
HETATM    9  O   UNK N   1      20.390  17.400  -0.236  0.00  0.00    -0.290 OA
BRANCH   8  10
HETATM   10  C   UNK N   1      19.928  17.543   2.074  0.00  0.00     0.147 C 
HETATM   11  C   UNK N   1      19.971  16.901   3.463  0.00  0.00     0.040 C 
BRANCH  10  12
HETATM   12  N   UNK N   1      19.675  18.985   1.941  0.00  0.00    -0.415 N 
HETATM   13  C   UNK N   1      20.176  19.738   3.085  0.00  0.00     0.140 C 
HETATM   14  H   UNK N   1      19.204  19.409   1.141  0.00  0.00     0.153 HD
ENDBRANCH  10  12
ENDBRANCH   8  10
ENDBRANCH   7   8
TORSDOF 3
ENDMDL
MODEL 6
REMARK VINA RESULT:      -4.7     16.032     17.203
REMARK  3 active torsions:
REMARK  status: ('A' for Active; 'I' for Inactive)
REMARK    1  A    between atoms: C_11  and  C_9 
REMARK    2  A    between atoms: N_12  and  C_9 
REMARK    3  A    between atoms: C_11  and  C_10 
ROOT
HETATM    1  C   UNK N   1      25.837  22.720  -6.601  0.00  0.00     0.048 C 
HETATM    2  C   UNK N   1      26.398  23.996  -4.522  0.00  0.00     0.007 A 
HETATM    3  C   UNK N   1      25.598  25.195  -6.463  0.00  0.00     0.007 A 
HETATM    4  C   UNK N   1      26.499  25.202  -3.817  0.00  0.00     0.016 A 
HETATM    5  C   UNK N   1      25.700  26.394  -5.759  0.00  0.00     0.016 A 
HETATM    6  C   UNK N   1      25.947  23.996  -5.846  0.00  0.00    -0.062 A 
HETATM    7  C   UNK N   1      26.149  26.417  -4.433  0.00  0.00     0.012 A 
ENDROOT
BRANCH   7   8
HETATM    8  C   UNK N   1      26.259  27.698  -3.676  0.00  0.00     0.181 C 
HETATM    9  O   UNK N   1      25.427  27.950  -2.818  0.00  0.00    -0.290 OA
BRANCH   8  10
HETATM   10  C   UNK N   1      27.367  28.706  -3.927  0.00  0.00     0.147 C 
HETATM   11  C   UNK N   1      27.346  29.727  -5.069  0.00  0.00     0.040 C 
BRANCH  10  12
HETATM   12  N   UNK N   1      28.506  28.670  -2.999  0.00  0.00    -0.415 N 
HETATM   13  C   UNK N   1      28.366  29.638  -1.919  0.00  0.00     0.140 C 
HETATM   14  H   UNK N   1      29.303  28.039  -3.100  0.00  0.00     0.153 HD
ENDBRANCH  10  12
ENDBRANCH   8  10
ENDBRANCH   7   8
TORSDOF 3
ENDMDL
MODEL 7
REMARK VINA RESULT:      -4.7     12.209     13.635
REMARK  3 active torsions:
REMARK  status: ('A' for Active; 'I' for Inactive)
REMARK    1  A    between atoms: C_11  and  C_9 
REMARK    2  A    between atoms: N_12  and  C_9 
REMARK    3  A    between atoms: C_11  and  C_10 
ROOT
HETATM    1  C   UNK N   1      33.930  18.794  -4.959  0.00  0.00     0.048 C 
HETATM    2  C   UNK N   1      31.801  20.103  -4.832  0.00  0.00     0.007 A 
HETATM    3  C   UNK N   1      33.584  20.599  -3.278  0.00  0.00     0.007 A 
HETATM    4  C   UNK N   1      31.012  21.102  -4.249  0.00  0.00     0.016 A 
HETATM    5  C   UNK N   1      32.797  21.593  -2.698  0.00  0.00     0.016 A 
HETATM    6  C   UNK N   1      33.087  19.853  -4.345  0.00  0.00    -0.062 A 
HETATM    7  C   UNK N   1      31.506  21.859  -3.171  0.00  0.00     0.012 A 
ENDROOT
BRANCH   7   8
HETATM    8  C   UNK N   1      30.661  22.922  -2.554  0.00  0.00     0.181 C 
HETATM    9  O   UNK N   1      30.464  22.893  -1.348  0.00  0.00    -0.290 OA
BRANCH   8  10
HETATM   10  C   UNK N   1      30.032  24.043  -3.363  0.00  0.00     0.147 C 
HETATM   11  C   UNK N   1      30.783  25.306  -3.794  0.00  0.00     0.040 C 
BRANCH  10  12
HETATM   12  N   UNK N   1      28.620  23.868  -3.734  0.00  0.00    -0.415 N 
HETATM   13  C   UNK N   1      28.438  23.780  -5.178  0.00  0.00     0.140 C 
HETATM   14  H   UNK N   1      27.856  23.815  -3.059  0.00  0.00     0.153 HD
ENDBRANCH  10  12
ENDBRANCH   8  10
ENDBRANCH   7   8
TORSDOF 3
ENDMDL
MODEL 8
REMARK VINA RESULT:      -4.7      2.287      3.285
REMARK  3 active torsions:
REMARK  status: ('A' for Active; 'I' for Inactive)
REMARK    1  A    between atoms: C_11  and  C_9 
REMARK    2  A    between atoms: N_12  and  C_9 
REMARK    3  A    between atoms: C_11  and  C_10 
ROOT
HETATM    1  C   UNK N   1      28.255  18.106   8.692  0.00  0.00     0.048 C 
HETATM    2  C   UNK N   1      29.827  17.249   6.943  0.00  0.00     0.007 A 
HETATM    3  C   UNK N   1      30.728  18.209   8.970  0.00  0.00     0.007 A 
HETATM    4  C   UNK N   1      31.125  17.010   6.476  0.00  0.00     0.016 A 
HETATM    5  C   UNK N   1      32.020  17.970   8.504  0.00  0.00     0.016 A 
HETATM    6  C   UNK N   1      29.630  17.849   8.191  0.00  0.00    -0.062 A 
HETATM    7  C   UNK N   1      32.239  17.370   7.256  0.00  0.00     0.012 A 
ENDROOT
BRANCH   7   8
HETATM    8  C   UNK N   1      33.619  17.113   6.754  0.00  0.00     0.181 C 
HETATM    9  O   UNK N   1      34.306  18.061   6.404  0.00  0.00    -0.290 OA
BRANCH   8  10
HETATM   10  C   UNK N   1      34.210  15.717   6.657  0.00  0.00     0.147 C 
HETATM   11  C   UNK N   1      34.266  14.734   7.830  0.00  0.00     0.040 C 
BRANCH  10  12
HETATM   12  N   UNK N   1      34.750  15.326   5.347  0.00  0.00    -0.415 N 
HETATM   13  C   UNK N   1      33.749  15.417   4.291  0.00  0.00     0.140 C 
HETATM   14  H   UNK N   1      35.713  15.025   5.195  0.00  0.00     0.153 HD
ENDBRANCH  10  12
ENDBRANCH   8  10
ENDBRANCH   7   8
TORSDOF 3
ENDMDL
MODEL 9
REMARK VINA RESULT:      -4.6     18.056     18.871
REMARK  3 active torsions:
REMARK  status: ('A' for Active; 'I' for Inactive)
REMARK    1  A    between atoms: C_11  and  C_9 
REMARK    2  A    between atoms: N_12  and  C_9 
REMARK    3  A    between atoms: C_11  and  C_10 
ROOT
HETATM    1  C   UNK N   1      27.244  30.919  -3.926  0.00  0.00     0.048 C 
HETATM    2  C   UNK N   1      25.937  28.785  -3.901  0.00  0.00     0.007 A 
HETATM    3  C   UNK N   1      27.441  29.226  -5.741  0.00  0.00     0.007 A 
HETATM    4  C   UNK N   1      25.585  27.560  -4.479  0.00  0.00     0.016 A 
HETATM    5  C   UNK N   1      27.089  28.006  -6.316  0.00  0.00     0.016 A 
HETATM    6  C   UNK N   1      26.866  29.618  -4.534  0.00  0.00    -0.062 A 
HETATM    7  C   UNK N   1      26.161  27.157  -5.698  0.00  0.00     0.012 A 
ENDROOT
BRANCH   7   8
HETATM    8  C   UNK N   1      25.782  25.851  -6.309  0.00  0.00     0.181 C 
HETATM    9  O   UNK N   1      24.993  25.129  -5.717  0.00  0.00    -0.290 OA
BRANCH   8  10
HETATM   10  C   UNK N   1      26.336  25.376  -7.641  0.00  0.00     0.147 C 
HETATM   11  C   UNK N   1      25.843  25.886  -8.999  0.00  0.00     0.040 C 
BRANCH  10  12
HETATM   12  N   UNK N   1      27.407  24.370  -7.582  0.00  0.00    -0.415 N 
HETATM   13  C   UNK N   1      26.923  23.034  -7.905  0.00  0.00     0.140 C 
HETATM   14  H   UNK N   1      28.376  24.584  -7.343  0.00  0.00     0.153 HD
ENDBRANCH  10  12
ENDBRANCH   8  10
ENDBRANCH   7   8
TORSDOF 3
ENDMDL
