REMARK  10 active torsions:
REMARK  status: ('A' for Active; 'I' for Inactive)
REMARK    1  A    between atoms: N_42  and  C_19 
REMARK    2  A    between atoms: O_45  and  C_20 
REMARK    3  A    between atoms: O_45  and  C_21 
REMARK    4  A    between atoms: N_37  and  C_24 
REMARK    5  A    between atoms: C_28  and  C_25 
REMARK    6  A    between atoms: C_30  and  C_26 
REMARK    7  A    between atoms: N_39  and  C_27 
REMARK       I    between atoms: N_32  and  C_28 
REMARK    8  A    between atoms: N_37  and  C_29 
REMARK    9  A    between atoms: N_39  and  C_29 
REMARK   10  A    between atoms: O_44  and  C_29 
ROOT
HETATM    1  C   UNK N   1       3.979  -2.104  -0.402  0.00  0.00     0.223 C 
ENDROOT
BRANCH   1   2
HETATM    2  N   UNK N   1       4.461  -3.129  -0.996  0.00  0.00    -0.320 N 
ATOM      3  HN  UNK N   1       3.998  -3.412  -1.859  1.00  0.00     0.169 HD
BRANCH   2   4
HETATM    4  C   UNK N   1       5.562  -3.912  -0.590  0.00  0.00     0.074 C 
HETATM    5  C   UNK N   1       6.245  -3.694   0.625  0.00  0.00     0.035 C 
HETATM    6  C   UNK N   1       7.010  -4.708   1.196  0.00  0.00     0.040 C 
HETATM    7  C   UNK N   1       7.060  -5.939   0.551  0.00  0.00     0.079 C 
HETATM    8  C   UNK N   1       6.512  -6.090  -0.734  0.00  0.00     0.081 C 
HETATM    9  C   UNK N   1       5.770  -5.085  -1.299  0.00  0.00     0.145 C 
HETATM   10  F   UNK N   1       5.071  -5.337  -2.433  0.00  0.00    -0.204 F 
BRANCH   7  11
HETATM   11  O   UNK N   1       7.261  -7.060   1.272  0.00  0.00    -0.311 OA
BRANCH  11  12
HETATM   12  C   UNK N   1       6.225  -7.942   1.241  0.00  0.00     0.079 A 
HETATM   13  C   UNK N   1       4.902  -7.487   1.447  0.00  0.00     0.054 A 
HETATM   14  C   UNK N   1       3.831  -8.323   1.158  0.00  0.00     0.091 A 
HETATM   15  N   UNK N   1       4.063  -9.564   0.661  0.00  0.00    -0.361 N 
HETATM   16  C   UNK N   1       5.328 -10.036   0.462  0.00  0.00     0.103 A 
ATOM     17  HN  UNK N   1       3.269 -10.161   0.428  1.00  0.00     0.165 HD
HETATM   18  C   UNK N   1       6.429  -9.222   0.756  0.00  0.00     0.072 A 
BRANCH  16  19
HETATM   19  C   UNK N   1       5.571 -11.377  -0.129  0.00  0.00     0.267 C 
HETATM   20  N   UNK N   1       4.576 -12.265  -0.393  0.00  0.00    -0.360 N 
HETATM   21  C   UNK N   1       3.182 -12.042  -0.107  0.00  0.00     0.149 C 
HETATM   22  H   UNK N   1       4.826 -13.121  -0.810  0.00  0.00     0.162 HD
HETATM   23  O   UNK N   1       6.720 -11.696  -0.396  0.00  0.00    -0.266 OA
ENDBRANCH  16  19
ENDBRANCH  11  12
ENDBRANCH   7  11
ENDBRANCH   2   4
ENDBRANCH   1   2
BRANCH   1  24
HETATM   24  N   UNK N   1       4.655  -1.467   0.676  0.00  0.00    -0.307 N 
HETATM   25  H   UNK N   1       4.416  -1.677   1.608  0.00  0.00     0.171 HD
BRANCH  24  26
HETATM   26  C   UNK N   1       5.679  -0.523   0.391  0.00  0.00     0.132 A 
HETATM   27  C   UNK N   1       7.005  -0.827   0.206  0.00  0.00     0.077 A 
HETATM   28  C   UNK N   1       7.575   0.390  -0.132  0.00  0.00     0.037 A 
HETATM   29  N   UNK N   1       6.629   1.364  -0.126  0.00  0.00    -0.295 N 
HETATM   30  N   UNK N   1       5.469   0.796   0.191  0.00  0.00    -0.240 N 
ATOM     31  HN  UNK N   1       6.780   2.352  -0.327  1.00  0.00     0.187 HD
BRANCH  28  32
HETATM   32  C   UNK N   1       9.023   0.563  -0.521  0.00  0.00    -0.007 C 
HETATM   33  C   UNK N   1       9.922   0.214   0.651  0.00  0.00     0.021 C 
HETATM   34  C   UNK N   1       9.320   1.983  -0.962  0.00  0.00     0.021 C 
HETATM   35  C   UNK N   1       9.352  -0.371  -1.675  0.00  0.00     0.021 C 
ENDBRANCH  28  32
BRANCH  30  36
HETATM   36  C   UNK N   1       4.192   1.469   0.237  0.00  0.00     0.059 A 
HETATM   37  C   UNK N   1       4.065   2.867   0.181  0.00  0.00     0.034 A 
HETATM   38  C   UNK N   1       2.780   3.455   0.182  0.00  0.00     0.033 A 
HETATM   39  C   UNK N   1       1.630   2.643   0.196  0.00  0.00     0.042 A 
HETATM   40  C   UNK N   1       1.774   1.252   0.236  0.00  0.00    -0.007 A 
HETATM   41  N   UNK N   1       0.382   3.184   0.155  0.00  0.00    -0.365 N 
HETATM   42  C   UNK N   1       0.650   0.428   0.210  0.00  0.00     0.015 A 
HETATM   43  C   UNK N   1       3.032   0.701   0.280  0.00  0.00     0.045 A 
HETATM   44  C   UNK N   1      -0.616   1.002   0.151  0.00  0.00     0.018 A 
HETATM   45  C   UNK N   1      -0.733   2.396   0.133  0.00  0.00     0.088 A 
ATOM     46  HN  UNK N   1       0.277   4.199   0.141  1.00  0.00     0.165 HD
ENDBRANCH  30  36
ENDBRANCH  24  26
ENDBRANCH   1  24
BRANCH   1  47
HETATM   47  O   UNK N   1       2.773  -1.665  -0.795  0.00  0.00    -0.332 OA
HETATM   48  H   UNK N   1       2.617  -0.783  -1.070  0.00  0.00     0.220 HD
ENDBRANCH   1  47
TORSDOF 10
