REMARK  7 active torsions:
REMARK  status: ('A' for Active; 'I' for Inactive)
REMARK    1  A    between atoms: C_4  and  O_8 
REMARK    2  A    between atoms: O_8  and  C_9 
REMARK    3  A    between atoms: N_12  and  C_15 
REMARK    4  A    between atoms: C_17  and  C_21 
REMARK    5  A    between atoms: N_25  and  C_28 
REMARK    6  A    between atoms: C_28  and  C_29 
REMARK    7  A    between atoms: C_29  and  O_31 
ROOT
HETATM    1  C   UNK N   1       0.507   3.450  -0.173  0.00  0.00     0.126 A 
HETATM    2  C   UNK N   1       1.626   2.717  -0.513  0.00  0.00     0.093 A 
HETATM    3  C   UNK N   1       1.340   1.476   0.015  0.00  0.00     0.148 A 
HETATM    4  O   UNK N   1       0.160   1.502   0.589  0.00  0.00    -0.232 OA
HETATM    5  N   UNK N   1      -0.366   2.683   0.504  0.00  0.00    -0.244 N 
ATOM      6  HN  UNK N   1      -1.269   2.975   0.878  1.00  0.00     0.196 HD
ENDROOT
BRANCH   1   7
HETATM    7  N   UNK N   1       0.332   4.836  -0.374  0.00  0.00    -0.366 N 
HETATM    8  C   UNK N   1       1.291   5.611  -1.126  0.00  0.00     0.127 C 
HETATM    9  C   UNK N   1       2.098   6.470  -0.158  0.00  0.00     0.052 C 
HETATM   10  C   UNK N   1       1.195   7.235   0.816  0.00  0.00     0.132 C 
HETATM   11  C   UNK N   1       0.089   6.373   1.457  0.00  0.00     0.052 C 
HETATM   12  C   UNK N   1      -0.647   5.528   0.415  0.00  0.00     0.127 C 
BRANCH  10  13
HETATM   13  O   UNK N   1       0.840   8.491   0.338  0.00  0.00    -0.344 OA
BRANCH  13  14
HETATM   14  C   UNK N   1      -0.393   9.011   0.081  0.00  0.00     0.089 A 
HETATM   15  C   UNK N   1      -0.529  10.401  -0.056  0.00  0.00     0.044 A 
HETATM   16  C   UNK N   1      -1.785  10.964  -0.308  0.00  0.00     0.025 A 
HETATM   17 Br   UNK N   1       0.988  11.550   0.126  0.00  0.00    -0.048 Br
HETATM   18  C   UNK N   1      -2.911  10.146  -0.435  0.00  0.00     0.044 A 
HETATM   19  C   UNK N   1      -2.782   8.763  -0.311  0.00  0.00     0.119 A 
HETATM   20  C   UNK N   1      -1.532   8.205  -0.055  0.00  0.00     0.080 A 
HETATM   21  F   UNK N   1      -3.866   7.961  -0.435  0.00  0.00    -0.206 F 
ENDBRANCH  13  14
ENDBRANCH  10  13
ENDBRANCH   1   7
BRANCH   3  22
HETATM   22  C   UNK N   1       2.191   0.299  -0.010  0.00  0.00     0.171 A 
HETATM   23  N   UNK N   1       3.421   0.223  -0.557  0.00  0.00    -0.264 N 
HETATM   24  N   UNK N   1       3.797  -1.037  -0.399  0.00  0.00    -0.002 NA
ATOM     25  HN  UNK N   1       3.950   0.976  -0.997  1.00  0.00     0.186 HD
HETATM   26  N   UNK N   1       2.831  -1.693   0.222  0.00  0.00    -0.206 N 
HETATM   27  N   UNK N   1       1.822  -0.888   0.488  0.00  0.00    -0.267 N 
ATOM     28  HN  UNK N   1       0.951  -1.118   0.967  1.00  0.00     0.190 HD
BRANCH  26  29
HETATM   29  C   UNK N   1       2.843  -3.118   0.514  0.00  0.00     0.276 C 
BRANCH  29  30
HETATM   30  C   UNK N   1       1.628  -3.805  -0.055  0.00  0.00     0.161 C 
HETATM   31  O   UNK N   1       1.538  -5.018   0.014  0.00  0.00    -0.649 OA
BRANCH  30  32
HETATM   32  O   UNK N   1       0.627  -3.097  -0.618  0.00  0.00    -0.775 OA
HETATM   33  H   UNK N   1       0.705  -2.249  -1.009  0.00  0.00     0.167 HD
ENDBRANCH  30  32
ENDBRANCH  29  30
ENDBRANCH  26  29
ENDBRANCH   3  22
TORSDOF 7
