MODEL 1
REMARK VINA RESULT:      -7.0      0.000      0.000
REMARK  3 active torsions:
REMARK  status: ('A' for Active; 'I' for Inactive)
REMARK    1  A    between atoms: C_2  and  C_10 
REMARK    2  A    between atoms: C_6  and  N_9 
REMARK    3  A    between atoms: C_12  and  C_18 
ROOT
HETATM    1  C   UNK N   1      35.168  12.440  13.337  0.00  0.00     0.009 A 
HETATM    2  C   UNK N   1      35.245  12.710  14.719  0.00  0.00     0.028 A 
HETATM    3  C   UNK N   1      35.043  11.708  15.685  0.00  0.00     0.016 A 
HETATM    4  C   UNK N   1      34.753  10.398  15.248  0.00  0.00     0.130 A 
HETATM    5  C   UNK N   1      34.653  10.122  13.886  0.00  0.00     0.086 A 
HETATM    6  C   UNK N   1      34.851  11.118  12.932  0.00  0.00     0.128 A 
HETATM    7  F   UNK N   1      34.754  10.765  11.628  0.00  0.00    -0.205 F 
HETATM    8  F   UNK N   1      34.559   9.382  16.124  0.00  0.00    -0.205 F 
ENDROOT
BRANCH   1   9
HETATM    9  C   UNK N   1      35.471  13.581  12.358  0.00  0.00     0.059 C 
HETATM   10  C   UNK N   1      36.026  14.736  13.193  0.00  0.00     0.044 C 
HETATM   11  C   UNK N   1      36.532  13.223  11.293  0.00  0.00     0.046 C 
HETATM   12  C   UNK N   1      36.541  14.097  10.028  0.00  0.00     0.085 C 
HETATM   13  S   UNK N   1      35.740  15.718  10.258  0.00  0.00    -0.095 SA
HETATM   14  C   UNK N   1      34.216  14.924  10.797  0.00  0.00     0.134 C 
HETATM   15  N   UNK N   1      34.238  13.999  11.700  0.00  0.00    -0.358 N 
ATOM     16  HN  UNK N   1      33.363  13.545  11.962  1.00  0.00     0.162 HD
BRANCH  14  17
HETATM   17  N   UNK N   1      32.994  15.285  10.192  0.00  0.00    -0.380 N 
HETATM   18  H   UNK N   1      32.107  15.622  10.459  0.00  0.00     0.158 HD
HETATM   19  H   UNK N   1      33.040  15.165   9.215  0.00  0.00     0.158 HD
ENDBRANCH  14  17
ENDBRANCH   1   9
BRANCH   3  20
HETATM   20  C   UNK N   1      35.154  12.051  17.135  0.00  0.00     0.008 A 
HETATM   21  C   UNK N   1      35.126  13.384  17.560  0.00  0.00     0.102 A 
HETATM   22  N   UNK N   1      35.228  13.686  18.882  0.00  0.00    -0.361 N 
HETATM   23  C   UNK N   1      35.366  12.705  19.811  0.00  0.00     0.180 A 
ATOM     24  HN  UNK N   1      35.199  14.660  19.180  1.00  0.00     0.166 HD
HETATM   25  N   UNK N   1      35.401  11.402  19.428  0.00  0.00    -0.361 N 
HETATM   26  C   UNK N   1      35.294  11.061  18.118  0.00  0.00     0.102 A 
ATOM     27  HN  UNK N   1      35.508  10.672  20.132  1.00  0.00     0.166 HD
ENDBRANCH   3  20
TORSDOF 3
ENDMDL
MODEL 2
REMARK VINA RESULT:      -6.9      4.067      7.676
REMARK  3 active torsions:
REMARK  status: ('A' for Active; 'I' for Inactive)
REMARK    1  A    between atoms: C_2  and  C_10 
REMARK    2  A    between atoms: C_6  and  N_9 
REMARK    3  A    between atoms: C_12  and  C_18 
ROOT
HETATM    1  C   UNK N   1      35.198  10.672  18.490  0.00  0.00     0.009 A 
HETATM    2  C   UNK N   1      35.426  11.281  17.239  0.00  0.00     0.028 A 
HETATM    3  C   UNK N   1      35.476  12.679  17.091  0.00  0.00     0.016 A 
HETATM    4  C   UNK N   1      35.288  13.486  18.233  0.00  0.00     0.130 A 
HETATM    5  C   UNK N   1      35.040  12.897  19.472  0.00  0.00     0.086 A 
HETATM    6  C   UNK N   1      34.989  11.513  19.614  0.00  0.00     0.128 A 
HETATM    7  F   UNK N   1      34.761  11.017  20.854  0.00  0.00    -0.205 F 
HETATM    8  F   UNK N   1      35.335  14.839  18.165  0.00  0.00    -0.205 F 
ENDROOT
BRANCH   1   9
HETATM    9  C   UNK N   1      35.229   9.141  18.566  0.00  0.00     0.059 C 
HETATM   10  C   UNK N   1      35.482   8.638  17.144  0.00  0.00     0.044 C 
HETATM   11  C   UNK N   1      36.358   8.585  19.465  0.00  0.00     0.046 C 
HETATM   12  C   UNK N   1      36.171   7.144  19.970  0.00  0.00     0.085 C 
HETATM   13  S   UNK N   1      35.002   6.168  18.969  0.00  0.00    -0.095 SA
HETATM   14  C   UNK N   1      33.707   7.392  19.230  0.00  0.00     0.134 C 
HETATM   15  N   UNK N   1      33.941   8.650  19.039  0.00  0.00    -0.358 N 
ATOM     16  HN  UNK N   1      33.197   9.322  19.227  1.00  0.00     0.162 HD
BRANCH  14  17
HETATM   17  N   UNK N   1      32.441   6.974  19.692  0.00  0.00    -0.380 N 
HETATM   18  H   UNK N   1      32.046   6.562  20.494  0.00  0.00     0.158 HD
HETATM   19  H   UNK N   1      31.748   7.146  19.012  0.00  0.00     0.158 HD
ENDBRANCH  14  17
ENDBRANCH   1   9
BRANCH   3  20
HETATM   20  C   UNK N   1      35.738  13.267  15.743  0.00  0.00     0.008 A 
HETATM   21  C   UNK N   1      34.990  12.868  14.629  0.00  0.00     0.102 A 
HETATM   22  N   UNK N   1      35.236  13.409  13.407  0.00  0.00    -0.361 N 
HETATM   23  C   UNK N   1      36.214  14.337  13.240  0.00  0.00     0.180 A 
ATOM     24  HN  UNK N   1      34.680  13.116  12.604  1.00  0.00     0.166 HD
HETATM   25  N   UNK N   1      36.960  14.740  14.302  0.00  0.00    -0.361 N 
HETATM   26  C   UNK N   1      36.738  14.228  15.540  0.00  0.00     0.102 A 
ATOM     27  HN  UNK N   1      37.694  15.434  14.167  1.00  0.00     0.166 HD
ENDBRANCH   3  20
TORSDOF 3
ENDMDL
MODEL 3
REMARK VINA RESULT:      -6.7      3.564      4.616
REMARK  3 active torsions:
REMARK  status: ('A' for Active; 'I' for Inactive)
REMARK    1  A    between atoms: C_2  and  C_10 
REMARK    2  A    between atoms: C_6  and  N_9 
REMARK    3  A    between atoms: C_12  and  C_18 
ROOT
HETATM    1  C   UNK N   1      35.220  11.396  16.140  0.00  0.00     0.009 A 
HETATM    2  C   UNK N   1      35.350  10.750  17.386  0.00  0.00     0.028 A 
HETATM    3  C   UNK N   1      35.305  11.459  18.600  0.00  0.00     0.016 A 
HETATM    4  C   UNK N   1      35.127  12.859  18.558  0.00  0.00     0.130 A 
HETATM    5  C   UNK N   1      35.019  13.513  17.332  0.00  0.00     0.086 A 
HETATM    6  C   UNK N   1      35.066  12.807  16.132  0.00  0.00     0.128 A 
HETATM    7  F   UNK N   1      34.936  13.513  14.983  0.00  0.00    -0.205 F 
HETATM    8  F   UNK N   1      35.063  13.602  19.690  0.00  0.00    -0.205 F 
ENDROOT
BRANCH   1   9
HETATM    9  C   UNK N   1      35.212  10.532  14.873  0.00  0.00     0.059 C 
HETATM   10  C   UNK N   1      35.398   9.085  15.331  0.00  0.00     0.044 C 
HETATM   11  C   UNK N   1      33.888  10.604  14.078  0.00  0.00     0.046 C 
HETATM   12  C   UNK N   1      33.962  10.175  12.603  0.00  0.00     0.085 C 
HETATM   13  S   UNK N   1      35.399   9.120  12.223  0.00  0.00    -0.095 SA
HETATM   14  C   UNK N   1      36.527  10.372  12.858  0.00  0.00     0.134 C 
HETATM   15  N   UNK N   1      36.322  10.920  14.011  0.00  0.00    -0.358 N 
ATOM     16  HN  UNK N   1      36.959  11.651  14.329  1.00  0.00     0.162 HD
BRANCH  14  17
HETATM   17  N   UNK N   1      37.616  10.791  12.064  0.00  0.00    -0.380 N 
HETATM   18  H   UNK N   1      38.584  10.626  11.992  0.00  0.00     0.158 HD
HETATM   19  H   UNK N   1      37.321  11.439  11.382  0.00  0.00     0.158 HD
ENDBRANCH  14  17
ENDBRANCH   1   9
BRANCH   3  20
HETATM   20  C   UNK N   1      35.432  10.718  19.891  0.00  0.00     0.008 A 
HETATM   21  C   UNK N   1      34.375   9.937  20.375  0.00  0.00     0.102 A 
HETATM   22  N   UNK N   1      34.500   9.266  21.550  0.00  0.00    -0.361 N 
HETATM   23  C   UNK N   1      35.644   9.344  22.279  0.00  0.00     0.180 A 
ATOM     24  HN  UNK N   1      33.727   8.694  21.889  1.00  0.00     0.166 HD
HETATM   25  N   UNK N   1      36.683  10.098  21.837  0.00  0.00    -0.361 N 
HETATM   26  C   UNK N   1      36.599  10.777  20.664  0.00  0.00     0.102 A 
ATOM     27  HN  UNK N   1      37.537  10.154  22.391  1.00  0.00     0.166 HD
ENDBRANCH   3  20
TORSDOF 3
ENDMDL
MODEL 4
REMARK VINA RESULT:      -6.7      7.443     11.073
REMARK  3 active torsions:
REMARK  status: ('A' for Active; 'I' for Inactive)
REMARK    1  A    between atoms: C_2  and  C_10 
REMARK    2  A    between atoms: C_6  and  N_9 
REMARK    3  A    between atoms: C_12  and  C_18 
ROOT
HETATM    1  C   UNK N   1      32.054  16.758   6.145  0.00  0.00     0.009 A 
HETATM    2  C   UNK N   1      30.758  16.288   6.441  0.00  0.00     0.028 A 
HETATM    3  C   UNK N   1      29.692  16.424   5.533  0.00  0.00     0.016 A 
HETATM    4  C   UNK N   1      29.938  17.053   4.294  0.00  0.00     0.130 A 
HETATM    5  C   UNK N   1      31.209  17.542   3.998  0.00  0.00     0.086 A 
HETATM    6  C   UNK N   1      32.261  17.407   4.901  0.00  0.00     0.128 A 
HETATM    7  F   UNK N   1      33.470  17.892   4.531  0.00  0.00    -0.205 F 
HETATM    8  F   UNK N   1      28.960  17.207   3.367  0.00  0.00    -0.205 F 
ENDROOT
BRANCH   1   9
HETATM    9  C   UNK N   1      33.167  16.504   7.169  0.00  0.00     0.059 C 
HETATM   10  C   UNK N   1      34.160  15.548   6.505  0.00  0.00     0.044 C 
HETATM   11  C   UNK N   1      33.944  17.778   7.574  0.00  0.00     0.046 C 
HETATM   12  C   UNK N   1      34.718  17.704   8.900  0.00  0.00     0.085 C 
HETATM   13  S   UNK N   1      35.072  16.000   9.442  0.00  0.00    -0.095 SA
HETATM   14  C   UNK N   1      33.320  15.586   9.394  0.00  0.00     0.134 C 
HETATM   15  N   UNK N   1      32.602  15.877   8.358  0.00  0.00    -0.358 N 
ATOM     16  HN  UNK N   1      31.606  15.660   8.373  1.00  0.00     0.162 HD
BRANCH  14  17
HETATM   17  N   UNK N   1      32.718  14.983  10.518  0.00  0.00    -0.380 N 
HETATM   18  H   UNK N   1      31.992  15.168  11.157  0.00  0.00     0.158 HD
HETATM   19  H   UNK N   1      33.153  14.123  10.726  0.00  0.00     0.158 HD
ENDBRANCH  14  17
ENDBRANCH   1   9
BRANCH   3  20
HETATM   20  C   UNK N   1      28.344  15.891   5.895  0.00  0.00     0.008 A 
HETATM   21  C   UNK N   1      27.534  16.559   6.822  0.00  0.00     0.102 A 
HETATM   22  N   UNK N   1      26.310  16.065   7.144  0.00  0.00    -0.361 N 
HETATM   23  C   UNK N   1      25.852  14.916   6.583  0.00  0.00     0.180 A 
ATOM     24  HN  UNK N   1      25.726  16.564   7.815  1.00  0.00     0.166 HD
HETATM   25  N   UNK N   1      26.617  14.244   5.685  0.00  0.00    -0.361 N 
HETATM   26  C   UNK N   1      27.843  14.710   5.332  0.00  0.00     0.102 A 
ATOM     27  HN  UNK N   1      26.267  13.380   5.271  1.00  0.00     0.166 HD
ENDBRANCH   3  20
TORSDOF 3
ENDMDL
MODEL 5
REMARK VINA RESULT:      -6.7     13.188     16.847
REMARK  3 active torsions:
REMARK  status: ('A' for Active; 'I' for Inactive)
REMARK    1  A    between atoms: C_2  and  C_10 
REMARK    2  A    between atoms: C_6  and  N_9 
REMARK    3  A    between atoms: C_12  and  C_18 
ROOT
HETATM    1  C   UNK N   1      24.621  19.166   4.268  0.00  0.00     0.009 A 
HETATM    2  C   UNK N   1      23.526  18.359   4.641  0.00  0.00     0.028 A 
HETATM    3  C   UNK N   1      22.239  18.560   4.110  0.00  0.00     0.016 A 
HETATM    4  C   UNK N   1      22.049  19.604   3.180  0.00  0.00     0.130 A 
HETATM    5  C   UNK N   1      23.117  20.423   2.820  0.00  0.00     0.086 A 
HETATM    6  C   UNK N   1      24.389  20.222   3.349  0.00  0.00     0.128 A 
HETATM    7  F   UNK N   1      25.379  21.050   2.935  0.00  0.00    -0.205 F 
HETATM    8  F   UNK N   1      20.837  19.845   2.620  0.00  0.00    -0.205 F 
ENDROOT
BRANCH   1   9
HETATM    9  C   UNK N   1      26.000  18.829   4.848  0.00  0.00     0.059 C 
HETATM   10  C   UNK N   1      26.906  18.508   3.659  0.00  0.00     0.044 C 
HETATM   11  C   UNK N   1      26.650  19.994   5.629  0.00  0.00     0.046 C 
HETATM   12  C   UNK N   1      27.763  19.608   6.617  0.00  0.00     0.085 C 
HETATM   13  S   UNK N   1      28.515  17.985   6.266  0.00  0.00    -0.095 SA
HETATM   14  C   UNK N   1      26.906  17.183   6.359  0.00  0.00     0.134 C 
HETATM   15  N   UNK N   1      25.893  17.660   5.713  0.00  0.00    -0.358 N 
ATOM     16  HN  UNK N   1      24.986  17.203   5.812  1.00  0.00     0.162 HD
BRANCH  14  17
HETATM   17  N   UNK N   1      26.742  16.050   7.185  0.00  0.00    -0.380 N 
HETATM   18  H   UNK N   1      26.631  15.076   7.091  0.00  0.00     0.158 HD
HETATM   19  H   UNK N   1      26.737  16.310   8.136  0.00  0.00     0.158 HD
ENDBRANCH  14  17
ENDBRANCH   1   9
BRANCH   3  20
HETATM   20  C   UNK N   1      21.122  17.661   4.530  0.00  0.00     0.008 A 
HETATM   21  C   UNK N   1      20.975  17.278   5.869  0.00  0.00     0.102 A 
HETATM   22  N   UNK N   1      19.955  16.460   6.240  0.00  0.00    -0.361 N 
HETATM   23  C   UNK N   1      19.067  15.994   5.325  0.00  0.00     0.180 A 
ATOM     24  HN  UNK N   1      19.854  16.194   7.219  1.00  0.00     0.166 HD
HETATM   25  N   UNK N   1      19.188  16.345   4.018  0.00  0.00    -0.361 N 
HETATM   26  C   UNK N   1      20.189  17.166   3.609  0.00  0.00     0.102 A 
ATOM     27  HN  UNK N   1      18.518  15.988   3.336  1.00  0.00     0.166 HD
ENDBRANCH   3  20
TORSDOF 3
ENDMDL
MODEL 6
REMARK VINA RESULT:      -6.6      6.453      9.900
REMARK  3 active torsions:
REMARK  status: ('A' for Active; 'I' for Inactive)
REMARK    1  A    between atoms: C_2  and  C_10 
REMARK    2  A    between atoms: C_6  and  N_9 
REMARK    3  A    between atoms: C_12  and  C_18 
ROOT
HETATM    1  C   UNK N   1      31.189  16.821   5.951  0.00  0.00     0.009 A 
HETATM    2  C   UNK N   1      31.761  16.554   7.212  0.00  0.00     0.028 A 
HETATM    3  C   UNK N   1      33.137  16.306   7.367  0.00  0.00     0.016 A 
HETATM    4  C   UNK N   1      33.960  16.326   6.221  0.00  0.00     0.130 A 
HETATM    5  C   UNK N   1      33.404  16.567   4.966  0.00  0.00     0.086 A 
HETATM    6  C   UNK N   1      32.041  16.810   4.816  0.00  0.00     0.128 A 
HETATM    7  F   UNK N   1      31.581  17.053   3.565  0.00  0.00    -0.205 F 
HETATM    8  F   UNK N   1      35.296  16.108   6.300  0.00  0.00    -0.205 F 
ENDROOT
BRANCH   1   9
HETATM    9  C   UNK N   1      29.692  17.146   5.889  0.00  0.00     0.059 C 
HETATM   10  C   UNK N   1      28.991  15.881   5.391  0.00  0.00     0.044 C 
HETATM   11  C   UNK N   1      29.077  17.513   7.260  0.00  0.00     0.046 C 
HETATM   12  C   UNK N   1      27.754  18.295   7.219  0.00  0.00     0.085 C 
HETATM   13  S   UNK N   1      26.861  18.131   5.639  0.00  0.00    -0.095 SA
HETATM   14  C   UNK N   1      28.294  18.732   4.729  0.00  0.00     0.134 C 
HETATM   15  N   UNK N   1      29.468  18.235   4.946  0.00  0.00    -0.358 N 
ATOM     16  HN  UNK N   1      30.266  18.619   4.439  1.00  0.00     0.162 HD
BRANCH  14  17
HETATM   17  N   UNK N   1      28.138  19.788   3.807  0.00  0.00    -0.380 N 
HETATM   18  H   UNK N   1      28.571  20.644   3.581  0.00  0.00     0.158 HD
HETATM   19  H   UNK N   1      27.369  19.622   3.214  0.00  0.00     0.158 HD
ENDBRANCH  14  17
ENDBRANCH   1   9
BRANCH   3  20
HETATM   20  C   UNK N   1      33.688  16.046   8.731  0.00  0.00     0.008 A 
HETATM   21  C   UNK N   1      33.423  14.842   9.393  0.00  0.00     0.102 A 
HETATM   22  N   UNK N   1      33.930  14.615  10.634  0.00  0.00    -0.361 N 
HETATM   23  C   UNK N   1      34.693  15.550  11.257  0.00  0.00     0.180 A 
ATOM     24  HN  UNK N   1      33.736  13.731  11.104  1.00  0.00     0.166 HD
HETATM   25  N   UNK N   1      34.962  16.730  10.641  0.00  0.00    -0.361 N 
HETATM   26  C   UNK N   1      34.481  16.990   9.398  0.00  0.00     0.102 A 
ATOM     27  HN  UNK N   1      35.533  17.428  11.117  1.00  0.00     0.166 HD
ENDBRANCH   3  20
TORSDOF 3
ENDMDL
MODEL 7
REMARK VINA RESULT:      -6.6      8.659     12.512
REMARK  3 active torsions:
REMARK  status: ('A' for Active; 'I' for Inactive)
REMARK    1  A    between atoms: C_2  and  C_10 
REMARK    2  A    between atoms: C_6  and  N_9 
REMARK    3  A    between atoms: C_12  and  C_18 
ROOT
HETATM    1  C   UNK N   1      30.323  17.283   6.753  0.00  0.00     0.009 A 
HETATM    2  C   UNK N   1      29.340  17.664   5.817  0.00  0.00     0.028 A 
HETATM    3  C   UNK N   1      28.283  18.528   6.158  0.00  0.00     0.016 A 
HETATM    4  C   UNK N   1      28.214  19.019   7.479  0.00  0.00     0.130 A 
HETATM    5  C   UNK N   1      29.166  18.633   8.420  0.00  0.00     0.086 A 
HETATM    6  C   UNK N   1      30.210  17.776   8.079  0.00  0.00     0.128 A 
HETATM    7  F   UNK N   1      31.106  17.463   9.045  0.00  0.00    -0.205 F 
HETATM    8  F   UNK N   1      27.229  19.864   7.873  0.00  0.00    -0.205 F 
ENDROOT
BRANCH   1   9
HETATM    9  C   UNK N   1      31.475  16.392   6.271  0.00  0.00     0.059 C 
HETATM   10  C   UNK N   1      31.092  15.901   4.874  0.00  0.00     0.044 C 
HETATM   11  C   UNK N   1      32.827  17.133   6.151  0.00  0.00     0.046 C 
HETATM   12  C   UNK N   1      34.084  16.248   6.147  0.00  0.00     0.085 C 
HETATM   13  S   UNK N   1      33.753  14.516   5.688  0.00  0.00    -0.095 SA
HETATM   14  C   UNK N   1      32.543  14.362   7.013  0.00  0.00     0.134 C 
HETATM   15  N   UNK N   1      31.620  15.253   7.170  0.00  0.00    -0.358 N 
ATOM     16  HN  UNK N   1      30.969  15.157   7.950  1.00  0.00     0.162 HD
BRANCH  14  17
HETATM   17  N   UNK N   1      32.638  13.282   7.917  0.00  0.00    -0.380 N 
HETATM   18  H   UNK N   1      32.054  12.591   8.306  0.00  0.00     0.158 HD
HETATM   19  H   UNK N   1      33.558  13.193   8.258  0.00  0.00     0.158 HD
ENDBRANCH  14  17
ENDBRANCH   1   9
BRANCH   3  20
HETATM   20  C   UNK N   1      27.280  18.910   5.119  0.00  0.00     0.008 A 
HETATM   21  C   UNK N   1      27.443  20.076   4.361  0.00  0.00     0.102 A 
HETATM   22  N   UNK N   1      26.524  20.414   3.418  0.00  0.00    -0.361 N 
HETATM   23  C   UNK N   1      25.433  19.637   3.197  0.00  0.00     0.180 A 
ATOM     24  HN  UNK N   1      26.657  21.262   2.867  1.00  0.00     0.166 HD
HETATM   25  N   UNK N   1      25.247  18.502   3.921  0.00  0.00    -0.361 N 
HETATM   26  C   UNK N   1      26.145  18.127   4.867  0.00  0.00     0.102 A 
ATOM     27  HN  UNK N   1      24.423  17.926   3.751  1.00  0.00     0.166 HD
ENDBRANCH   3  20
TORSDOF 3
ENDMDL
MODEL 8
REMARK VINA RESULT:      -6.6      7.030     11.649
REMARK  3 active torsions:
REMARK  status: ('A' for Active; 'I' for Inactive)
REMARK    1  A    between atoms: C_2  and  C_10 
REMARK    2  A    between atoms: C_6  and  N_9 
REMARK    3  A    between atoms: C_12  and  C_18 
ROOT
HETATM    1  C   UNK N   1      30.840  17.107   7.515  0.00  0.00     0.009 A 
HETATM    2  C   UNK N   1      30.230  16.504   6.395  0.00  0.00     0.028 A 
HETATM    3  C   UNK N   1      28.935  16.857   5.973  0.00  0.00     0.016 A 
HETATM    4  C   UNK N   1      28.235  17.843   6.700  0.00  0.00     0.130 A 
HETATM    5  C   UNK N   1      28.817  18.432   7.821  0.00  0.00     0.086 A 
HETATM    6  C   UNK N   1      30.099  18.078   8.237  0.00  0.00     0.128 A 
HETATM    7  F   UNK N   1      30.601  18.708   9.325  0.00  0.00    -0.205 F 
HETATM    8  F   UNK N   1      26.989  18.240   6.342  0.00  0.00    -0.205 F 
ENDROOT
BRANCH   1   9
HETATM    9  C   UNK N   1      32.280  16.707   7.858  0.00  0.00     0.059 C 
HETATM   10  C   UNK N   1      32.756  15.784   6.735  0.00  0.00     0.044 C 
HETATM   11  C   UNK N   1      33.259  17.902   7.927  0.00  0.00     0.046 C 
HETATM   12  C   UNK N   1      34.560  17.664   8.711  0.00  0.00     0.085 C 
HETATM   13  S   UNK N   1      34.986  15.902   8.897  0.00  0.00    -0.095 SA
HETATM   14  C   UNK N   1      33.393  15.566   9.667  0.00  0.00     0.134 C 
HETATM   15  N   UNK N   1      32.297  15.987   9.126  0.00  0.00    -0.358 N 
ATOM     16  HN  UNK N   1      31.413  15.810   9.602  1.00  0.00     0.162 HD
BRANCH  14  17
HETATM   17  N   UNK N   1      33.349  14.877  10.898  0.00  0.00    -0.380 N 
HETATM   18  H   UNK N   1      32.707  14.351  11.428  0.00  0.00     0.158 HD
HETATM   19  H   UNK N   1      34.215  14.941  11.364  0.00  0.00     0.158 HD
ENDBRANCH  14  17
ENDBRANCH   1   9
BRANCH   3  20
HETATM   20  C   UNK N   1      28.348  16.195   4.770  0.00  0.00     0.008 A 
HETATM   21  C   UNK N   1      28.957  16.320   3.515  0.00  0.00     0.102 A 
HETATM   22  N   UNK N   1      28.414  15.714   2.426  0.00  0.00    -0.361 N 
HETATM   23  C   UNK N   1      27.273  14.985   2.530  0.00  0.00     0.180 A 
ATOM     24  HN  UNK N   1      28.870  15.807   1.518  1.00  0.00     0.166 HD
HETATM   25  N   UNK N   1      26.658  14.851   3.734  0.00  0.00    -0.361 N 
HETATM   26  C   UNK N   1      27.174  15.435   4.846  0.00  0.00     0.102 A 
ATOM     27  HN  UNK N   1      25.800  14.304   3.803  1.00  0.00     0.166 HD
ENDBRANCH   3  20
TORSDOF 3
ENDMDL
MODEL 9
REMARK VINA RESULT:      -6.5     21.440     24.610
REMARK  3 active torsions:
REMARK  status: ('A' for Active; 'I' for Inactive)
REMARK    1  A    between atoms: C_2  and  C_10 
REMARK    2  A    between atoms: C_6  and  N_9 
REMARK    3  A    between atoms: C_12  and  C_18 
ROOT
HETATM    1  C   UNK N   1      26.963  26.876  -4.929  0.00  0.00     0.009 A 
HETATM    2  C   UNK N   1      27.874  25.863  -4.564  0.00  0.00     0.028 A 
HETATM    3  C   UNK N   1      27.621  24.504  -4.828  0.00  0.00     0.016 A 
HETATM    4  C   UNK N   1      26.416  24.156  -5.475  0.00  0.00     0.130 A 
HETATM    5  C   UNK N   1      25.497  25.145  -5.821  0.00  0.00     0.086 A 
HETATM    6  C   UNK N   1      25.751  26.489  -5.557  0.00  0.00     0.128 A 
HETATM    7  F   UNK N   1      24.816  27.391  -5.941  0.00  0.00    -0.205 F 
HETATM    8  F   UNK N   1      26.114  22.868  -5.770  0.00  0.00    -0.205 F 
ENDROOT
BRANCH   1   9
HETATM    9  C   UNK N   1      27.356  28.334  -4.663  0.00  0.00     0.059 C 
HETATM   10  C   UNK N   1      27.672  28.956  -6.023  0.00  0.00     0.044 C 
HETATM   11  C   UNK N   1      26.231  29.174  -4.014  0.00  0.00     0.046 C 
HETATM   12  C   UNK N   1      26.677  30.457  -3.293  0.00  0.00     0.085 C 
HETATM   13  S   UNK N   1      28.311  31.062  -3.827  0.00  0.00    -0.095 SA
HETATM   14  C   UNK N   1      29.068  29.482  -3.410  0.00  0.00     0.134 C 
HETATM   15  N   UNK N   1      28.544  28.372  -3.817  0.00  0.00    -0.358 N 
ATOM     16  HN  UNK N   1      28.976  27.491  -3.537  1.00  0.00     0.162 HD
BRANCH  14  17
HETATM   17  N   UNK N   1      30.216  29.457  -2.590  0.00  0.00    -0.380 N 
HETATM   18  H   UNK N   1      30.644  28.860  -1.934  0.00  0.00     0.158 HD
HETATM   19  H   UNK N   1      30.746  30.279  -2.710  0.00  0.00     0.158 HD
ENDBRANCH  14  17
ENDBRANCH   1   9
BRANCH   3  20
HETATM   20  C   UNK N   1      28.631  23.478  -4.433  0.00  0.00     0.008 A 
HETATM   21  C   UNK N   1      29.005  23.319  -3.093  0.00  0.00     0.102 A 
HETATM   22  N   UNK N   1      29.926  22.382  -2.744  0.00  0.00    -0.361 N 
HETATM   23  C   UNK N   1      30.504  21.590  -3.683  0.00  0.00     0.180 A 
ATOM     24  HN  UNK N   1      30.185  22.270  -1.764  1.00  0.00     0.166 HD
HETATM   25  N   UNK N   1      30.164  21.725  -4.991  0.00  0.00    -0.361 N 
HETATM   26  C   UNK N   1      29.244  22.644  -5.378  0.00  0.00     0.102 A 
ATOM     27  HN  UNK N   1      30.606  21.128  -5.691  1.00  0.00     0.166 HD
ENDBRANCH   3  20
TORSDOF 3
ENDMDL
