MODEL 1
REMARK VINA RESULT:      -6.2      0.000      0.000
REMARK  17 active torsions:
REMARK  status: ('A' for Active; 'I' for Inactive)
REMARK    1  A    between atoms: C_2  and  C_3 
REMARK    2  A    between atoms: C_3  and  C_4 
REMARK    3  A    between atoms: C_3  and  O_25 
REMARK    4  A    between atoms: C_5  and  C_6 
REMARK    5  A    between atoms: C_7  and  C_8 
REMARK    6  A    between atoms: C_8  and  C_9 
REMARK    7  A    between atoms: C_9  and  C_10 
REMARK    8  A    between atoms: C_9  and  O_24 
REMARK    9  A    between atoms: C_11  and  C_12 
REMARK   10  A    between atoms: C_13  and  C_14 
REMARK   11  A    between atoms: C_15  and  C_16 
REMARK   12  A    between atoms: C_16  and  C_17 
REMARK   13  A    between atoms: C_16  and  O_23 
REMARK   14  A    between atoms: C_17  and  C_18 
REMARK   15  A    between atoms: C_18  and  C_19 
REMARK   16  A    between atoms: C_19  and  C_20 
REMARK   17  A    between atoms: C_20  and  O_22 
ROOT
HETATM    1  C   UNK N   1      28.383  19.043   7.192  0.00  0.00     0.005 C 
HETATM    2  C   UNK N   1      28.426  18.596   8.440  0.00  0.00    -0.002 C 
ENDROOT
BRANCH   2   3
HETATM    3  C   UNK N   1      29.404  17.612   8.892  0.00  0.00    -0.000 C 
HETATM    4  C   UNK N   1      30.596  17.658   8.316  0.00  0.00    -0.000 C 
BRANCH   4   5
HETATM    5  C   UNK N   1      31.667  16.706   8.612  0.00  0.00    -0.002 C 
HETATM    6  C   UNK N   1      32.787  16.681   7.875  0.00  0.00     0.004 C 
BRANCH   6   7
HETATM    7  C   UNK N   1      33.024  17.569   6.676  0.00  0.00     0.141 C 
BRANCH   7   8
HETATM    8  C   UNK N   1      32.810  16.827   5.361  0.00  0.00     0.036 C 
BRANCH   8   9
HETATM    9  C   UNK N   1      31.982  17.665   4.398  0.00  0.00     0.013 C 
BRANCH   9  10
HETATM   10  C   UNK N   1      30.502  17.530   4.708  0.00  0.00     0.110 C 
BRANCH  10  11
HETATM   11  C   UNK N   1      29.847  16.608   3.730  0.00  0.00     0.139 C 
HETATM   12  O   UNK N   1      29.156  15.689   4.132  0.00  0.00    -0.650 OA
BRANCH  11  13
HETATM   13  O   UNK N   1      30.018  16.788   2.407  0.00  0.00    -0.776 OA
HETATM   14  H   UNK N   1      30.097  17.653   2.055  0.00  0.00     0.167 HD
ENDBRANCH  11  13
ENDBRANCH  10  11
ENDBRANCH   9  10
ENDBRANCH   8   9
ENDBRANCH   7   8
BRANCH   7  15
HETATM   15  O   UNK N   1      34.336  18.035   6.712  0.00  0.00    -0.392 OA
HETATM   16  H   UNK N   1      34.570  18.808   7.249  0.00  0.00     0.210 HD
ENDBRANCH   7  15
ENDBRANCH   6   7
ENDBRANCH   4   5
ENDBRANCH   2   3
BRANCH   1  17
HETATM   17  C   UNK N   1      27.377  20.092   6.861  0.00  0.00     0.144 C 
BRANCH  17  18
HETATM   18  C   UNK N   1      26.566  19.733   5.624  0.00  0.00     0.062 C 
BRANCH  18  19
HETATM   19  C   UNK N   1      27.175  20.306   4.369  0.00  0.00    -0.024 C 
HETATM   20  C   UNK N   1      26.520  20.414   3.200  0.00  0.00    -0.004 C 
BRANCH  20  21
HETATM   21  C   UNK N   1      25.133  19.955   3.033  0.00  0.00    -0.002 C 
HETATM   22  C   UNK N   1      24.126  20.822   2.990  0.00  0.00     0.004 C 
BRANCH  22  23
HETATM   23  C   UNK N   1      22.732  20.336   2.762  0.00  0.00     0.140 C 
BRANCH  23  24
HETATM   24  C   UNK N   1      22.375  19.320   3.832  0.00  0.00     0.031 C 
HETATM   25  C   UNK N   1      21.399  18.296   3.285  0.00  0.00     0.008 C 
ENDBRANCH  23  24
BRANCH  23  26
HETATM   26  O   UNK N   1      21.844  21.413   2.819  0.00  0.00    -0.392 OA
HETATM   27  H   UNK N   1      21.138  21.595   3.459  0.00  0.00     0.210 HD
ENDBRANCH  23  26
ENDBRANCH  22  23
ENDBRANCH  20  21
ENDBRANCH  18  19
ENDBRANCH  17  18
BRANCH  17  28
HETATM   28  O   UNK N   1      26.550  20.351   7.956  0.00  0.00    -0.391 OA
HETATM   29  H   UNK N   1      25.840  20.432   8.612  0.00  0.00     0.210 HD
ENDBRANCH  17  28
ENDBRANCH   1  17
TORSDOF 17
ENDMDL
MODEL 2
REMARK VINA RESULT:      -5.9     10.421     14.049
REMARK  17 active torsions:
REMARK  status: ('A' for Active; 'I' for Inactive)
REMARK    1  A    between atoms: C_2  and  C_3 
REMARK    2  A    between atoms: C_3  and  C_4 
REMARK    3  A    between atoms: C_3  and  O_25 
REMARK    4  A    between atoms: C_5  and  C_6 
REMARK    5  A    between atoms: C_7  and  C_8 
REMARK    6  A    between atoms: C_8  and  C_9 
REMARK    7  A    between atoms: C_9  and  C_10 
REMARK    8  A    between atoms: C_9  and  O_24 
REMARK    9  A    between atoms: C_11  and  C_12 
REMARK   10  A    between atoms: C_13  and  C_14 
REMARK   11  A    between atoms: C_15  and  C_16 
REMARK   12  A    between atoms: C_16  and  C_17 
REMARK   13  A    between atoms: C_16  and  O_23 
REMARK   14  A    between atoms: C_17  and  C_18 
REMARK   15  A    between atoms: C_18  and  C_19 
REMARK   16  A    between atoms: C_19  and  C_20 
REMARK   17  A    between atoms: C_20  and  O_22 
ROOT
HETATM    1  C   UNK N   1      28.772  24.064  -2.894  0.00  0.00     0.005 C 
HETATM    2  C   UNK N   1      27.769  23.929  -3.752  0.00  0.00    -0.002 C 
ENDROOT
BRANCH   2   3
HETATM    3  C   UNK N   1      26.855  25.019  -4.074  0.00  0.00    -0.000 C 
HETATM    4  C   UNK N   1      26.090  24.852  -5.143  0.00  0.00    -0.000 C 
BRANCH   4   5
HETATM    5  C   UNK N   1      25.165  25.874  -5.634  0.00  0.00    -0.002 C 
HETATM    6  C   UNK N   1      25.586  26.839  -6.465  0.00  0.00     0.004 C 
BRANCH   6   7
HETATM    7  C   UNK N   1      27.018  26.991  -6.918  0.00  0.00     0.141 C 
BRANCH   7   8
HETATM    8  C   UNK N   1      27.540  28.409  -6.708  0.00  0.00     0.036 C 
BRANCH   8   9
HETATM    9  C   UNK N   1      28.004  28.604  -5.273  0.00  0.00     0.013 C 
BRANCH   9  10
HETATM   10  C   UNK N   1      27.083  29.561  -4.538  0.00  0.00     0.110 C 
BRANCH  10  11
HETATM   11  C   UNK N   1      26.577  28.933  -3.279  0.00  0.00     0.139 C 
HETATM   12  O   UNK N   1      27.256  28.966  -2.268  0.00  0.00    -0.650 OA
BRANCH  11  13
HETATM   13  O   UNK N   1      25.373  28.330  -3.258  0.00  0.00    -0.776 OA
HETATM   14  H   UNK N   1      24.726  28.546  -3.900  0.00  0.00     0.167 HD
ENDBRANCH  11  13
ENDBRANCH  10  11
ENDBRANCH   9  10
ENDBRANCH   8   9
ENDBRANCH   7   8
BRANCH   7  15
HETATM   15  O   UNK N   1      27.097  26.689  -8.276  0.00  0.00    -0.392 OA
HETATM   16  H   UNK N   1      27.928  26.809  -8.761  0.00  0.00     0.210 HD
ENDBRANCH   7  15
ENDBRANCH   6   7
ENDBRANCH   4   5
ENDBRANCH   2   3
BRANCH   1  17
HETATM   17  C   UNK N   1      29.677  22.898  -2.691  0.00  0.00     0.144 C 
BRANCH  17  18
HETATM   18  C   UNK N   1      30.597  22.676  -3.883  0.00  0.00     0.062 C 
BRANCH  18  19
HETATM   19  C   UNK N   1      30.523  21.257  -4.391  0.00  0.00    -0.024 C 
HETATM   20  C   UNK N   1      30.058  20.920  -5.605  0.00  0.00    -0.004 C 
BRANCH  20  21
HETATM   21  C   UNK N   1      29.550  21.919  -6.557  0.00  0.00    -0.002 C 
HETATM   22  C   UNK N   1      28.580  21.616  -7.415  0.00  0.00     0.004 C 
BRANCH  22  23
HETATM   23  C   UNK N   1      28.042  22.665  -8.333  0.00  0.00     0.140 C 
BRANCH  23  24
HETATM   24  C   UNK N   1      26.578  22.380  -8.615  0.00  0.00     0.031 C 
HETATM   25  C   UNK N   1      25.841  22.072  -7.325  0.00  0.00     0.008 C 
ENDBRANCH  23  24
BRANCH  23  26
HETATM   26  O   UNK N   1      28.172  23.922  -7.737  0.00  0.00    -0.392 OA
HETATM   27  H   UNK N   1      27.770  24.262  -6.923  0.00  0.00     0.210 HD
ENDBRANCH  23  26
ENDBRANCH  22  23
ENDBRANCH  20  21
ENDBRANCH  18  19
ENDBRANCH  17  18
BRANCH  17  28
HETATM   28  O   UNK N   1      30.404  23.033  -1.505  0.00  0.00    -0.391 OA
HETATM   29  H   UNK N   1      30.767  23.009  -0.606  0.00  0.00     0.210 HD
ENDBRANCH  17  28
ENDBRANCH   1  17
TORSDOF 17
ENDMDL
MODEL 3
REMARK VINA RESULT:      -5.8      9.964     13.595
REMARK  17 active torsions:
REMARK  status: ('A' for Active; 'I' for Inactive)
REMARK    1  A    between atoms: C_2  and  C_3 
REMARK    2  A    between atoms: C_3  and  C_4 
REMARK    3  A    between atoms: C_3  and  O_25 
REMARK    4  A    between atoms: C_5  and  C_6 
REMARK    5  A    between atoms: C_7  and  C_8 
REMARK    6  A    between atoms: C_8  and  C_9 
REMARK    7  A    between atoms: C_9  and  C_10 
REMARK    8  A    between atoms: C_9  and  O_24 
REMARK    9  A    between atoms: C_11  and  C_12 
REMARK   10  A    between atoms: C_13  and  C_14 
REMARK   11  A    between atoms: C_15  and  C_16 
REMARK   12  A    between atoms: C_16  and  C_17 
REMARK   13  A    between atoms: C_16  and  O_23 
REMARK   14  A    between atoms: C_17  and  C_18 
REMARK   15  A    between atoms: C_18  and  C_19 
REMARK   16  A    between atoms: C_19  and  C_20 
REMARK   17  A    between atoms: C_20  and  O_22 
ROOT
HETATM    1  C   UNK N   1      29.017  24.094  -3.096  0.00  0.00     0.005 C 
HETATM    2  C   UNK N   1      29.638  24.433  -4.218  0.00  0.00    -0.002 C 
ENDROOT
BRANCH   2   3
HETATM    3  C   UNK N   1      29.318  25.650  -4.958  0.00  0.00    -0.000 C 
HETATM    4  C   UNK N   1      28.817  26.654  -4.255  0.00  0.00    -0.000 C 
BRANCH   4   5
HETATM    5  C   UNK N   1      28.389  27.919  -4.854  0.00  0.00    -0.002 C 
HETATM    6  C   UNK N   1      27.098  28.279  -4.848  0.00  0.00     0.004 C 
BRANCH   6   7
HETATM    7  C   UNK N   1      25.989  27.421  -4.286  0.00  0.00     0.141 C 
BRANCH   7   8
HETATM    8  C   UNK N   1      24.981  27.013  -5.356  0.00  0.00     0.036 C 
BRANCH   8   9
HETATM    9  C   UNK N   1      25.491  25.820  -6.150  0.00  0.00     0.013 C 
BRANCH   9  10
HETATM   10  C   UNK N   1      25.661  24.611  -5.248  0.00  0.00     0.110 C 
BRANCH  10  11
HETATM   11  C   UNK N   1      25.968  23.393  -6.060  0.00  0.00     0.139 C 
HETATM   12  O   UNK N   1      25.060  22.687  -6.462  0.00  0.00    -0.650 OA
BRANCH  11  13
HETATM   13  O   UNK N   1      27.244  23.073  -6.349  0.00  0.00    -0.776 OA
HETATM   14  H   UNK N   1      27.596  22.250  -6.075  0.00  0.00     0.167 HD
ENDBRANCH  11  13
ENDBRANCH  10  11
ENDBRANCH   9  10
ENDBRANCH   8   9
ENDBRANCH   7   8
BRANCH   7  15
HETATM   15  O   UNK N   1      25.318  28.139  -3.299  0.00  0.00    -0.392 OA
HETATM   16  H   UNK N   1      25.372  29.107  -3.271  0.00  0.00     0.210 HD
ENDBRANCH   7  15
ENDBRANCH   6   7
ENDBRANCH   4   5
ENDBRANCH   2   3
BRANCH   1  17
HETATM   17  C   UNK N   1      29.469  22.859  -2.396  0.00  0.00     0.144 C 
BRANCH  17  18
HETATM   18  C   UNK N   1      29.742  21.720  -3.369  0.00  0.00     0.062 C 
BRANCH  18  19
HETATM   19  C   UNK N   1      31.209  21.371  -3.426  0.00  0.00    -0.024 C 
HETATM   20  C   UNK N   1      31.782  20.709  -4.445  0.00  0.00    -0.004 C 
BRANCH  20  21
HETATM   21  C   UNK N   1      31.013  20.239  -5.608  0.00  0.00    -0.002 C 
HETATM   22  C   UNK N   1      30.769  21.044  -6.637  0.00  0.00     0.004 C 
BRANCH  22  23
HETATM   23  C   UNK N   1      30.034  20.527  -7.830  0.00  0.00     0.140 C 
BRANCH  23  24
HETATM   24  C   UNK N   1      29.949  19.013  -7.748  0.00  0.00     0.031 C 
HETATM   25  C   UNK N   1      30.067  18.401  -9.132  0.00  0.00     0.008 C 
ENDBRANCH  23  24
BRANCH  23  26
HETATM   26  O   UNK N   1      28.747  21.070  -7.861  0.00  0.00    -0.392 OA
HETATM   27  H   UNK N   1      28.336  21.642  -8.528  0.00  0.00     0.210 HD
ENDBRANCH  23  26
ENDBRANCH  22  23
ENDBRANCH  20  21
ENDBRANCH  18  19
ENDBRANCH  17  18
BRANCH  17  28
HETATM   28  O   UNK N   1      30.582  23.120  -1.593  0.00  0.00    -0.391 OA
HETATM   29  H   UNK N   1      31.299  23.492  -1.055  0.00  0.00     0.210 HD
ENDBRANCH  17  28
ENDBRANCH   1  17
TORSDOF 17
ENDMDL
MODEL 4
REMARK VINA RESULT:      -5.7     11.210     13.882
REMARK  17 active torsions:
REMARK  status: ('A' for Active; 'I' for Inactive)
REMARK    1  A    between atoms: C_2  and  C_3 
REMARK    2  A    between atoms: C_3  and  C_4 
REMARK    3  A    between atoms: C_3  and  O_25 
REMARK    4  A    between atoms: C_5  and  C_6 
REMARK    5  A    between atoms: C_7  and  C_8 
REMARK    6  A    between atoms: C_8  and  C_9 
REMARK    7  A    between atoms: C_9  and  C_10 
REMARK    8  A    between atoms: C_9  and  O_24 
REMARK    9  A    between atoms: C_11  and  C_12 
REMARK   10  A    between atoms: C_13  and  C_14 
REMARK   11  A    between atoms: C_15  and  C_16 
REMARK   12  A    between atoms: C_16  and  C_17 
REMARK   13  A    between atoms: C_16  and  O_23 
REMARK   14  A    between atoms: C_17  and  C_18 
REMARK   15  A    between atoms: C_18  and  C_19 
REMARK   16  A    between atoms: C_19  and  C_20 
REMARK   17  A    between atoms: C_20  and  O_22 
ROOT
HETATM    1  C   UNK N   1      27.098  26.662  -3.724  0.00  0.00     0.005 C 
HETATM    2  C   UNK N   1      26.606  25.450  -3.947  0.00  0.00    -0.002 C 
ENDROOT
BRANCH   2   3
HETATM    3  C   UNK N   1      27.251  24.235  -3.459  0.00  0.00    -0.000 C 
HETATM    4  C   UNK N   1      28.561  24.151  -3.635  0.00  0.00    -0.000 C 
BRANCH   4   5
HETATM    5  C   UNK N   1      29.347  22.976  -3.258  0.00  0.00    -0.002 C 
HETATM    6  C   UNK N   1      30.029  22.281  -4.180  0.00  0.00     0.004 C 
BRANCH   6   7
HETATM    7  C   UNK N   1      30.011  22.602  -5.656  0.00  0.00     0.141 C 
BRANCH   7   8
HETATM    8  C   UNK N   1      28.946  21.806  -6.404  0.00  0.00     0.036 C 
BRANCH   8   9
HETATM    9  C   UNK N   1      27.930  22.738  -7.046  0.00  0.00     0.013 C 
BRANCH   9  10
HETATM   10  C   UNK N   1      26.838  21.943  -7.740  0.00  0.00     0.110 C 
BRANCH  10  11
HETATM   11  C   UNK N   1      25.489  22.418  -7.302  0.00  0.00     0.139 C 
HETATM   12  O   UNK N   1      25.339  22.870  -6.181  0.00  0.00    -0.650 OA
BRANCH  11  13
HETATM   13  O   UNK N   1      24.439  22.345  -8.141  0.00  0.00    -0.776 OA
HETATM   14  H   UNK N   1      24.397  22.902  -8.893  0.00  0.00     0.167 HD
ENDBRANCH  11  13
ENDBRANCH  10  11
ENDBRANCH   9  10
ENDBRANCH   8   9
ENDBRANCH   7   8
BRANCH   7  15
HETATM   15  O   UNK N   1      31.256  22.293  -6.199  0.00  0.00    -0.392 OA
HETATM   16  H   UNK N   1      32.015  22.117  -5.623  0.00  0.00     0.210 HD
ENDBRANCH   7  15
ENDBRANCH   6   7
ENDBRANCH   4   5
ENDBRANCH   2   3
BRANCH   1  17
HETATM   17  C   UNK N   1      26.321  27.832  -4.220  0.00  0.00     0.144 C 
BRANCH  17  18
HETATM   18  C   UNK N   1      25.976  27.702  -5.696  0.00  0.00     0.062 C 
BRANCH  18  19
HETATM   19  C   UNK N   1      27.208  27.740  -6.566  0.00  0.00    -0.024 C 
HETATM   20  C   UNK N   1      27.311  27.109  -7.747  0.00  0.00    -0.004 C 
BRANCH  20  21
HETATM   21  C   UNK N   1      26.219  26.293  -8.299  0.00  0.00    -0.002 C 
HETATM   22  C   UNK N   1      26.018  26.217  -9.611  0.00  0.00     0.004 C 
BRANCH  22  23
HETATM   23  C   UNK N   1      24.938  25.337 -10.150  0.00  0.00     0.140 C 
BRANCH  23  24
HETATM   24  C   UNK N   1      24.500  25.856 -11.508  0.00  0.00     0.031 C 
HETATM   25  C   UNK N   1      23.626  27.086 -11.347  0.00  0.00     0.008 C 
ENDBRANCH  23  24
BRANCH  23  26
HETATM   26  O   UNK N   1      25.416  24.030 -10.276  0.00  0.00    -0.392 OA
HETATM   27  H   UNK N   1      26.326  23.698 -10.213  0.00  0.00     0.210 HD
ENDBRANCH  23  26
ENDBRANCH  22  23
ENDBRANCH  20  21
ENDBRANCH  18  19
ENDBRANCH  17  18
BRANCH  17  28
HETATM   28  O   UNK N   1      25.177  28.035  -3.445  0.00  0.00    -0.391 OA
HETATM   29  H   UNK N   1      24.290  28.079  -3.053  0.00  0.00     0.210 HD
ENDBRANCH  17  28
ENDBRANCH   1  17
TORSDOF 17
ENDMDL
MODEL 5
REMARK VINA RESULT:      -5.7     10.400     13.080
REMARK  17 active torsions:
REMARK  status: ('A' for Active; 'I' for Inactive)
REMARK    1  A    between atoms: C_2  and  C_3 
REMARK    2  A    between atoms: C_3  and  C_4 
REMARK    3  A    between atoms: C_3  and  O_25 
REMARK    4  A    between atoms: C_5  and  C_6 
REMARK    5  A    between atoms: C_7  and  C_8 
REMARK    6  A    between atoms: C_8  and  C_9 
REMARK    7  A    between atoms: C_9  and  C_10 
REMARK    8  A    between atoms: C_9  and  O_24 
REMARK    9  A    between atoms: C_11  and  C_12 
REMARK   10  A    between atoms: C_13  and  C_14 
REMARK   11  A    between atoms: C_15  and  C_16 
REMARK   12  A    between atoms: C_16  and  C_17 
REMARK   13  A    between atoms: C_16  and  O_23 
REMARK   14  A    between atoms: C_17  and  C_18 
REMARK   15  A    between atoms: C_18  and  C_19 
REMARK   16  A    between atoms: C_19  and  C_20 
REMARK   17  A    between atoms: C_20  and  O_22 
ROOT
HETATM    1  C   UNK N   1      27.705  24.599  -7.458  0.00  0.00     0.005 C 
HETATM    2  C   UNK N   1      26.620  24.683  -6.701  0.00  0.00    -0.002 C 
ENDROOT
BRANCH   2   3
HETATM    3  C   UNK N   1      26.506  24.012  -5.409  0.00  0.00    -0.000 C 
HETATM    4  C   UNK N   1      27.279  24.470  -4.436  0.00  0.00    -0.000 C 
BRANCH   4   5
HETATM    5  C   UNK N   1      27.330  23.871  -3.102  0.00  0.00    -0.002 C 
HETATM    6  C   UNK N   1      28.500  23.515  -2.553  0.00  0.00     0.004 C 
BRANCH   6   7
HETATM    7  C   UNK N   1      29.831  23.645  -3.255  0.00  0.00     0.141 C 
BRANCH   7   8
HETATM    8  C   UNK N   1      30.062  22.523  -4.262  0.00  0.00     0.036 C 
BRANCH   8   9
HETATM    9  C   UNK N   1      30.492  21.246  -3.556  0.00  0.00     0.013 C 
BRANCH   9  10
HETATM   10  C   UNK N   1      31.772  20.702  -4.164  0.00  0.00     0.110 C 
BRANCH  10  11
HETATM   11  C   UNK N   1      32.917  20.886  -3.220  0.00  0.00     0.139 C 
HETATM   12  O   UNK N   1      34.056  20.679  -3.599  0.00  0.00    -0.650 OA
BRANCH  11  13
HETATM   13  O   UNK N   1      32.694  21.279  -1.951  0.00  0.00    -0.776 OA
HETATM   14  H   UNK N   1      32.522  20.643  -1.285  0.00  0.00     0.167 HD
ENDBRANCH  11  13
ENDBRANCH  10  11
ENDBRANCH   9  10
ENDBRANCH   8   9
ENDBRANCH   7   8
BRANCH   7  15
HETATM   15  O   UNK N   1      30.849  23.600  -2.305  0.00  0.00    -0.392 OA
HETATM   16  H   UNK N   1      30.652  23.735  -1.365  0.00  0.00     0.210 HD
ENDBRANCH   7  15
ENDBRANCH   6   7
ENDBRANCH   4   5
ENDBRANCH   2   3
BRANCH   1  17
HETATM   17  C   UNK N   1      27.729  25.376  -8.730  0.00  0.00     0.144 C 
BRANCH  17  18
HETATM   18  C   UNK N   1      27.437  26.852  -8.501  0.00  0.00     0.062 C 
BRANCH  18  19
HETATM   19  C   UNK N   1      28.682  27.618  -8.126  0.00  0.00    -0.024 C 
HETATM   20  C   UNK N   1      28.739  28.510  -7.124  0.00  0.00    -0.004 C 
BRANCH  20  21
HETATM   21  C   UNK N   1      27.567  28.842  -6.300  0.00  0.00    -0.002 C 
HETATM   22  C   UNK N   1      27.443  28.368  -5.064  0.00  0.00     0.004 C 
BRANCH  22  23
HETATM   23  C   UNK N   1      26.271  28.764  -4.228  0.00  0.00     0.140 C 
BRANCH  23  24
HETATM   24  C   UNK N   1      25.314  27.591  -4.118  0.00  0.00     0.031 C 
HETATM   25  C   UNK N   1      24.656  27.318  -5.458  0.00  0.00     0.008 C 
ENDBRANCH  23  24
BRANCH  23  26
HETATM   26  O   UNK N   1      26.708  29.136  -2.954  0.00  0.00    -0.392 OA
HETATM   27  H   UNK N   1      27.576  29.011  -2.539  0.00  0.00     0.210 HD
ENDBRANCH  23  26
ENDBRANCH  22  23
ENDBRANCH  20  21
ENDBRANCH  18  19
ENDBRANCH  17  18
BRANCH  17  28
HETATM   28  O   UNK N   1      28.940  25.194  -9.402  0.00  0.00    -0.391 OA
HETATM   29  H   UNK N   1      29.753  25.255  -9.929  0.00  0.00     0.210 HD
ENDBRANCH  17  28
ENDBRANCH   1  17
TORSDOF 17
ENDMDL
MODEL 6
REMARK VINA RESULT:      -5.6     10.130     13.023
REMARK  17 active torsions:
REMARK  status: ('A' for Active; 'I' for Inactive)
REMARK    1  A    between atoms: C_2  and  C_3 
REMARK    2  A    between atoms: C_3  and  C_4 
REMARK    3  A    between atoms: C_3  and  O_25 
REMARK    4  A    between atoms: C_5  and  C_6 
REMARK    5  A    between atoms: C_7  and  C_8 
REMARK    6  A    between atoms: C_8  and  C_9 
REMARK    7  A    between atoms: C_9  and  C_10 
REMARK    8  A    between atoms: C_9  and  O_24 
REMARK    9  A    between atoms: C_11  and  C_12 
REMARK   10  A    between atoms: C_13  and  C_14 
REMARK   11  A    between atoms: C_15  and  C_16 
REMARK   12  A    between atoms: C_16  and  C_17 
REMARK   13  A    between atoms: C_16  and  O_23 
REMARK   14  A    between atoms: C_17  and  C_18 
REMARK   15  A    between atoms: C_18  and  C_19 
REMARK   16  A    between atoms: C_19  and  C_20 
REMARK   17  A    between atoms: C_20  and  O_22 
ROOT
HETATM    1  C   UNK N   1      27.532  23.164  -8.857  0.00  0.00     0.005 C 
HETATM    2  C   UNK N   1      27.794  21.927  -8.453  0.00  0.00    -0.002 C 
ENDROOT
BRANCH   2   3
HETATM    3  C   UNK N   1      29.155  21.429  -8.276  0.00  0.00    -0.000 C 
HETATM    4  C   UNK N   1      29.316  20.457  -7.390  0.00  0.00    -0.000 C 
BRANCH   4   5
HETATM    5  C   UNK N   1      30.622  19.890  -7.051  0.00  0.00    -0.002 C 
HETATM    6  C   UNK N   1      31.149  20.061  -5.830  0.00  0.00     0.004 C 
BRANCH   6   7
HETATM    7  C   UNK N   1      30.494  20.874  -4.739  0.00  0.00     0.141 C 
BRANCH   7   8
HETATM    8  C   UNK N   1      30.674  22.374  -4.952  0.00  0.00     0.036 C 
BRANCH   8   9
HETATM    9  C   UNK N   1      29.373  23.116  -4.689  0.00  0.00     0.013 C 
BRANCH   9  10
HETATM   10  C   UNK N   1      29.519  24.049  -3.501  0.00  0.00     0.110 C 
BRANCH  10  11
HETATM   11  C   UNK N   1      29.332  23.298  -2.222  0.00  0.00     0.139 C 
HETATM   12  O   UNK N   1      28.208  23.038  -1.829  0.00  0.00    -0.650 OA
BRANCH  11  13
HETATM   13  O   UNK N   1      30.401  22.910  -1.500  0.00  0.00    -0.776 OA
HETATM   14  H   UNK N   1      30.782  23.492  -0.872  0.00  0.00     0.167 HD
ENDBRANCH  11  13
ENDBRANCH  10  11
ENDBRANCH   9  10
ENDBRANCH   8   9
ENDBRANCH   7   8
BRANCH   7  15
HETATM   15  O   UNK N   1      31.065  20.530  -3.516  0.00  0.00    -0.392 OA
HETATM   16  H   UNK N   1      31.791  19.889  -3.474  0.00  0.00     0.210 HD
ENDBRANCH   7  15
ENDBRANCH   6   7
ENDBRANCH   4   5
ENDBRANCH   2   3
BRANCH   1  17
HETATM   17  C   UNK N   1      26.103  23.580  -8.944  0.00  0.00     0.144 C 
BRANCH  17  18
HETATM   18  C   UNK N   1      25.661  24.358  -7.713  0.00  0.00     0.062 C 
BRANCH  18  19
HETATM   19  C   UNK N   1      25.729  23.515  -6.463  0.00  0.00    -0.024 C 
HETATM   20  C   UNK N   1      25.881  24.020  -5.227  0.00  0.00    -0.004 C 
BRANCH  20  21
HETATM   21  C   UNK N   1      26.019  25.463  -4.980  0.00  0.00    -0.002 C 
HETATM   22  C   UNK N   1      26.387  25.921  -3.787  0.00  0.00     0.004 C 
BRANCH  22  23
HETATM   23  C   UNK N   1      26.574  27.388  -3.577  0.00  0.00     0.140 C 
BRANCH  23  24
HETATM   24  C   UNK N   1      26.657  28.081  -4.925  0.00  0.00     0.031 C 
HETATM   25  C   UNK N   1      26.993  29.549  -4.745  0.00  0.00     0.008 C 
ENDBRANCH  23  24
BRANCH  23  26
HETATM   26  O   UNK N   1      25.496  27.899  -2.849  0.00  0.00    -0.392 OA
HETATM   27  H   UNK N   1      25.388  28.771  -2.439  0.00  0.00     0.210 HD
ENDBRANCH  23  26
ENDBRANCH  22  23
ENDBRANCH  20  21
ENDBRANCH  18  19
ENDBRANCH  17  18
BRANCH  17  28
HETATM   28  O   UNK N   1      25.865  24.301 -10.115  0.00  0.00    -0.391 OA
HETATM   29  H   UNK N   1      25.509  24.767 -10.889  0.00  0.00     0.210 HD
ENDBRANCH  17  28
ENDBRANCH   1  17
TORSDOF 17
ENDMDL
MODEL 7
REMARK VINA RESULT:      -5.6      6.731     12.557
REMARK  17 active torsions:
REMARK  status: ('A' for Active; 'I' for Inactive)
REMARK    1  A    between atoms: C_2  and  C_3 
REMARK    2  A    between atoms: C_3  and  C_4 
REMARK    3  A    between atoms: C_3  and  O_25 
REMARK    4  A    between atoms: C_5  and  C_6 
REMARK    5  A    between atoms: C_7  and  C_8 
REMARK    6  A    between atoms: C_8  and  C_9 
REMARK    7  A    between atoms: C_9  and  C_10 
REMARK    8  A    between atoms: C_9  and  O_24 
REMARK    9  A    between atoms: C_11  and  C_12 
REMARK   10  A    between atoms: C_13  and  C_14 
REMARK   11  A    between atoms: C_15  and  C_16 
REMARK   12  A    between atoms: C_16  and  C_17 
REMARK   13  A    between atoms: C_16  and  O_23 
REMARK   14  A    between atoms: C_17  and  C_18 
REMARK   15  A    between atoms: C_18  and  C_19 
REMARK   16  A    between atoms: C_19  and  C_20 
REMARK   17  A    between atoms: C_20  and  O_22 
ROOT
HETATM    1  C   UNK N   1      34.871  14.685  11.576  0.00  0.00     0.005 C 
HETATM    2  C   UNK N   1      35.490  15.232  10.538  0.00  0.00    -0.002 C 
ENDROOT
BRANCH   2   3
HETATM    3  C   UNK N   1      35.222  16.595  10.089  0.00  0.00    -0.000 C 
HETATM    4  C   UNK N   1      34.502  16.722   8.985  0.00  0.00    -0.000 C 
BRANCH   4   5
HETATM    5  C   UNK N   1      34.197  18.015   8.370  0.00  0.00    -0.002 C 
HETATM    6  C   UNK N   1      32.933  18.359   8.088  0.00  0.00     0.004 C 
BRANCH   6   7
HETATM    7  C   UNK N   1      31.744  17.456   8.319  0.00  0.00     0.141 C 
BRANCH   7   8
HETATM    8  C   UNK N   1      30.915  17.262   7.054  0.00  0.00     0.036 C 
BRANCH   8   9
HETATM    9  C   UNK N   1      29.474  16.921   7.401  0.00  0.00     0.013 C 
BRANCH   9  10
HETATM   10  C   UNK N   1      28.514  17.824   6.649  0.00  0.00     0.110 C 
BRANCH  10  11
HETATM   11  C   UNK N   1      28.051  18.942   7.528  0.00  0.00     0.139 C 
HETATM   12  O   UNK N   1      27.858  20.047   7.054  0.00  0.00    -0.650 OA
BRANCH  11  13
HETATM   13  O   UNK N   1      27.849  18.732   8.843  0.00  0.00    -0.776 OA
HETATM   14  H   UNK N   1      27.529  17.905   9.144  0.00  0.00     0.167 HD
ENDBRANCH  11  13
ENDBRANCH  10  11
ENDBRANCH   9  10
ENDBRANCH   8   9
ENDBRANCH   7   8
BRANCH   7  15
HETATM   15  O   UNK N   1      30.930  18.023   9.297  0.00  0.00    -0.392 OA
HETATM   16  H   UNK N   1      30.028  17.697   9.437  0.00  0.00     0.210 HD
ENDBRANCH   7  15
ENDBRANCH   6   7
ENDBRANCH   4   5
ENDBRANCH   2   3
BRANCH   1  17
HETATM   17  C   UNK N   1      35.270  13.307  11.978  0.00  0.00     0.144 C 
BRANCH  17  18
HETATM   18  C   UNK N   1      36.543  13.304  12.812  0.00  0.00     0.062 C 
BRANCH  18  19
HETATM   19  C   UNK N   1      36.475  14.300  13.943  0.00  0.00    -0.024 C 
HETATM   20  C   UNK N   1      36.443  13.958  15.242  0.00  0.00    -0.004 C 
BRANCH  20  21
HETATM   21  C   UNK N   1      36.451  12.555  15.685  0.00  0.00    -0.002 C 
HETATM   22  C   UNK N   1      35.575  12.117  16.583  0.00  0.00     0.004 C 
BRANCH  22  23
HETATM   23  C   UNK N   1      35.567  10.675  16.974  0.00  0.00     0.140 C 
BRANCH  23  24
HETATM   24  C   UNK N   1      35.007  10.541  18.379  0.00  0.00     0.031 C 
HETATM   25  C   UNK N   1      35.400  11.740  19.222  0.00  0.00     0.008 C 
ENDBRANCH  23  24
BRANCH  23  26
HETATM   26  O   UNK N   1      34.775   9.950  16.080  0.00  0.00    -0.392 OA
HETATM   27  H   UNK N   1      34.947   9.719  15.154  0.00  0.00     0.210 HD
ENDBRANCH  23  26
ENDBRANCH  22  23
ENDBRANCH  20  21
ENDBRANCH  18  19
ENDBRANCH  17  18
BRANCH  17  28
HETATM   28  O   UNK N   1      34.225  12.659  12.641  0.00  0.00    -0.391 OA
HETATM   29  H   UNK N   1      33.631  12.191  13.249  0.00  0.00     0.210 HD
ENDBRANCH  17  28
ENDBRANCH   1  17
TORSDOF 17
ENDMDL
MODEL 8
REMARK VINA RESULT:      -5.6      2.398      3.761
REMARK  17 active torsions:
REMARK  status: ('A' for Active; 'I' for Inactive)
REMARK    1  A    between atoms: C_2  and  C_3 
REMARK    2  A    between atoms: C_3  and  C_4 
REMARK    3  A    between atoms: C_3  and  O_25 
REMARK    4  A    between atoms: C_5  and  C_6 
REMARK    5  A    between atoms: C_7  and  C_8 
REMARK    6  A    between atoms: C_8  and  C_9 
REMARK    7  A    between atoms: C_9  and  C_10 
REMARK    8  A    between atoms: C_9  and  O_24 
REMARK    9  A    between atoms: C_11  and  C_12 
REMARK   10  A    between atoms: C_13  and  C_14 
REMARK   11  A    between atoms: C_15  and  C_16 
REMARK   12  A    between atoms: C_16  and  C_17 
REMARK   13  A    between atoms: C_16  and  O_23 
REMARK   14  A    between atoms: C_17  and  C_18 
REMARK   15  A    between atoms: C_18  and  C_19 
REMARK   16  A    between atoms: C_19  and  C_20 
REMARK   17  A    between atoms: C_20  and  O_22 
ROOT
HETATM    1  C   UNK N   1      29.072  16.373   5.353  0.00  0.00     0.005 C 
HETATM    2  C   UNK N   1      28.968  17.485   6.070  0.00  0.00    -0.002 C 
ENDROOT
BRANCH   2   3
HETATM    3  C   UNK N   1      29.743  17.714   7.285  0.00  0.00    -0.000 C 
HETATM    4  C   UNK N   1      30.843  16.991   7.429  0.00  0.00    -0.000 C 
BRANCH   4   5
HETATM    5  C   UNK N   1      31.697  17.058   8.616  0.00  0.00    -0.002 C 
HETATM    6  C   UNK N   1      33.009  17.309   8.504  0.00  0.00     0.004 C 
BRANCH   6   7
HETATM    7  C   UNK N   1      33.721  17.489   7.184  0.00  0.00     0.141 C 
BRANCH   7   8
HETATM    8  C   UNK N   1      34.310  16.182   6.666  0.00  0.00     0.036 C 
BRANCH   8   9
HETATM    9  C   UNK N   1      34.212  16.111   5.149  0.00  0.00     0.013 C 
BRANCH   9  10
HETATM   10  C   UNK N   1      33.102  17.014   4.642  0.00  0.00     0.110 C 
BRANCH  10  11
HETATM   11  C   UNK N   1      32.698  16.616   3.259  0.00  0.00     0.139 C 
HETATM   12  O   UNK N   1      31.581  16.884   2.852  0.00  0.00    -0.650 OA
BRANCH  11  13
HETATM   13  O   UNK N   1      33.562  15.961   2.460  0.00  0.00    -0.776 OA
HETATM   14  H   UNK N   1      33.427  15.055   2.262  0.00  0.00     0.167 HD
ENDBRANCH  11  13
ENDBRANCH  10  11
ENDBRANCH   9  10
ENDBRANCH   8   9
ENDBRANCH   7   8
BRANCH   7  15
HETATM   15  O   UNK N   1      34.758  18.404   7.353  0.00  0.00    -0.392 OA
HETATM   16  H   UNK N   1      34.633  19.338   7.123  0.00  0.00     0.210 HD
ENDBRANCH   7  15
ENDBRANCH   6   7
ENDBRANCH   4   5
ENDBRANCH   2   3
BRANCH   1  17
HETATM   17  C   UNK N   1      28.275  16.276   4.098  0.00  0.00     0.144 C 
BRANCH  17  18
HETATM   18  C   UNK N   1      26.786  16.460   4.353  0.00  0.00     0.062 C 
BRANCH  18  19
HETATM   19  C   UNK N   1      26.178  17.475   3.417  0.00  0.00    -0.024 C 
HETATM   20  C   UNK N   1      25.918  18.748   3.758  0.00  0.00    -0.004 C 
BRANCH  20  21
HETATM   21  C   UNK N   1      26.188  19.270   5.107  0.00  0.00    -0.002 C 
HETATM   22  C   UNK N   1      26.945  20.349   5.284  0.00  0.00     0.004 C 
BRANCH  22  23
HETATM   23  C   UNK N   1      27.158  20.892   6.659  0.00  0.00     0.140 C 
BRANCH  23  24
HETATM   24  C   UNK N   1      26.203  22.048   6.894  0.00  0.00     0.031 C 
HETATM   25  C   UNK N   1      25.571  21.941   8.269  0.00  0.00     0.008 C 
ENDBRANCH  23  24
BRANCH  23  26
HETATM   26  O   UNK N   1      26.925  19.888   7.602  0.00  0.00    -0.392 OA
HETATM   27  H   UNK N   1      26.116  19.381   7.774  0.00  0.00     0.210 HD
ENDBRANCH  23  26
ENDBRANCH  22  23
ENDBRANCH  20  21
ENDBRANCH  18  19
ENDBRANCH  17  18
BRANCH  17  28
HETATM   28  O   UNK N   1      28.744  17.178   3.140  0.00  0.00    -0.391 OA
HETATM   29  H   UNK N   1      29.236  17.801   2.582  0.00  0.00     0.210 HD
ENDBRANCH  17  28
ENDBRANCH   1  17
TORSDOF 17
ENDMDL
MODEL 9
REMARK VINA RESULT:      -5.6      6.006      9.098
REMARK  17 active torsions:
REMARK  status: ('A' for Active; 'I' for Inactive)
REMARK    1  A    between atoms: C_2  and  C_3 
REMARK    2  A    between atoms: C_3  and  C_4 
REMARK    3  A    between atoms: C_3  and  O_25 
REMARK    4  A    between atoms: C_5  and  C_6 
REMARK    5  A    between atoms: C_7  and  C_8 
REMARK    6  A    between atoms: C_8  and  C_9 
REMARK    7  A    between atoms: C_9  and  C_10 
REMARK    8  A    between atoms: C_9  and  O_24 
REMARK    9  A    between atoms: C_11  and  C_12 
REMARK   10  A    between atoms: C_13  and  C_14 
REMARK   11  A    between atoms: C_15  and  C_16 
REMARK   12  A    between atoms: C_16  and  C_17 
REMARK   13  A    between atoms: C_16  and  O_23 
REMARK   14  A    between atoms: C_17  and  C_18 
REMARK   15  A    between atoms: C_18  and  C_19 
REMARK   16  A    between atoms: C_19  and  C_20 
REMARK   17  A    between atoms: C_20  and  O_22 
ROOT
HETATM    1  C   UNK N   1      25.120  13.453   9.044  0.00  0.00     0.005 C 
HETATM    2  C   UNK N   1      24.384  13.316   7.949  0.00  0.00    -0.002 C 
ENDROOT
BRANCH   2   3
HETATM    3  C   UNK N   1      24.893  13.615   6.614  0.00  0.00    -0.000 C 
HETATM    4  C   UNK N   1      25.149  14.888   6.352  0.00  0.00    -0.000 C 
BRANCH   4   5
HETATM    5  C   UNK N   1      25.607  15.361   5.045  0.00  0.00    -0.002 C 
HETATM    6  C   UNK N   1      24.926  16.307   4.381  0.00  0.00     0.004 C 
BRANCH   6   7
HETATM    7  C   UNK N   1      23.637  16.918   4.876  0.00  0.00     0.141 C 
BRANCH   7   8
HETATM    8  C   UNK N   1      22.736  17.365   3.729  0.00  0.00     0.036 C 
BRANCH   8   9
HETATM    9  C   UNK N   1      22.223  18.777   3.967  0.00  0.00     0.013 C 
BRANCH   9  10
HETATM   10  C   UNK N   1      21.533  19.313   2.726  0.00  0.00     0.110 C 
BRANCH  10  11
HETATM   11  C   UNK N   1      20.187  19.863   3.073  0.00  0.00     0.139 C 
HETATM   12  O   UNK N   1      20.096  20.820   3.821  0.00  0.00    -0.650 OA
BRANCH  11  13
HETATM   13  O   UNK N   1      19.073  19.304   2.563  0.00  0.00    -0.776 OA
HETATM   14  H   UNK N   1      18.761  19.560   1.718  0.00  0.00     0.167 HD
ENDBRANCH  11  13
ENDBRANCH  10  11
ENDBRANCH   9  10
ENDBRANCH   8   9
ENDBRANCH   7   8
BRANCH   7  15
HETATM   15  O   UNK N   1      23.936  18.029   5.661  0.00  0.00    -0.392 OA
HETATM   16  H   UNK N   1      24.300  17.919   6.553  0.00  0.00     0.210 HD
ENDBRANCH   7  15
ENDBRANCH   6   7
ENDBRANCH   4   5
ENDBRANCH   2   3
BRANCH   1  17
HETATM   17  C   UNK N   1      24.512  13.060  10.346  0.00  0.00     0.144 C 
BRANCH  17  18
HETATM   18  C   UNK N   1      23.532  11.905  10.191  0.00  0.00     0.062 C 
BRANCH  18  19
HETATM   19  C   UNK N   1      22.524  11.870  11.313  0.00  0.00    -0.024 C 
HETATM   20  C   UNK N   1      21.262  12.316  11.200  0.00  0.00    -0.004 C 
BRANCH  20  21
HETATM   21  C   UNK N   1      20.746  12.908   9.956  0.00  0.00    -0.002 C 
HETATM   22  C   UNK N   1      20.875  14.208   9.713  0.00  0.00     0.004 C 
BRANCH  22  23
HETATM   23  C   UNK N   1      20.393  14.776   8.418  0.00  0.00     0.140 C 
BRANCH  23  24
HETATM   24  C   UNK N   1      21.390  15.808   7.923  0.00  0.00     0.031 C 
HETATM   25  C   UNK N   1      20.737  16.731   6.911  0.00  0.00     0.008 C 
ENDBRANCH  23  24
BRANCH  23  26
HETATM   26  O   UNK N   1      20.266  13.752   7.476  0.00  0.00    -0.392 OA
HETATM   27  H   UNK N   1      20.907  13.073   7.214  0.00  0.00     0.210 HD
ENDBRANCH  23  26
ENDBRANCH  22  23
ENDBRANCH  20  21
ENDBRANCH  18  19
ENDBRANCH  17  18
BRANCH  17  28
HETATM   28  O   UNK N   1      25.499  12.767  11.289  0.00  0.00    -0.391 OA
HETATM   29  H   UNK N   1      26.133  12.375  11.910  0.00  0.00     0.210 HD
ENDBRANCH  17  28
ENDBRANCH   1  17
TORSDOF 17
ENDMDL
