MODEL 1
REMARK VINA RESULT:      -5.6      0.000      0.000
REMARK  9 active torsions:
REMARK  status: ('A' for Active; 'I' for Inactive)
REMARK    1  A    between atoms: C_3  and  C_2 
REMARK    2  A    between atoms: N_20  and  C_3 
REMARK    3  A    between atoms: C_7  and  C_5 
REMARK    4  A    between atoms: N_15  and  C_5 
REMARK    5  A    between atoms: N_11  and  C_8 
REMARK    6  A    between atoms: N_20  and  C_9 
REMARK    7  A    between atoms: O_21  and  C_9 
REMARK    8  A    between atoms: N_20  and  N_18 
REMARK    9  A    between atoms: O_22  and  N_18 
ROOT
HETATM    1  C   UNK N   1      36.380  14.570   9.927  0.00  0.00     0.167 C 
ENDROOT
BRANCH   1   2
HETATM    2  C   UNK N   1      35.797  13.751  11.065  0.00  0.00     0.018 A 
HETATM    3  C   UNK N   1      35.166  12.552  10.735  0.00  0.00     0.102 A 
HETATM    4  N   UNK N   1      34.615  11.772  11.701  0.00  0.00    -0.355 N 
HETATM    5  C   UNK N   1      34.666  12.137  13.007  0.00  0.00     0.078 A 
ATOM      6  HN  UNK N   1      34.157  10.898  11.441  1.00  0.00     0.166 HD
HETATM    7  C   UNK N   1      34.056  11.272  14.049  0.00  0.00     0.089 C 
HETATM    8  N   UNK N   1      35.273  13.294  13.367  0.00  0.00    -0.332 N 
HETATM    9  C   UNK N   1      35.839  14.111  12.444  0.00  0.00     0.109 A 
HETATM   10  H   UNK N   1      35.304  13.546  14.318  0.00  0.00     0.168 HD
BRANCH   9  11
HETATM   11  N   UNK N   1      36.398  15.189  12.844  0.00  0.00    -0.385 N 
HETATM   12  H   UNK N   1      36.739  15.255  13.765  0.00  0.00     0.157 HD
ATOM     13  HN  UNK N   1      36.489  15.982  12.208  1.00  0.00     0.157 HD
ENDBRANCH   9  11
ENDBRANCH   1   2
BRANCH   1  14
HETATM   14  N   UNK N   1      35.384  15.419   9.335  0.00  0.00    -0.351 N 
HETATM   15  C   UNK N   1      35.158  16.646   9.642  0.00  0.00     0.236 C 
ATOM     16  HN  UNK N   1      34.803  15.010   8.604  1.00  0.00     0.163 HD
BRANCH  15  17
HETATM   17  N   UNK N   1      34.115  17.340   8.947  0.00  0.00    -0.236 N 
BRANCH  17  18
HETATM   18  C   UNK N   1      32.813  16.696   8.879  0.00  0.00     0.169 C 
BRANCH  18  19
HETATM   19  C   UNK N   1      31.823  17.358   7.943  0.00  0.00     0.136 C 
HETATM   20 Cl   UNK N   1      30.715  18.329   8.940  0.00  0.00    -0.129 Cl
ENDBRANCH  18  19
ENDBRANCH  17  18
BRANCH  17  21
HETATM   21  N   UNK N   1      34.308  18.578   8.364  0.00  0.00    -0.205 N 
ATOM     22  HN  UNK N   1      33.583  18.962   7.759  1.00  0.00     0.216 HD
BRANCH  21  23
HETATM   23  O   UNK N   1      35.306  19.208   8.551  0.00  0.00    -0.274 OA
ATOM     24  HO  UNK N   1      35.532  19.535   9.414  1.00  0.00     0.246 HD
ENDBRANCH  21  23
ENDBRANCH  17  21
ENDBRANCH  15  17
BRANCH  15  25
HETATM   25  O   UNK N   1      35.888  17.256  10.602  0.00  0.00    -0.331 OA
HETATM   26  H   UNK N   1      35.837  18.186  10.709  0.00  0.00     0.221 HD
ENDBRANCH  15  25
ENDBRANCH   1  14
TORSDOF 9
ENDMDL
MODEL 2
REMARK VINA RESULT:      -5.5      5.932      8.021
REMARK  9 active torsions:
REMARK  status: ('A' for Active; 'I' for Inactive)
REMARK    1  A    between atoms: C_3  and  C_2 
REMARK    2  A    between atoms: N_20  and  C_3 
REMARK    3  A    between atoms: C_7  and  C_5 
REMARK    4  A    between atoms: N_15  and  C_5 
REMARK    5  A    between atoms: N_11  and  C_8 
REMARK    6  A    between atoms: N_20  and  C_9 
REMARK    7  A    between atoms: O_21  and  C_9 
REMARK    8  A    between atoms: N_20  and  N_18 
REMARK    9  A    between atoms: O_22  and  N_18 
ROOT
HETATM    1  C   UNK N   1      28.929  17.123   7.108  0.00  0.00     0.167 C 
ENDROOT
BRANCH   1   2
HETATM    2  C   UNK N   1      30.388  17.394   7.429  0.00  0.00     0.018 A 
HETATM    3  C   UNK N   1      31.312  17.233   6.397  0.00  0.00     0.102 A 
HETATM    4  N   UNK N   1      32.636  17.452   6.615  0.00  0.00    -0.355 N 
HETATM    5  C   UNK N   1      33.090  17.831   7.836  0.00  0.00     0.078 A 
ATOM      6  HN  UNK N   1      33.298  17.329   5.848  1.00  0.00     0.166 HD
HETATM    7  C   UNK N   1      34.540  18.062   8.054  0.00  0.00     0.089 C 
HETATM    8  N   UNK N   1      32.221  18.000   8.862  0.00  0.00    -0.332 N 
HETATM    9  C   UNK N   1      30.890  17.795   8.701  0.00  0.00     0.109 A 
HETATM   10  H   UNK N   1      32.563  18.277   9.743  0.00  0.00     0.168 HD
BRANCH   9  11
HETATM   11  N   UNK N   1      30.119  17.971   9.706  0.00  0.00    -0.385 N 
HETATM   12  H   UNK N   1      29.682  17.198  10.133  0.00  0.00     0.157 HD
ATOM     13  HN  UNK N   1      29.956  18.911  10.066  1.00  0.00     0.157 HD
ENDBRANCH   9  11
ENDBRANCH   1   2
BRANCH   1  14
HETATM   14  N   UNK N   1      28.276  18.305   6.621  0.00  0.00    -0.351 N 
HETATM   15  C   UNK N   1      27.650  19.170   7.336  0.00  0.00     0.236 C 
ATOM     16  HN  UNK N   1      28.313  18.474   5.616  1.00  0.00     0.163 HD
BRANCH  15  17
HETATM   17  N   UNK N   1      27.051  20.293   6.675  0.00  0.00    -0.236 N 
BRANCH  17  18
HETATM   18  C   UNK N   1      27.181  20.365   5.229  0.00  0.00     0.169 C 
BRANCH  18  19
HETATM   19  C   UNK N   1      25.872  20.318   4.469  0.00  0.00     0.136 C 
HETATM   20 Cl   UNK N   1      25.859  18.811   3.522  0.00  0.00    -0.129 Cl
ENDBRANCH  18  19
ENDBRANCH  17  18
BRANCH  17  21
HETATM   21  N   UNK N   1      26.364  21.276   7.360  0.00  0.00    -0.205 N 
ATOM     22  HN  UNK N   1      26.460  22.248   7.067  1.00  0.00     0.216 HD
BRANCH  21  23
HETATM   23  O   UNK N   1      25.658  21.015   8.289  0.00  0.00    -0.274 OA
ATOM     24  HO  UNK N   1      25.581  20.128   8.620  1.00  0.00     0.246 HD
ENDBRANCH  21  23
ENDBRANCH  17  21
ENDBRANCH  15  17
BRANCH  15  25
HETATM   25  O   UNK N   1      27.559  19.015   8.675  0.00  0.00    -0.331 OA
HETATM   26  H   UNK N   1      27.168  18.242   9.032  0.00  0.00     0.221 HD
ENDBRANCH  15  25
ENDBRANCH   1  14
TORSDOF 9
ENDMDL
MODEL 3
REMARK VINA RESULT:      -5.4      9.238     12.131
REMARK  9 active torsions:
REMARK  status: ('A' for Active; 'I' for Inactive)
REMARK    1  A    between atoms: C_3  and  C_2 
REMARK    2  A    between atoms: N_20  and  C_3 
REMARK    3  A    between atoms: C_7  and  C_5 
REMARK    4  A    between atoms: N_15  and  C_5 
REMARK    5  A    between atoms: N_11  and  C_8 
REMARK    6  A    between atoms: N_20  and  C_9 
REMARK    7  A    between atoms: O_21  and  C_9 
REMARK    8  A    between atoms: N_20  and  N_18 
REMARK    9  A    between atoms: O_22  and  N_18 
ROOT
HETATM    1  C   UNK N   1      26.504  20.449   4.243  0.00  0.00     0.167 C 
ENDROOT
BRANCH   1   2
HETATM    2  C   UNK N   1      27.151  19.863   5.486  0.00  0.00     0.018 A 
HETATM    3  C   UNK N   1      26.719  20.344   6.721  0.00  0.00     0.102 A 
HETATM    4  N   UNK N   1      27.259  19.870   7.875  0.00  0.00    -0.355 N 
HETATM    5  C   UNK N   1      28.229  18.920   7.854  0.00  0.00     0.078 A 
ATOM      6  HN  UNK N   1      26.931  20.234   8.770  1.00  0.00     0.166 HD
HETATM    7  C   UNK N   1      28.809  18.418   9.125  0.00  0.00     0.089 C 
HETATM    8  N   UNK N   1      28.672  18.427   6.672  0.00  0.00    -0.332 N 
HETATM    9  C   UNK N   1      28.168  18.864   5.491  0.00  0.00     0.109 A 
HETATM   10  H   UNK N   1      29.375  17.737   6.671  0.00  0.00     0.168 HD
BRANCH   9  11
HETATM   11  N   UNK N   1      28.626  18.361   4.408  0.00  0.00    -0.385 N 
HETATM   12  H   UNK N   1      28.195  17.569   4.013  0.00  0.00     0.157 HD
ATOM     13  HN  UNK N   1      29.439  18.779   3.955  1.00  0.00     0.157 HD
ENDBRANCH   9  11
ENDBRANCH   1   2
BRANCH   1  14
HETATM   14  N   UNK N   1      25.115  20.093   4.164  0.00  0.00    -0.351 N 
HETATM   15  C   UNK N   1      24.336  20.310   3.166  0.00  0.00     0.236 C 
ATOM     16  HN  UNK N   1      24.711  19.624   4.975  1.00  0.00     0.163 HD
BRANCH  15  17
HETATM   17  N   UNK N   1      22.969  19.888   3.266  0.00  0.00    -0.236 N 
BRANCH  17  18
HETATM   18  C   UNK N   1      22.698  18.671   4.014  0.00  0.00     0.169 C 
BRANCH  18  19
HETATM   19  C   UNK N   1      21.289  18.558   4.557  0.00  0.00     0.136 C 
HETATM   20 Cl   UNK N   1      21.415  18.277   6.310  0.00  0.00    -0.129 Cl
ENDBRANCH  18  19
ENDBRANCH  17  18
BRANCH  17  21
HETATM   21  N   UNK N   1      21.931  20.596   2.693  0.00  0.00    -0.205 N 
ATOM     22  HN  UNK N   1      21.130  20.089   2.317  1.00  0.00     0.216 HD
BRANCH  21  23
HETATM   23  O   UNK N   1      21.949  21.789   2.627  0.00  0.00    -0.274 OA
ATOM     24  HO  UNK N   1      21.172  22.308   2.803  1.00  0.00     0.246 HD
ENDBRANCH  21  23
ENDBRANCH  17  21
ENDBRANCH  15  17
BRANCH  15  25
HETATM   25  O   UNK N   1      24.800  20.925   2.056  0.00  0.00    -0.331 OA
HETATM   26  H   UNK N   1      24.728  20.504   1.222  0.00  0.00     0.221 HD
ENDBRANCH  15  25
ENDBRANCH   1  14
TORSDOF 9
ENDMDL
MODEL 4
REMARK VINA RESULT:      -5.4      2.241      3.220
REMARK  9 active torsions:
REMARK  status: ('A' for Active; 'I' for Inactive)
REMARK    1  A    between atoms: C_3  and  C_2 
REMARK    2  A    between atoms: N_20  and  C_3 
REMARK    3  A    between atoms: C_7  and  C_5 
REMARK    4  A    between atoms: N_15  and  C_5 
REMARK    5  A    between atoms: N_11  and  C_8 
REMARK    6  A    between atoms: N_20  and  C_9 
REMARK    7  A    between atoms: O_21  and  C_9 
REMARK    8  A    between atoms: N_20  and  N_18 
REMARK    9  A    between atoms: O_22  and  N_18 
ROOT
HETATM    1  C   UNK N   1      36.472  13.498  12.086  0.00  0.00     0.167 C 
ENDROOT
BRANCH   1   2
HETATM    2  C   UNK N   1      36.043  13.351  13.535  0.00  0.00     0.018 A 
HETATM    3  C   UNK N   1      36.718  14.117  14.484  0.00  0.00     0.102 A 
HETATM    4  N   UNK N   1      36.392  14.031  15.801  0.00  0.00    -0.355 N 
HETATM    5  C   UNK N   1      35.405  13.201  16.223  0.00  0.00     0.078 A 
ATOM      6  HN  UNK N   1      36.897  14.599  16.481  1.00  0.00     0.166 HD
HETATM    7  C   UNK N   1      35.065  13.119  17.666  0.00  0.00     0.089 C 
HETATM    8  N   UNK N   1      34.725  12.443  15.329  0.00  0.00    -0.332 N 
HETATM    9  C   UNK N   1      35.009  12.489  14.004  0.00  0.00     0.109 A 
HETATM   10  H   UNK N   1      34.010  11.846  15.649  0.00  0.00     0.168 HD
BRANCH   9  11
HETATM   11  N   UNK N   1      34.333  11.750  13.208  0.00  0.00    -0.385 N 
HETATM   12  H   UNK N   1      33.707  11.081  13.570  0.00  0.00     0.157 HD
ATOM     13  HN  UNK N   1      34.443  11.853  12.199  1.00  0.00     0.157 HD
ENDBRANCH   9  11
ENDBRANCH   1   2
BRANCH   1  14
HETATM   14  N   UNK N   1      35.507  14.247  11.332  0.00  0.00    -0.351 N 
HETATM   15  C   UNK N   1      35.682  15.418  10.833  0.00  0.00     0.236 C 
ATOM     16  HN  UNK N   1      34.599  13.809  11.178  1.00  0.00     0.163 HD
BRANCH  15  17
HETATM   17  N   UNK N   1      34.599  16.018  10.110  0.00  0.00    -0.236 N 
BRANCH  17  18
HETATM   18  C   UNK N   1      34.863  17.279   9.436  0.00  0.00     0.169 C 
BRANCH  18  19
HETATM   19  C   UNK N   1      34.351  17.359   8.013  0.00  0.00     0.136 C 
HETATM   20 Cl   UNK N   1      32.823  18.272   8.048  0.00  0.00    -0.129 Cl
ENDBRANCH  18  19
ENDBRANCH  17  18
BRANCH  17  21
HETATM   21  N   UNK N   1      33.348  15.438  10.033  0.00  0.00    -0.205 N 
ATOM     22  HN  UNK N   1      32.908  15.323   9.120  1.00  0.00     0.216 HD
BRANCH  21  23
HETATM   23  O   UNK N   1      32.768  15.066  11.009  0.00  0.00    -0.274 OA
ATOM     24  HO  UNK N   1      32.513  15.672  11.695  1.00  0.00     0.246 HD
ENDBRANCH  21  23
ENDBRANCH  17  21
ENDBRANCH  15  17
BRANCH  15  25
HETATM   25  O   UNK N   1      36.859  16.061  10.994  0.00  0.00    -0.331 OA
HETATM   26  H   UNK N   1      37.379  15.903  11.757  0.00  0.00     0.221 HD
ENDBRANCH  15  25
ENDBRANCH   1  14
TORSDOF 9
ENDMDL
MODEL 5
REMARK VINA RESULT:      -5.4      5.166      8.189
REMARK  9 active torsions:
REMARK  status: ('A' for Active; 'I' for Inactive)
REMARK    1  A    between atoms: C_3  and  C_2 
REMARK    2  A    between atoms: N_20  and  C_3 
REMARK    3  A    between atoms: C_7  and  C_5 
REMARK    4  A    between atoms: N_15  and  C_5 
REMARK    5  A    between atoms: N_11  and  C_8 
REMARK    6  A    between atoms: N_20  and  C_9 
REMARK    7  A    between atoms: O_21  and  C_9 
REMARK    8  A    between atoms: N_20  and  N_18 
REMARK    9  A    between atoms: O_22  and  N_18 
ROOT
HETATM    1  C   UNK N   1      29.781  16.839   7.170  0.00  0.00     0.167 C 
ENDROOT
BRANCH   1   2
HETATM    2  C   UNK N   1      28.863  18.042   7.045  0.00  0.00     0.018 A 
HETATM    3  C   UNK N   1      28.615  18.529   5.762  0.00  0.00     0.102 A 
HETATM    4  N   UNK N   1      27.809  19.607   5.576  0.00  0.00    -0.355 N 
HETATM    5  C   UNK N   1      27.227  20.235   6.629  0.00  0.00     0.078 A 
ATOM      6  HN  UNK N   1      27.639  19.949   4.630  1.00  0.00     0.166 HD
HETATM    7  C   UNK N   1      26.352  21.413   6.405  0.00  0.00     0.089 C 
HETATM    8  N   UNK N   1      27.442  19.788   7.890  0.00  0.00    -0.332 N 
HETATM    9  C   UNK N   1      28.238  18.717   8.133  0.00  0.00     0.109 A 
HETATM   10  H   UNK N   1      27.013  20.252   8.645  0.00  0.00     0.168 HD
BRANCH   9  11
HETATM   11  N   UNK N   1      28.403  18.343   9.345  0.00  0.00    -0.385 N 
HETATM   12  H   UNK N   1      27.988  18.851  10.079  0.00  0.00     0.157 HD
ATOM     13  HN  UNK N   1      28.967  17.517   9.552  1.00  0.00     0.157 HD
ENDBRANCH   9  11
ENDBRANCH   1   2
BRANCH   1  14
HETATM   14  N   UNK N   1      31.159  17.223   7.055  0.00  0.00    -0.351 N 
HETATM   15  C   UNK N   1      31.931  17.564   8.024  0.00  0.00     0.236 C 
ATOM     16  HN  UNK N   1      31.562  17.226   6.119  1.00  0.00     0.163 HD
BRANCH  15  17
HETATM   17  N   UNK N   1      33.285  17.924   7.721  0.00  0.00    -0.236 N 
BRANCH  17  18
HETATM   18  C   UNK N   1      33.813  17.514   6.430  0.00  0.00     0.169 C 
BRANCH  18  19
HETATM   19  C   UNK N   1      34.461  16.145   6.412  0.00  0.00     0.136 C 
HETATM   20 Cl   UNK N   1      34.164  15.436   4.807  0.00  0.00    -0.129 Cl
ENDBRANCH  18  19
ENDBRANCH  17  18
BRANCH  17  21
HETATM   21  N   UNK N   1      34.076  18.641   8.598  0.00  0.00    -0.205 N 
ATOM     22  HN  UNK N   1      33.726  18.841   9.535  1.00  0.00     0.216 HD
BRANCH  21  23
HETATM   23  O   UNK N   1      35.160  19.033   8.285  0.00  0.00    -0.274 OA
ATOM     24  HO  UNK N   1      35.951  18.634   8.629  1.00  0.00     0.246 HD
ENDBRANCH  21  23
ENDBRANCH  17  21
ENDBRANCH  15  17
BRANCH  15  25
HETATM   25  O   UNK N   1      31.469  17.584   9.294  0.00  0.00    -0.331 OA
HETATM   26  H   UNK N   1      31.945  18.040   9.959  0.00  0.00     0.221 HD
ENDBRANCH  15  25
ENDBRANCH   1  14
TORSDOF 9
ENDMDL
MODEL 6
REMARK VINA RESULT:      -5.4      4.250      7.647
REMARK  9 active torsions:
REMARK  status: ('A' for Active; 'I' for Inactive)
REMARK    1  A    between atoms: C_3  and  C_2 
REMARK    2  A    between atoms: N_20  and  C_3 
REMARK    3  A    between atoms: C_7  and  C_5 
REMARK    4  A    between atoms: N_15  and  C_5 
REMARK    5  A    between atoms: N_11  and  C_8 
REMARK    6  A    between atoms: N_20  and  C_9 
REMARK    7  A    between atoms: O_21  and  C_9 
REMARK    8  A    between atoms: N_20  and  N_18 
REMARK    9  A    between atoms: O_22  and  N_18 
ROOT
HETATM    1  C   UNK N   1      30.251  17.119   8.935  0.00  0.00     0.167 C 
ENDROOT
BRANCH   1   2
HETATM    2  C   UNK N   1      29.421  17.660   7.784  0.00  0.00     0.018 A 
HETATM    3  C   UNK N   1      29.907  17.458   6.493  0.00  0.00     0.102 A 
HETATM    4  N   UNK N   1      29.219  17.921   5.416  0.00  0.00    -0.355 N 
HETATM    5  C   UNK N   1      28.048  18.589   5.568  0.00  0.00     0.078 A 
ATOM      6  HN  UNK N   1      29.590  17.764   4.478  1.00  0.00     0.166 HD
HETATM    7  C   UNK N   1      27.314  19.090   4.379  0.00  0.00     0.089 C 
HETATM    8  N   UNK N   1      27.543  18.802   6.808  0.00  0.00    -0.332 N 
HETATM    9  C   UNK N   1      28.187  18.362   7.917  0.00  0.00     0.109 A 
HETATM   10  H   UNK N   1      26.692  19.286   6.905  0.00  0.00     0.168 HD
BRANCH   9  11
HETATM   11  N   UNK N   1      27.662  18.592   9.060  0.00  0.00    -0.385 N 
HETATM   12  H   UNK N   1      27.593  19.517   9.393  0.00  0.00     0.157 HD
ATOM     13  HN  UNK N   1      27.315  17.819   9.628  1.00  0.00     0.157 HD
ENDBRANCH   9  11
ENDBRANCH   1   2
BRANCH   1  14
HETATM   14  N   UNK N   1      31.627  17.506   8.809  0.00  0.00    -0.351 N 
HETATM   15  C   UNK N   1      32.645  16.794   9.138  0.00  0.00     0.236 C 
ATOM     16  HN  UNK N   1      31.815  18.431   8.422  1.00  0.00     0.163 HD
BRANCH  15  17
HETATM   17  N   UNK N   1      33.953  17.348   8.945  0.00  0.00    -0.236 N 
BRANCH  17  18
HETATM   18  C   UNK N   1      34.281  17.843   7.618  0.00  0.00     0.169 C 
BRANCH  18  19
HETATM   19  C   UNK N   1      34.163  16.819   6.509  0.00  0.00     0.136 C 
HETATM   20 Cl   UNK N   1      33.302  17.594   5.158  0.00  0.00    -0.129 Cl
ENDBRANCH  18  19
ENDBRANCH  17  18
BRANCH  17  21
HETATM   21  N   UNK N   1      34.882  17.429   9.965  0.00  0.00    -0.205 N 
ATOM     22  HN  UNK N   1      35.666  18.075   9.875  1.00  0.00     0.216 HD
BRANCH  21  23
HETATM   23  O   UNK N   1      34.788  16.761  10.951  0.00  0.00    -0.274 OA
ATOM     24  HO  UNK N   1      34.569  17.145  11.793  1.00  0.00     0.246 HD
ENDBRANCH  21  23
ENDBRANCH  17  21
ENDBRANCH  15  17
BRANCH  15  25
HETATM   25  O   UNK N   1      32.476  15.558   9.656  0.00  0.00    -0.331 OA
HETATM   26  H   UNK N   1      31.900  14.948   9.238  0.00  0.00     0.221 HD
ENDBRANCH  15  25
ENDBRANCH   1  14
TORSDOF 9
ENDMDL
MODEL 7
REMARK VINA RESULT:      -5.3      1.786      2.032
REMARK  9 active torsions:
REMARK  status: ('A' for Active; 'I' for Inactive)
REMARK    1  A    between atoms: C_3  and  C_2 
REMARK    2  A    between atoms: N_20  and  C_3 
REMARK    3  A    between atoms: C_7  and  C_5 
REMARK    4  A    between atoms: N_15  and  C_5 
REMARK    5  A    between atoms: N_11  and  C_8 
REMARK    6  A    between atoms: N_20  and  C_9 
REMARK    7  A    between atoms: O_21  and  C_9 
REMARK    8  A    between atoms: N_20  and  N_18 
REMARK    9  A    between atoms: O_22  and  N_18 
ROOT
HETATM    1  C   UNK N   1      36.381  14.613  10.939  0.00  0.00     0.167 C 
ENDROOT
BRANCH   1   2
HETATM    2  C   UNK N   1      35.786  13.715  12.010  0.00  0.00     0.018 A 
HETATM    3  C   UNK N   1      34.984  12.656  11.587  0.00  0.00     0.102 A 
HETATM    4  N   UNK N   1      34.414  11.818  12.491  0.00  0.00    -0.355 N 
HETATM    5  C   UNK N   1      34.610  11.988  13.823  0.00  0.00     0.078 A 
ATOM      6  HN  UNK N   1      33.829  11.048  12.163  1.00  0.00     0.166 HD
HETATM    7  C   UNK N   1      33.975  11.062  14.796  0.00  0.00     0.089 C 
HETATM    8  N   UNK N   1      35.386  13.004  14.272  0.00  0.00    -0.332 N 
HETATM    9  C   UNK N   1      35.979  13.871  13.414  0.00  0.00     0.109 A 
HETATM   10  H   UNK N   1      35.521  13.116  15.241  0.00  0.00     0.168 HD
BRANCH   9  11
HETATM   11  N   UNK N   1      36.700  14.810  13.897  0.00  0.00    -0.385 N 
HETATM   12  H   UNK N   1      36.273  15.610  14.282  0.00  0.00     0.157 HD
ATOM     13  HN  UNK N   1      37.717  14.732  13.883  1.00  0.00     0.157 HD
ENDBRANCH   9  11
ENDBRANCH   1   2
BRANCH   1  14
HETATM   14  N   UNK N   1      35.364  15.108  10.054  0.00  0.00    -0.351 N 
HETATM   15  C   UNK N   1      34.789  16.254  10.132  0.00  0.00     0.236 C 
ATOM     16  HN  UNK N   1      35.073  14.494   9.294  1.00  0.00     0.163 HD
BRANCH  15  17
HETATM   17  N   UNK N   1      33.787  16.580   9.160  0.00  0.00    -0.236 N 
BRANCH  17  18
HETATM   18  C   UNK N   1      34.164  17.490   8.091  0.00  0.00     0.169 C 
BRANCH  18  19
HETATM   19  C   UNK N   1      34.236  16.862   6.715  0.00  0.00     0.136 C 
HETATM   20 Cl   UNK N   1      32.843  17.459   5.783  0.00  0.00    -0.129 Cl
ENDBRANCH  18  19
ENDBRANCH  17  18
BRANCH  17  21
HETATM   21  N   UNK N   1      32.510  16.055   9.207  0.00  0.00    -0.205 N 
ATOM     22  HN  UNK N   1      31.831  16.332   8.498  1.00  0.00     0.216 HD
BRANCH  21  23
HETATM   23  O   UNK N   1      32.181  15.283  10.058  0.00  0.00    -0.274 OA
ATOM     24  HO  UNK N   1      32.338  14.350   9.971  1.00  0.00     0.246 HD
ENDBRANCH  21  23
ENDBRANCH  17  21
ENDBRANCH  15  17
BRANCH  15  25
HETATM   25  O   UNK N   1      35.123  17.123  11.112  0.00  0.00    -0.331 OA
HETATM   26  H   UNK N   1      35.443  16.803  11.933  0.00  0.00     0.221 HD
ENDBRANCH  15  25
ENDBRANCH   1  14
TORSDOF 9
ENDMDL
MODEL 8
REMARK VINA RESULT:      -5.2     12.359     15.748
REMARK  9 active torsions:
REMARK  status: ('A' for Active; 'I' for Inactive)
REMARK    1  A    between atoms: C_3  and  C_2 
REMARK    2  A    between atoms: N_20  and  C_3 
REMARK    3  A    between atoms: C_7  and  C_5 
REMARK    4  A    between atoms: N_15  and  C_5 
REMARK    5  A    between atoms: N_11  and  C_8 
REMARK    6  A    between atoms: N_20  and  C_9 
REMARK    7  A    between atoms: O_21  and  C_9 
REMARK    8  A    between atoms: N_20  and  N_18 
REMARK    9  A    between atoms: O_22  and  N_18 
ROOT
HETATM    1  C   UNK N   1      21.132  19.293   3.861  0.00  0.00     0.167 C 
ENDROOT
BRANCH   1   2
HETATM    2  C   UNK N   1      20.598  18.423   2.736  0.00  0.00     0.018 A 
HETATM    3  C   UNK N   1      20.234  17.115   3.054  0.00  0.00     0.102 A 
HETATM    4  N   UNK N   1      19.756  16.279   2.096  0.00  0.00    -0.355 N 
HETATM    5  C   UNK N   1      19.619  16.694   0.811  0.00  0.00     0.078 A 
ATOM      6  HN  UNK N   1      19.495  15.325   2.346  1.00  0.00     0.166 HD
HETATM    7  C   UNK N   1      19.097  15.764  -0.222  0.00  0.00     0.089 C 
HETATM    8  N   UNK N   1      19.960  17.959   0.465  0.00  0.00    -0.332 N 
HETATM    9  C   UNK N   1      20.443  18.835   1.380  0.00  0.00     0.109 A 
HETATM   10  H   UNK N   1      19.855  18.248  -0.471  0.00  0.00     0.168 HD
BRANCH   9  11
HETATM   11  N   UNK N   1      20.747  20.016   0.994  0.00  0.00    -0.385 N 
HETATM   12  H   UNK N   1      21.608  20.181   0.545  0.00  0.00     0.157 HD
ATOM     13  HN  UNK N   1      20.098  20.788   1.152  1.00  0.00     0.157 HD
ENDBRANCH   9  11
ENDBRANCH   1   2
BRANCH   1  14
HETATM   14  N   UNK N   1      22.564  19.219   3.939  0.00  0.00    -0.351 N 
HETATM   15  C   UNK N   1      23.391  20.074   3.455  0.00  0.00     0.236 C 
ATOM     16  HN  UNK N   1      22.960  18.414   4.423  1.00  0.00     0.163 HD
BRANCH  15  17
HETATM   17  N   UNK N   1      24.794  19.834   3.625  0.00  0.00    -0.236 N 
BRANCH  17  18
HETATM   18  C   UNK N   1      25.228  19.273   4.894  0.00  0.00     0.169 C 
BRANCH  18  19
HETATM   19  C   UNK N   1      26.678  19.536   5.244  0.00  0.00     0.136 C 
HETATM   20 Cl   UNK N   1      26.788  21.213   5.832  0.00  0.00    -0.129 Cl
ENDBRANCH  18  19
ENDBRANCH  17  18
BRANCH  17  21
HETATM   21  N   UNK N   1      25.718  20.106   2.633  0.00  0.00    -0.205 N 
ATOM     22  HN  UNK N   1      26.324  19.357   2.299  1.00  0.00     0.216 HD
BRANCH  21  23
HETATM   23  O   UNK N   1      25.824  21.197   2.159  0.00  0.00    -0.274 OA
ATOM     24  HO  UNK N   1      26.674  21.571   1.958  1.00  0.00     0.246 HD
ENDBRANCH  21  23
ENDBRANCH  17  21
ENDBRANCH  15  17
BRANCH  15  25
HETATM   25  O   UNK N   1      22.941  21.168   2.801  0.00  0.00    -0.331 OA
HETATM   26  H   UNK N   1      23.155  22.024   3.117  0.00  0.00     0.221 HD
ENDBRANCH  15  25
ENDBRANCH   1  14
TORSDOF 9
ENDMDL
MODEL 9
REMARK VINA RESULT:      -5.1      4.294      8.162
REMARK  9 active torsions:
REMARK  status: ('A' for Active; 'I' for Inactive)
REMARK    1  A    between atoms: C_3  and  C_2 
REMARK    2  A    between atoms: N_20  and  C_3 
REMARK    3  A    between atoms: C_7  and  C_5 
REMARK    4  A    between atoms: N_15  and  C_5 
REMARK    5  A    between atoms: N_11  and  C_8 
REMARK    6  A    between atoms: N_20  and  C_9 
REMARK    7  A    between atoms: O_21  and  C_9 
REMARK    8  A    between atoms: N_20  and  N_18 
REMARK    9  A    between atoms: O_22  and  N_18 
ROOT
HETATM    1  C   UNK N   1      29.753  16.488   6.843  0.00  0.00     0.167 C 
ENDROOT
BRANCH   1   2
HETATM    2  C   UNK N   1      28.935  17.763   6.732  0.00  0.00     0.018 A 
HETATM    3  C   UNK N   1      28.811  18.338   5.468  0.00  0.00     0.102 A 
HETATM    4  N   UNK N   1      28.099  19.483   5.296  0.00  0.00    -0.355 N 
HETATM    5  C   UNK N   1      27.492  20.092   6.345  0.00  0.00     0.078 A 
ATOM      6  HN  UNK N   1      28.020  19.889   4.364  1.00  0.00     0.166 HD
HETATM    7  C   UNK N   1      26.722  21.344   6.138  0.00  0.00     0.089 C 
HETATM    8  N   UNK N   1      27.588  19.561   7.589  0.00  0.00    -0.332 N 
HETATM    9  C   UNK N   1      28.286  18.421   7.817  0.00  0.00     0.109 A 
HETATM   10  H   UNK N   1      27.142  20.013   8.341  0.00  0.00     0.168 HD
BRANCH   9  11
HETATM   11  N   UNK N   1      28.341  17.968   9.012  0.00  0.00    -0.385 N 
HETATM   12  H   UNK N   1      27.523  17.922   9.559  0.00  0.00     0.157 HD
ATOM     13  HN  UNK N   1      29.231  17.654   9.399  1.00  0.00     0.157 HD
ENDBRANCH   9  11
ENDBRANCH   1   2
BRANCH   1  14
HETATM   14  N   UNK N   1      31.136  16.780   7.098  0.00  0.00    -0.351 N 
HETATM   15  C   UNK N   1      31.709  16.775   8.248  0.00  0.00     0.236 C 
ATOM     16  HN  UNK N   1      31.716  17.012   6.292  1.00  0.00     0.163 HD
BRANCH  15  17
HETATM   17  N   UNK N   1      33.104  17.098   8.314  0.00  0.00    -0.236 N 
BRANCH  17  18
HETATM   18  C   UNK N   1      33.946  16.256   9.147  0.00  0.00     0.169 C 
BRANCH  18  19
HETATM   19  C   UNK N   1      35.062  16.984   9.866  0.00  0.00     0.136 C 
HETATM   20 Cl   UNK N   1      35.359  16.127  11.397  0.00  0.00    -0.129 Cl
ENDBRANCH  18  19
ENDBRANCH  17  18
BRANCH  17  21
HETATM   21  N   UNK N   1      33.654  18.155   7.615  0.00  0.00    -0.205 N 
ATOM     22  HN  UNK N   1      33.629  19.089   8.024  1.00  0.00     0.216 HD
BRANCH  21  23
HETATM   23  O   UNK N   1      34.159  18.001   6.543  0.00  0.00    -0.274 OA
ATOM     24  HO  UNK N   1      34.343  18.737   5.971  1.00  0.00     0.246 HD
ENDBRANCH  21  23
ENDBRANCH  17  21
ENDBRANCH  15  17
BRANCH  15  25
HETATM   25  O   UNK N   1      31.005  16.476   9.362  0.00  0.00    -0.331 OA
HETATM   26  H   UNK N   1      30.534  17.148   9.813  0.00  0.00     0.221 HD
ENDBRANCH  15  25
ENDBRANCH   1  14
TORSDOF 9
ENDMDL
