MODEL 1
REMARK VINA RESULT:      -8.2      0.000      0.000
REMARK  14 active torsions:
REMARK  status: ('A' for Active; 'I' for Inactive)
REMARK    1  A    between atoms: C_2  and  C_3 
REMARK    2  A    between atoms: C_3  and  C_4 
REMARK    3  A    between atoms: C_4  and  C_5 
REMARK    4  A    between atoms: C_5  and  C_6 
REMARK    5  A    between atoms: C_6  and  O_7 
REMARK    6  A    between atoms: O_7  and  C_8 
REMARK    7  A    between atoms: C_8  and  C_10 
REMARK    8  A    between atoms: C_14  and  C_18 
REMARK    9  A    between atoms: C_15  and  O_16 
REMARK   10  A    between atoms: C_21  and  N_24 
REMARK       I    between atoms: N_24  and  C_25 
REMARK   11  A    between atoms: C_25  and  C_27 
REMARK   12  A    between atoms: C_30  and  C_34 
REMARK   13  A    between atoms: C_35  and  C_37 
REMARK   14  A    between atoms: C_37  and  O_39 
ROOT
HETATM    1  C   UNK N   1      24.284  16.286   5.083  0.00  0.00     0.053 A 
HETATM    2  C   UNK N   1      24.426  15.711   3.807  0.00  0.00     0.083 A 
HETATM    3  S   UNK N   1      25.894  16.242   3.282  0.00  0.00    -0.063 SA
HETATM    4  C   UNK N   1      26.315  17.162   4.584  0.00  0.00     0.151 A 
HETATM    5  N   UNK N   1      25.314  17.102   5.483  0.00  0.00    -0.335 N 
ATOM      6  HN  UNK N   1      25.319  17.609   6.367  1.00  0.00     0.168 HD
ENDROOT
BRANCH   4   7
HETATM    7  N   UNK N   1      26.994  18.369   4.381  0.00  0.00    -0.303 N 
HETATM    8  C   UNK N   1      28.123  18.810   4.970  0.00  0.00     0.257 C 
HETATM    9  O   UNK N   1      28.600  19.853   4.572  0.00  0.00    -0.267 OA
HETATM   10  H   UNK N   1      26.592  18.978   3.719  0.00  0.00     0.171 HD
BRANCH   8  11
HETATM   11  C   UNK N   1      28.855  18.069   6.013  0.00  0.00     0.035 A 
HETATM   12  C   UNK N   1      29.796  17.148   5.561  0.00  0.00     0.042 A 
HETATM   13  C   UNK N   1      30.723  16.590   6.417  0.00  0.00     0.046 A 
HETATM   14  C   UNK N   1      30.778  17.011   7.754  0.00  0.00     0.008 A 
HETATM   15 Cl   UNK N   1      31.884  15.460   5.732  0.00  0.00    -0.083 Cl
HETATM   16  C   UNK N   1      29.806  17.914   8.241  0.00  0.00     0.046 A 
HETATM   17  C   UNK N   1      28.829  18.432   7.367  0.00  0.00     0.042 A 
HETATM   18 Cl   UNK N   1      29.857  18.481   9.905  0.00  0.00    -0.083 Cl
BRANCH  14  19
HETATM   19  C   UNK N   1      31.947  16.632   8.569  0.00  0.00     0.028 C 
HETATM   20  C   UNK N   1      33.159  17.190   8.571  0.00  0.00     0.012 C 
HETATM   21  C   UNK N   1      33.540  18.237   7.572  0.00  0.00     0.055 C 
BRANCH  20  22
HETATM   22  C   UNK N   1      34.112  16.763   9.620  0.00  0.00     0.171 C 
HETATM   23  O   UNK N   1      35.173  17.344   9.765  0.00  0.00    -0.646 OA
BRANCH  22  24
HETATM   24  O   UNK N   1      33.785  15.758  10.462  0.00  0.00    -0.773 OA
HETATM   25  H   UNK N   1      33.881  15.033  11.047  0.00  0.00     0.167 HD
ENDBRANCH  22  24
ENDBRANCH  20  22
ENDBRANCH  14  19
ENDBRANCH   8  11
ENDBRANCH   4   7
BRANCH   1  26
HETATM   26  C   UNK N   1      22.981  16.559   5.661  0.00  0.00     0.025 A 
HETATM   27  C   UNK N   1      22.451  17.828   5.422  0.00  0.00     0.016 A 
HETATM   28  C   UNK N   1      21.378  18.292   6.156  0.00  0.00     0.002 A 
HETATM   29  C   UNK N   1      20.825  17.486   7.135  0.00  0.00     0.012 A 
HETATM   30  C   UNK N   1      21.291  16.188   7.367  0.00  0.00     0.004 A 
HETATM   31  C   UNK N   1      22.410  15.700   6.621  0.00  0.00     0.089 A 
BRANCH  30  32
HETATM   32  C   UNK N   1      20.500  15.420   8.398  0.00  0.00     0.153 C 
HETATM   33  C   UNK N   1      19.243  16.125   8.881  0.00  0.00     0.045 C 
BRANCH  32  34
HETATM   34  O   UNK N   1      21.219  14.799   9.457  0.00  0.00    -0.382 OA
BRANCH  34  35
HETATM   35  C   UNK N   1      20.561  13.647   9.962  0.00  0.00     0.168 C 
BRANCH  35  36
HETATM   36  C   UNK N   1      21.435  12.621  10.720  0.00  0.00     0.026 C 
BRANCH  36  37
HETATM   37  C   UNK N   1      22.921  12.567  10.372  0.00  0.00     0.002 C 
BRANCH  37  38
HETATM   38  C   UNK N   1      23.700  11.896  11.477  0.00  0.00    -0.000 C 
BRANCH  38  39
HETATM   39  C   UNK N   1      22.826  11.754  12.700  0.00  0.00    -0.005 C 
HETATM   40  C   UNK N   1      23.578  12.268  13.904  0.00  0.00     0.005 C 
ENDBRANCH  38  39
ENDBRANCH  37  38
ENDBRANCH  36  37
ENDBRANCH  35  36
ENDBRANCH  34  35
ENDBRANCH  32  34
ENDBRANCH  30  32
BRANCH  31  41
HETATM   41  O   UNK N   1      22.966  14.462   6.768  0.00  0.00    -0.354 OA
HETATM   42  C   UNK N   1      24.088  14.135   7.491  0.00  0.00     0.210 C 
ENDBRANCH  31  41
ENDBRANCH   1  26
TORSDOF 14
ENDMDL
MODEL 2
REMARK VINA RESULT:      -7.7     14.565     17.264
REMARK  14 active torsions:
REMARK  status: ('A' for Active; 'I' for Inactive)
REMARK    1  A    between atoms: C_2  and  C_3 
REMARK    2  A    between atoms: C_3  and  C_4 
REMARK    3  A    between atoms: C_4  and  C_5 
REMARK    4  A    between atoms: C_5  and  C_6 
REMARK    5  A    between atoms: C_6  and  O_7 
REMARK    6  A    between atoms: O_7  and  C_8 
REMARK    7  A    between atoms: C_8  and  C_10 
REMARK    8  A    between atoms: C_14  and  C_18 
REMARK    9  A    between atoms: C_15  and  O_16 
REMARK   10  A    between atoms: C_21  and  N_24 
REMARK       I    between atoms: N_24  and  C_25 
REMARK   11  A    between atoms: C_25  and  C_27 
REMARK   12  A    between atoms: C_30  and  C_34 
REMARK   13  A    between atoms: C_35  and  C_37 
REMARK   14  A    between atoms: C_37  and  O_39 
ROOT
HETATM    1  C   UNK N   1      28.889  26.600  -7.636  0.00  0.00     0.053 A 
HETATM    2  C   UNK N   1      29.288  26.014  -8.852  0.00  0.00     0.083 A 
HETATM    3  S   UNK N   1      27.952  25.202  -9.371  0.00  0.00    -0.063 SA
HETATM    4  C   UNK N   1      26.937  25.554  -8.121  0.00  0.00     0.151 A 
HETATM    5  N   UNK N   1      27.608  26.315  -7.234  0.00  0.00    -0.335 N 
ATOM      6  HN  UNK N   1      27.206  26.645  -6.357  1.00  0.00     0.168 HD
ENDROOT
BRANCH   4   7
HETATM    7  N   UNK N   1      26.048  24.576  -7.661  0.00  0.00    -0.303 N 
HETATM    8  C   UNK N   1      26.306  23.489  -6.905  0.00  0.00     0.257 C 
HETATM    9  O   UNK N   1      25.364  22.820  -6.533  0.00  0.00    -0.267 OA
HETATM   10  H   UNK N   1      25.107  24.697  -7.925  0.00  0.00     0.171 HD
BRANCH   8  11
HETATM   11  C   UNK N   1      27.652  23.109  -6.440  0.00  0.00     0.035 A 
HETATM   12  C   UNK N   1      28.054  23.654  -5.224  0.00  0.00     0.042 A 
HETATM   13  C   UNK N   1      29.163  23.177  -4.554  0.00  0.00     0.046 A 
HETATM   14  C   UNK N   1      29.859  22.069  -5.062  0.00  0.00     0.008 A 
HETATM   15 Cl   UNK N   1      29.563  23.919  -3.012  0.00  0.00    -0.083 Cl
HETATM   16  C   UNK N   1      29.490  21.528  -6.315  0.00  0.00     0.046 A 
HETATM   17  C   UNK N   1      28.390  22.064  -7.014  0.00  0.00     0.042 A 
HETATM   18 Cl   UNK N   1      30.326  20.127  -6.972  0.00  0.00    -0.083 Cl
BRANCH  14  19
HETATM   19  C   UNK N   1      30.845  21.395  -4.198  0.00  0.00     0.028 C 
HETATM   20  C   UNK N   1      32.161  21.609  -4.136  0.00  0.00     0.012 C 
HETATM   21  C   UNK N   1      32.853  22.512  -5.106  0.00  0.00     0.055 C 
BRANCH  20  22
HETATM   22  C   UNK N   1      32.915  20.946  -3.048  0.00  0.00     0.171 C 
HETATM   23  O   UNK N   1      32.842  21.359  -1.904  0.00  0.00    -0.646 OA
BRANCH  22  24
HETATM   24  O   UNK N   1      33.648  19.842  -3.310  0.00  0.00    -0.773 OA
HETATM   25  H   UNK N   1      34.388  19.302  -3.507  0.00  0.00     0.167 HD
ENDBRANCH  22  24
ENDBRANCH  20  22
ENDBRANCH  14  19
ENDBRANCH   8  11
ENDBRANCH   4   7
BRANCH   1  26
HETATM   26  C   UNK N   1      29.842  26.915  -6.587  0.00  0.00     0.025 A 
HETATM   27  C   UNK N   1      30.828  25.959  -6.339  0.00  0.00     0.016 A 
HETATM   28  C   UNK N   1      31.590  26.015  -5.190  0.00  0.00     0.002 A 
HETATM   29  C   UNK N   1      31.369  27.032  -4.279  0.00  0.00     0.012 A 
HETATM   30  C   UNK N   1      30.428  28.040  -4.515  0.00  0.00     0.004 A 
HETATM   31  C   UNK N   1      29.625  27.987  -5.698  0.00  0.00     0.089 A 
BRANCH  30  32
HETATM   32  C   UNK N   1      30.400  29.122  -3.464  0.00  0.00     0.153 C 
HETATM   33  C   UNK N   1      31.770  29.544  -2.957  0.00  0.00     0.045 C 
BRANCH  32  34
HETATM   34  O   UNK N   1      29.443  29.005  -2.418  0.00  0.00    -0.382 OA
BRANCH  34  35
HETATM   35  C   UNK N   1      28.265  29.756  -2.668  0.00  0.00     0.168 C 
BRANCH  35  36
HETATM   36  C   UNK N   1      26.989  28.957  -3.018  0.00  0.00     0.026 C 
BRANCH  36  37
HETATM   37  C   UNK N   1      27.058  27.435  -2.908  0.00  0.00     0.002 C 
BRANCH  37  38
HETATM   38  C   UNK N   1      26.252  26.787  -4.007  0.00  0.00    -0.000 C 
BRANCH  38  39
HETATM   39  C   UNK N   1      25.456  27.841  -4.741  0.00  0.00    -0.005 C 
HETATM   40  C   UNK N   1      24.524  27.162  -5.716  0.00  0.00     0.005 C 
ENDBRANCH  38  39
ENDBRANCH  37  38
ENDBRANCH  36  37
ENDBRANCH  35  36
ENDBRANCH  34  35
ENDBRANCH  32  34
ENDBRANCH  30  32
BRANCH  31  41
HETATM   41  O   UNK N   1      28.665  28.898  -6.032  0.00  0.00    -0.354 OA
HETATM   42  C   UNK N   1      28.858  30.170  -6.514  0.00  0.00     0.210 C 
ENDBRANCH  31  41
ENDBRANCH   1  26
TORSDOF 14
ENDMDL
MODEL 3
REMARK VINA RESULT:      -7.7      2.167      3.814
REMARK  14 active torsions:
REMARK  status: ('A' for Active; 'I' for Inactive)
REMARK    1  A    between atoms: C_2  and  C_3 
REMARK    2  A    between atoms: C_3  and  C_4 
REMARK    3  A    between atoms: C_4  and  C_5 
REMARK    4  A    between atoms: C_5  and  C_6 
REMARK    5  A    between atoms: C_6  and  O_7 
REMARK    6  A    between atoms: O_7  and  C_8 
REMARK    7  A    between atoms: C_8  and  C_10 
REMARK    8  A    between atoms: C_14  and  C_18 
REMARK    9  A    between atoms: C_15  and  O_16 
REMARK   10  A    between atoms: C_21  and  N_24 
REMARK       I    between atoms: N_24  and  C_25 
REMARK   11  A    between atoms: C_25  and  C_27 
REMARK   12  A    between atoms: C_30  and  C_34 
REMARK   13  A    between atoms: C_35  and  C_37 
REMARK   14  A    between atoms: C_37  and  O_39 
ROOT
HETATM    1  C   UNK N   1      24.422  15.573   5.623  0.00  0.00     0.053 A 
HETATM    2  C   UNK N   1      24.381  15.219   4.262  0.00  0.00     0.083 A 
HETATM    3  S   UNK N   1      25.425  16.266   3.536  0.00  0.00    -0.063 SA
HETATM    4  C   UNK N   1      25.886  17.129   4.863  0.00  0.00     0.151 A 
HETATM    5  N   UNK N   1      25.229  16.640   5.933  0.00  0.00    -0.335 N 
ATOM      6  HN  UNK N   1      25.321  17.021   6.873  1.00  0.00     0.168 HD
ENDROOT
BRANCH   4   7
HETATM    7  N   UNK N   1      26.092  18.508   4.748  0.00  0.00    -0.303 N 
HETATM    8  C   UNK N   1      27.171  19.233   5.109  0.00  0.00     0.257 C 
HETATM    9  O   UNK N   1      27.181  20.414   4.826  0.00  0.00    -0.267 OA
HETATM   10  H   UNK N   1      25.350  19.018   4.349  0.00  0.00     0.171 HD
BRANCH   8  11
HETATM   11  C   UNK N   1      28.367  18.666   5.756  0.00  0.00     0.035 A 
HETATM   12  C   UNK N   1      28.317  18.557   7.143  0.00  0.00     0.042 A 
HETATM   13  C   UNK N   1      29.246  17.809   7.839  0.00  0.00     0.046 A 
HETATM   14  C   UNK N   1      30.216  17.077   7.138  0.00  0.00     0.008 A 
HETATM   15 Cl   UNK N   1      29.070  17.716   9.586  0.00  0.00    -0.083 Cl
HETATM   16  C   UNK N   1      30.307  17.208   5.733  0.00  0.00     0.046 A 
HETATM   17  C   UNK N   1      29.387  18.021   5.042  0.00  0.00     0.042 A 
HETATM   18 Cl   UNK N   1      31.496  16.288   4.819  0.00  0.00    -0.083 Cl
BRANCH  14  19
HETATM   19  C   UNK N   1      31.002  16.064   7.865  0.00  0.00     0.028 C 
HETATM   20  C   UNK N   1      32.137  16.240   8.544  0.00  0.00     0.012 C 
HETATM   21  C   UNK N   1      32.869  17.545   8.517  0.00  0.00     0.055 C 
BRANCH  20  22
HETATM   22  C   UNK N   1      32.636  15.108   9.357  0.00  0.00     0.171 C 
HETATM   23  O   UNK N   1      33.153  14.143   8.822  0.00  0.00    -0.646 OA
BRANCH  22  24
HETATM   24  O   UNK N   1      32.571  15.164  10.705  0.00  0.00    -0.773 OA
HETATM   25  H   UNK N   1      32.482  14.885  11.595  0.00  0.00     0.167 HD
ENDBRANCH  22  24
ENDBRANCH  20  22
ENDBRANCH  14  19
ENDBRANCH   8  11
ENDBRANCH   4   7
BRANCH   1  26
HETATM   26  C   UNK N   1      23.303  15.327   6.514  0.00  0.00     0.025 A 
HETATM   27  C   UNK N   1      23.279  14.084   7.149  0.00  0.00     0.016 A 
HETATM   28  C   UNK N   1      22.133  13.635   7.773  0.00  0.00     0.002 A 
HETATM   29  C   UNK N   1      21.001  14.430   7.767  0.00  0.00     0.012 A 
HETATM   30  C   UNK N   1      21.000  15.704   7.190  0.00  0.00     0.004 A 
HETATM   31  C   UNK N   1      22.178  16.176   6.530  0.00  0.00     0.089 A 
BRANCH  30  32
HETATM   32  C   UNK N   1      19.711  16.467   7.371  0.00  0.00     0.153 C 
HETATM   33  C   UNK N   1      19.403  16.851   8.810  0.00  0.00     0.045 C 
BRANCH  32  34
HETATM   34  O   UNK N   1      18.563  16.003   6.672  0.00  0.00    -0.382 OA
BRANCH  34  35
HETATM   35  C   UNK N   1      18.772  15.919   5.271  0.00  0.00     0.168 C 
BRANCH  35  36
HETATM   36  C   UNK N   1      18.992  14.506   4.682  0.00  0.00     0.026 C 
BRANCH  36  37
HETATM   37  C   UNK N   1      20.290  14.257   3.915  0.00  0.00     0.002 C 
BRANCH  37  38
HETATM   38  C   UNK N   1      20.789  12.854   4.160  0.00  0.00    -0.000 C 
BRANCH  38  39
HETATM   39  C   UNK N   1      19.863  12.147   5.122  0.00  0.00    -0.005 C 
HETATM   40  C   UNK N   1      20.591  10.974   5.733  0.00  0.00     0.005 C 
ENDBRANCH  38  39
ENDBRANCH  37  38
ENDBRANCH  36  37
ENDBRANCH  35  36
ENDBRANCH  34  35
ENDBRANCH  32  34
ENDBRANCH  30  32
BRANCH  31  41
HETATM   41  O   UNK N   1      22.297  17.389   5.916  0.00  0.00    -0.354 OA
HETATM   42  C   UNK N   1      21.801  17.751   4.687  0.00  0.00     0.210 C 
ENDBRANCH  31  41
ENDBRANCH   1  26
TORSDOF 14
ENDMDL
MODEL 4
REMARK VINA RESULT:      -7.6      1.999      4.647
REMARK  14 active torsions:
REMARK  status: ('A' for Active; 'I' for Inactive)
REMARK    1  A    between atoms: C_2  and  C_3 
REMARK    2  A    between atoms: C_3  and  C_4 
REMARK    3  A    between atoms: C_4  and  C_5 
REMARK    4  A    between atoms: C_5  and  C_6 
REMARK    5  A    between atoms: C_6  and  O_7 
REMARK    6  A    between atoms: O_7  and  C_8 
REMARK    7  A    between atoms: C_8  and  C_10 
REMARK    8  A    between atoms: C_14  and  C_18 
REMARK    9  A    between atoms: C_15  and  O_16 
REMARK   10  A    between atoms: C_21  and  N_24 
REMARK       I    between atoms: N_24  and  C_25 
REMARK   11  A    between atoms: C_25  and  C_27 
REMARK   12  A    between atoms: C_30  and  C_34 
REMARK   13  A    between atoms: C_35  and  C_37 
REMARK   14  A    between atoms: C_37  and  O_39 
ROOT
HETATM    1  C   UNK N   1      25.542  13.822   6.819  0.00  0.00     0.053 A 
HETATM    2  C   UNK N   1      25.745  12.801   5.873  0.00  0.00     0.083 A 
HETATM    3  S   UNK N   1      26.857  13.426   4.831  0.00  0.00    -0.063 SA
HETATM    4  C   UNK N   1      27.054  14.908   5.526  0.00  0.00     0.151 A 
HETATM    5  N   UNK N   1      26.244  14.981   6.599  0.00  0.00    -0.335 N 
ATOM      6  HN  UNK N   1      26.161  15.810   7.187  1.00  0.00     0.168 HD
ENDROOT
BRANCH   4   7
HETATM    7  N   UNK N   1      27.225  16.032   4.709  0.00  0.00    -0.303 N 
HETATM    8  C   UNK N   1      28.212  16.951   4.735  0.00  0.00     0.257 C 
HETATM    9  O   UNK N   1      28.222  17.798   3.865  0.00  0.00    -0.267 OA
HETATM   10  H   UNK N   1      26.532  16.170   4.023  0.00  0.00     0.171 HD
BRANCH   8  11
HETATM   11  C   UNK N   1      29.319  16.947   5.708  0.00  0.00     0.035 A 
HETATM   12  C   UNK N   1      30.594  16.769   5.180  0.00  0.00     0.042 A 
HETATM   13  C   UNK N   1      31.724  17.008   5.936  0.00  0.00     0.046 A 
HETATM   14  C   UNK N   1      31.596  17.516   7.238  0.00  0.00     0.008 A 
HETATM   15 Cl   UNK N   1      33.285  16.781   5.159  0.00  0.00    -0.083 Cl
HETATM   16  C   UNK N   1      30.309  17.664   7.805  0.00  0.00     0.046 A 
HETATM   17  C   UNK N   1      29.166  17.361   7.039  0.00  0.00     0.042 A 
HETATM   18 Cl   UNK N   1      30.110  18.318   9.426  0.00  0.00    -0.083 Cl
BRANCH  14  19
HETATM   19  C   UNK N   1      32.796  18.039   7.916  0.00  0.00     0.028 C 
HETATM   20  C   UNK N   1      33.681  17.364   8.652  0.00  0.00     0.012 C 
HETATM   21  C   UNK N   1      33.459  15.931   9.022  0.00  0.00     0.055 C 
BRANCH  20  22
HETATM   22  C   UNK N   1      34.913  18.071   9.067  0.00  0.00     0.171 C 
HETATM   23  O   UNK N   1      35.267  19.086   8.494  0.00  0.00    -0.646 OA
BRANCH  22  24
HETATM   24  O   UNK N   1      35.625  17.623  10.124  0.00  0.00    -0.773 OA
HETATM   25  H   UNK N   1      36.207  17.095  10.634  0.00  0.00     0.167 HD
ENDBRANCH  22  24
ENDBRANCH  20  22
ENDBRANCH  14  19
ENDBRANCH   8  11
ENDBRANCH   4   7
BRANCH   1  26
HETATM   26  C   UNK N   1      24.298  13.949   7.556  0.00  0.00     0.025 A 
HETATM   27  C   UNK N   1      24.097  13.036   8.593  0.00  0.00     0.016 A 
HETATM   28  C   UNK N   1      22.847  12.875   9.156  0.00  0.00     0.002 A 
HETATM   29  C   UNK N   1      21.788  13.629   8.684  0.00  0.00     0.012 A 
HETATM   30  C   UNK N   1      21.958  14.592   7.685  0.00  0.00     0.004 A 
HETATM   31  C   UNK N   1      23.246  14.761   7.086  0.00  0.00     0.089 A 
BRANCH  30  32
HETATM   32  C   UNK N   1      20.716  15.390   7.373  0.00  0.00     0.153 C 
HETATM   33  C   UNK N   1      20.165  16.184   8.547  0.00  0.00     0.045 C 
BRANCH  32  34
HETATM   34  O   UNK N   1      19.693  14.754   6.616  0.00  0.00    -0.382 OA
BRANCH  34  35
HETATM   35  C   UNK N   1      19.848  14.947   5.219  0.00  0.00     0.168 C 
BRANCH  35  36
HETATM   36  C   UNK N   1      19.362  16.297   4.642  0.00  0.00     0.026 C 
BRANCH  36  37
HETATM   37  C   UNK N   1      20.208  16.940   3.545  0.00  0.00     0.002 C 
BRANCH  37  38
HETATM   38  C   UNK N   1      19.523  18.169   2.999  0.00  0.00    -0.000 C 
BRANCH  38  39
HETATM   39  C   UNK N   1      20.559  19.137   2.476  0.00  0.00    -0.005 C 
HETATM   40  C   UNK N   1      21.782  19.072   3.359  0.00  0.00     0.005 C 
ENDBRANCH  38  39
ENDBRANCH  37  38
ENDBRANCH  36  37
ENDBRANCH  35  36
ENDBRANCH  34  35
ENDBRANCH  32  34
ENDBRANCH  30  32
BRANCH  31  41
HETATM   41  O   UNK N   1      23.535  15.653   6.094  0.00  0.00    -0.354 OA
HETATM   42  C   UNK N   1      23.340  15.486   4.744  0.00  0.00     0.210 C 
ENDBRANCH  31  41
ENDBRANCH   1  26
TORSDOF 14
ENDMDL
MODEL 5
REMARK VINA RESULT:      -7.5      1.817      3.734
REMARK  14 active torsions:
REMARK  status: ('A' for Active; 'I' for Inactive)
REMARK    1  A    between atoms: C_2  and  C_3 
REMARK    2  A    between atoms: C_3  and  C_4 
REMARK    3  A    between atoms: C_4  and  C_5 
REMARK    4  A    between atoms: C_5  and  C_6 
REMARK    5  A    between atoms: C_6  and  O_7 
REMARK    6  A    between atoms: O_7  and  C_8 
REMARK    7  A    between atoms: C_8  and  C_10 
REMARK    8  A    between atoms: C_14  and  C_18 
REMARK    9  A    between atoms: C_15  and  O_16 
REMARK   10  A    between atoms: C_21  and  N_24 
REMARK       I    between atoms: N_24  and  C_25 
REMARK   11  A    between atoms: C_25  and  C_27 
REMARK   12  A    between atoms: C_30  and  C_34 
REMARK   13  A    between atoms: C_35  and  C_37 
REMARK   14  A    between atoms: C_37  and  O_39 
ROOT
HETATM    1  C   UNK N   1      24.893  13.575   5.470  0.00  0.00     0.053 A 
HETATM    2  C   UNK N   1      25.381  13.085   4.244  0.00  0.00     0.083 A 
HETATM    3  S   UNK N   1      26.409  14.258   3.716  0.00  0.00    -0.063 SA
HETATM    4  C   UNK N   1      26.231  15.332   4.955  0.00  0.00     0.151 A 
HETATM    5  N   UNK N   1      25.346  14.820   5.831  0.00  0.00    -0.335 N 
ATOM      6  HN  UNK N   1      25.043  15.306   6.675  1.00  0.00     0.168 HD
ENDROOT
BRANCH   4   7
HETATM    7  N   UNK N   1      26.219  16.704   4.678  0.00  0.00    -0.303 N 
HETATM    8  C   UNK N   1      27.089  17.652   5.079  0.00  0.00     0.257 C 
HETATM    9  O   UNK N   1      26.947  18.775   4.639  0.00  0.00    -0.267 OA
HETATM   10  H   UNK N   1      25.475  17.018   4.115  0.00  0.00     0.171 HD
BRANCH   8  11
HETATM   11  C   UNK N   1      28.245  17.395   5.956  0.00  0.00     0.035 A 
HETATM   12  C   UNK N   1      29.453  17.136   5.314  0.00  0.00     0.042 A 
HETATM   13  C   UNK N   1      30.649  17.143   6.003  0.00  0.00     0.046 A 
HETATM   14  C   UNK N   1      30.667  17.494   7.362  0.00  0.00     0.008 A 
HETATM   15 Cl   UNK N   1      32.117  16.833   5.086  0.00  0.00    -0.083 Cl
HETATM   16  C   UNK N   1      29.448  17.720   8.040  0.00  0.00     0.046 A 
HETATM   17  C   UNK N   1      28.230  17.653   7.334  0.00  0.00     0.042 A 
HETATM   18 Cl   UNK N   1      29.434  18.184   9.736  0.00  0.00    -0.083 Cl
BRANCH  14  19
HETATM   19  C   UNK N   1      31.964  17.783   8.002  0.00  0.00     0.028 C 
HETATM   20  C   UNK N   1      32.771  16.931   8.636  0.00  0.00     0.012 C 
HETATM   21  C   UNK N   1      32.355  15.522   8.920  0.00  0.00     0.055 C 
BRANCH  20  22
HETATM   22  C   UNK N   1      34.115  17.416   9.025  0.00  0.00     0.171 C 
HETATM   23  O   UNK N   1      34.733  18.173   8.298  0.00  0.00    -0.646 OA
BRANCH  22  24
HETATM   24  O   UNK N   1      34.641  17.064  10.219  0.00  0.00    -0.773 OA
HETATM   25  H   UNK N   1      34.962  17.138  11.096  0.00  0.00     0.167 HD
ENDBRANCH  22  24
ENDBRANCH  20  22
ENDBRANCH  14  19
ENDBRANCH   8  11
ENDBRANCH   4   7
BRANCH   1  26
HETATM   26  C   UNK N   1      23.599  13.179   5.994  0.00  0.00     0.025 A 
HETATM   27  C   UNK N   1      22.684  12.675   5.069  0.00  0.00     0.016 A 
HETATM   28  C   UNK N   1      21.349  12.549   5.396  0.00  0.00     0.002 A 
HETATM   29  C   UNK N   1      20.921  12.927   6.655  0.00  0.00     0.012 A 
HETATM   30  C   UNK N   1      21.814  13.385   7.629  0.00  0.00     0.004 A 
HETATM   31  C   UNK N   1      23.198  13.530   7.299  0.00  0.00     0.089 A 
BRANCH  30  32
HETATM   32  C   UNK N   1      21.183  13.649   8.974  0.00  0.00     0.153 C 
HETATM   33  C   UNK N   1      21.382  12.538   9.993  0.00  0.00     0.045 C 
BRANCH  32  34
HETATM   34  O   UNK N   1      19.864  14.180   8.995  0.00  0.00    -0.382 OA
BRANCH  34  35
HETATM   35  C   UNK N   1      19.844  15.595   9.100  0.00  0.00     0.168 C 
BRANCH  35  36
HETATM   36  C   UNK N   1      19.627  16.388   7.791  0.00  0.00     0.026 C 
BRANCH  36  37
HETATM   37  C   UNK N   1      20.864  16.952   7.095  0.00  0.00     0.002 C 
BRANCH  37  38
HETATM   38  C   UNK N   1      20.946  16.453   5.673  0.00  0.00    -0.000 C 
BRANCH  38  39
HETATM   39  C   UNK N   1      19.568  16.068   5.190  0.00  0.00    -0.005 C 
HETATM   40  C   UNK N   1      19.678  15.482   3.803  0.00  0.00     0.005 C 
ENDBRANCH  38  39
ENDBRANCH  37  38
ENDBRANCH  36  37
ENDBRANCH  35  36
ENDBRANCH  34  35
ENDBRANCH  32  34
ENDBRANCH  30  32
BRANCH  31  41
HETATM   41  O   UNK N   1      24.162  13.982   8.153  0.00  0.00    -0.354 OA
HETATM   42  C   UNK N   1      24.839  13.255   9.102  0.00  0.00     0.210 C 
ENDBRANCH  31  41
ENDBRANCH   1  26
TORSDOF 14
ENDMDL
MODEL 6
REMARK VINA RESULT:      -7.5      8.101     12.951
REMARK  14 active torsions:
REMARK  status: ('A' for Active; 'I' for Inactive)
REMARK    1  A    between atoms: C_2  and  C_3 
REMARK    2  A    between atoms: C_3  and  C_4 
REMARK    3  A    between atoms: C_4  and  C_5 
REMARK    4  A    between atoms: C_5  and  C_6 
REMARK    5  A    between atoms: C_6  and  O_7 
REMARK    6  A    between atoms: O_7  and  C_8 
REMARK    7  A    between atoms: C_8  and  C_10 
REMARK    8  A    between atoms: C_14  and  C_18 
REMARK    9  A    between atoms: C_15  and  O_16 
REMARK   10  A    between atoms: C_21  and  N_24 
REMARK       I    between atoms: N_24  and  C_25 
REMARK   11  A    between atoms: C_25  and  C_27 
REMARK   12  A    between atoms: C_30  and  C_34 
REMARK   13  A    between atoms: C_35  and  C_37 
REMARK   14  A    between atoms: C_37  and  O_39 
ROOT
HETATM    1  C   UNK N   1      35.291  13.215  10.543  0.00  0.00     0.053 A 
HETATM    2  C   UNK N   1      36.530  12.614  10.251  0.00  0.00     0.083 A 
HETATM    3  S   UNK N   1      37.378  12.722  11.659  0.00  0.00    -0.063 SA
HETATM    4  C   UNK N   1      36.251  13.501  12.577  0.00  0.00     0.151 A 
HETATM    5  N   UNK N   1      35.164  13.721  11.813  0.00  0.00    -0.335 N 
ATOM      6  HN  UNK N   1      34.334  14.213  12.142  1.00  0.00     0.168 HD
ENDROOT
BRANCH   4   7
HETATM    7  N   UNK N   1      36.665  14.476  13.492  0.00  0.00    -0.303 N 
HETATM    8  C   UNK N   1      36.820  14.369  14.827  0.00  0.00     0.257 C 
HETATM    9  O   UNK N   1      37.289  15.318  15.421  0.00  0.00    -0.267 OA
HETATM   10  H   UNK N   1      36.870  15.360  13.108  0.00  0.00     0.171 HD
BRANCH   8  11
HETATM   11  C   UNK N   1      36.529  13.147  15.596  0.00  0.00     0.035 A 
HETATM   12  C   UNK N   1      36.026  13.338  16.880  0.00  0.00     0.042 A 
HETATM   13  C   UNK N   1      35.469  12.298  17.596  0.00  0.00     0.046 A 
HETATM   14  C   UNK N   1      35.330  11.037  16.997  0.00  0.00     0.008 A 
HETATM   15 Cl   UNK N   1      34.838  12.660  19.197  0.00  0.00    -0.083 Cl
HETATM   16  C   UNK N   1      35.871  10.812  15.710  0.00  0.00     0.046 A 
HETATM   17  C   UNK N   1      36.488  11.871  15.015  0.00  0.00     0.042 A 
HETATM   18 Cl   UNK N   1      35.696   9.251  14.920  0.00  0.00    -0.083 Cl
BRANCH  14  19
HETATM   19  C   UNK N   1      34.477  10.030  17.655  0.00  0.00     0.028 C 
HETATM   20  C   UNK N   1      34.814   9.181  18.628  0.00  0.00     0.012 C 
HETATM   21  C   UNK N   1      36.231   9.042  19.089  0.00  0.00     0.055 C 
BRANCH  20  22
HETATM   22  C   UNK N   1      33.731   8.398  19.264  0.00  0.00     0.171 C 
HETATM   23  O   UNK N   1      32.919   8.944  19.991  0.00  0.00    -0.646 OA
BRANCH  22  24
HETATM   24  O   UNK N   1      33.604   7.080  18.998  0.00  0.00    -0.773 OA
HETATM   25  H   UNK N   1      33.494   6.286  18.514  0.00  0.00     0.167 HD
ENDBRANCH  22  24
ENDBRANCH  20  22
ENDBRANCH  14  19
ENDBRANCH   8  11
ENDBRANCH   4   7
BRANCH   1  26
HETATM   26  C   UNK N   1      34.478  13.835   9.514  0.00  0.00     0.025 A 
HETATM   27  C   UNK N   1      33.573  13.002   8.854  0.00  0.00     0.016 A 
HETATM   28  C   UNK N   1      32.972  13.406   7.679  0.00  0.00     0.002 A 
HETATM   29  C   UNK N   1      33.273  14.651   7.156  0.00  0.00     0.012 A 
HETATM   30  C   UNK N   1      34.131  15.537   7.815  0.00  0.00     0.004 A 
HETATM   31  C   UNK N   1      34.769  15.126   9.028  0.00  0.00     0.089 A 
BRANCH  30  32
HETATM   32  C   UNK N   1      34.258  16.887   7.152  0.00  0.00     0.153 C 
HETATM   33  C   UNK N   1      33.319  17.950   7.701  0.00  0.00     0.045 C 
BRANCH  32  34
HETATM   34  O   UNK N   1      34.352  16.922   5.733  0.00  0.00    -0.382 OA
BRANCH  34  35
HETATM   35  C   UNK N   1      33.318  17.688   5.135  0.00  0.00     0.168 C 
BRANCH  35  36
HETATM   36  C   UNK N   1      32.577  17.045   3.940  0.00  0.00     0.026 C 
BRANCH  36  37
HETATM   37  C   UNK N   1      31.113  16.660   4.144  0.00  0.00     0.002 C 
BRANCH  37  38
HETATM   38  C   UNK N   1      30.599  17.204   5.454  0.00  0.00    -0.000 C 
BRANCH  38  39
HETATM   39  C   UNK N   1      29.971  16.087   6.255  0.00  0.00    -0.005 C 
HETATM   40  C   UNK N   1      29.978  14.824   5.427  0.00  0.00     0.005 C 
ENDBRANCH  38  39
ENDBRANCH  37  38
ENDBRANCH  36  37
ENDBRANCH  35  36
ENDBRANCH  34  35
ENDBRANCH  32  34
ENDBRANCH  30  32
BRANCH  31  41
HETATM   41  O   UNK N   1      35.637  15.890   9.752  0.00  0.00    -0.354 OA
HETATM   42  C   UNK N   1      35.324  16.912  10.615  0.00  0.00     0.210 C 
ENDBRANCH  31  41
ENDBRANCH   1  26
TORSDOF 14
ENDMDL
MODEL 7
REMARK VINA RESULT:      -7.4      4.147      9.256
REMARK  14 active torsions:
REMARK  status: ('A' for Active; 'I' for Inactive)
REMARK    1  A    between atoms: C_2  and  C_3 
REMARK    2  A    between atoms: C_3  and  C_4 
REMARK    3  A    between atoms: C_4  and  C_5 
REMARK    4  A    between atoms: C_5  and  C_6 
REMARK    5  A    between atoms: C_6  and  O_7 
REMARK    6  A    between atoms: O_7  and  C_8 
REMARK    7  A    between atoms: C_8  and  C_10 
REMARK    8  A    between atoms: C_14  and  C_18 
REMARK    9  A    between atoms: C_15  and  O_16 
REMARK   10  A    between atoms: C_21  and  N_24 
REMARK       I    between atoms: N_24  and  C_25 
REMARK   11  A    between atoms: C_25  and  C_27 
REMARK   12  A    between atoms: C_30  and  C_34 
REMARK   13  A    between atoms: C_35  and  C_37 
REMARK   14  A    between atoms: C_37  and  O_39 
ROOT
HETATM    1  C   UNK N   1      26.572  13.752   3.393  0.00  0.00     0.053 A 
HETATM    2  C   UNK N   1      26.461  12.354   3.272  0.00  0.00     0.083 A 
HETATM    3  S   UNK N   1      25.600  12.132   1.885  0.00  0.00    -0.063 SA
HETATM    4  C   UNK N   1      25.366  13.712   1.474  0.00  0.00     0.151 A 
HETATM    5  N   UNK N   1      25.943  14.483   2.416  0.00  0.00    -0.335 N 
ATOM      6  HN  UNK N   1      25.915  15.502   2.405  1.00  0.00     0.168 HD
ENDROOT
BRANCH   4   7
HETATM    7  N   UNK N   1      24.144  14.101   0.912  0.00  0.00    -0.303 N 
HETATM    8  C   UNK N   1      23.048  14.585   1.530  0.00  0.00     0.257 C 
HETATM    9  O   UNK N   1      22.124  14.957   0.836  0.00  0.00    -0.267 OA
HETATM   10  H   UNK N   1      24.077  14.009  -0.067  0.00  0.00     0.171 HD
BRANCH   8  11
HETATM   11  C   UNK N   1      22.932  14.762   2.988  0.00  0.00     0.035 A 
HETATM   12  C   UNK N   1      23.075  16.064   3.459  0.00  0.00     0.042 A 
HETATM   13  C   UNK N   1      22.730  16.403   4.751  0.00  0.00     0.046 A 
HETATM   14  C   UNK N   1      22.148  15.441   5.591  0.00  0.00     0.008 A 
HETATM   15 Cl   UNK N   1      22.924  18.084   5.230  0.00  0.00    -0.083 Cl
HETATM   16  C   UNK N   1      22.032  14.104   5.145  0.00  0.00     0.046 A 
HETATM   17  C   UNK N   1      22.444  13.762   3.841  0.00  0.00     0.042 A 
HETATM   18 Cl   UNK N   1      21.288  12.877   6.161  0.00  0.00    -0.083 Cl
BRANCH  14  19
HETATM   19  C   UNK N   1      21.520  15.885   6.848  0.00  0.00     0.028 C 
HETATM   20  C   UNK N   1      20.227  16.120   7.079  0.00  0.00     0.012 C 
HETATM   21  C   UNK N   1      19.219  16.105   5.973  0.00  0.00     0.055 C 
BRANCH  20  22
HETATM   22  C   UNK N   1      19.811  16.367   8.478  0.00  0.00     0.171 C 
HETATM   23  O   UNK N   1      19.196  15.518   9.099  0.00  0.00    -0.646 OA
BRANCH  22  24
HETATM   24  O   UNK N   1      20.160  17.517   9.094  0.00  0.00    -0.773 OA
HETATM   25  H   UNK N   1      20.175  18.209   9.726  0.00  0.00     0.167 HD
ENDBRANCH  22  24
ENDBRANCH  20  22
ENDBRANCH  14  19
ENDBRANCH   8  11
ENDBRANCH   4   7
BRANCH   1  26
HETATM   26  C   UNK N   1      26.737  14.400   4.681  0.00  0.00     0.025 A 
HETATM   27  C   UNK N   1      25.795  14.081   5.660  0.00  0.00     0.016 A 
HETATM   28  C   UNK N   1      25.680  14.847   6.802  0.00  0.00     0.002 A 
HETATM   29  C   UNK N   1      26.510  15.940   6.973  0.00  0.00     0.012 A 
HETATM   30  C   UNK N   1      27.504  16.261   6.043  0.00  0.00     0.004 A 
HETATM   31  C   UNK N   1      27.626  15.481   4.849  0.00  0.00     0.089 A 
BRANCH  30  32
HETATM   32  C   UNK N   1      28.381  17.420   6.447  0.00  0.00     0.153 C 
HETATM   33  C   UNK N   1      29.755  17.021   6.962  0.00  0.00     0.045 C 
BRANCH  32  34
HETATM   34  O   UNK N   1      27.791  18.461   7.215  0.00  0.00    -0.382 OA
BRANCH  34  35
HETATM   35  C   UNK N   1      28.092  19.752   6.708  0.00  0.00     0.168 C 
BRANCH  35  36
HETATM   36  C   UNK N   1      26.902  20.721   6.516  0.00  0.00     0.026 C 
BRANCH  36  37
HETATM   37  C   UNK N   1      25.917  20.412   5.389  0.00  0.00     0.002 C 
BRANCH  37  38
HETATM   38  C   UNK N   1      26.651  19.927   4.162  0.00  0.00    -0.000 C 
BRANCH  38  39
HETATM   39  C   UNK N   1      25.658  19.386   3.160  0.00  0.00    -0.005 C 
HETATM   40  C   UNK N   1      24.752  20.507   2.712  0.00  0.00     0.005 C 
ENDBRANCH  38  39
ENDBRANCH  37  38
ENDBRANCH  36  37
ENDBRANCH  35  36
ENDBRANCH  34  35
ENDBRANCH  32  34
ENDBRANCH  30  32
BRANCH  31  41
HETATM   41  O   UNK N   1      28.540  15.704   3.861  0.00  0.00    -0.354 OA
HETATM   42  C   UNK N   1      29.848  15.283   3.828  0.00  0.00     0.210 C 
ENDBRANCH  31  41
ENDBRANCH   1  26
TORSDOF 14
ENDMDL
MODEL 8
REMARK VINA RESULT:      -7.4     14.070     16.914
REMARK  14 active torsions:
REMARK  status: ('A' for Active; 'I' for Inactive)
REMARK    1  A    between atoms: C_2  and  C_3 
REMARK    2  A    between atoms: C_3  and  C_4 
REMARK    3  A    between atoms: C_4  and  C_5 
REMARK    4  A    between atoms: C_5  and  C_6 
REMARK    5  A    between atoms: C_6  and  O_7 
REMARK    6  A    between atoms: O_7  and  C_8 
REMARK    7  A    between atoms: C_8  and  C_10 
REMARK    8  A    between atoms: C_14  and  C_18 
REMARK    9  A    between atoms: C_15  and  O_16 
REMARK   10  A    between atoms: C_21  and  N_24 
REMARK       I    between atoms: N_24  and  C_25 
REMARK   11  A    between atoms: C_25  and  C_27 
REMARK   12  A    between atoms: C_30  and  C_34 
REMARK   13  A    between atoms: C_35  and  C_37 
REMARK   14  A    between atoms: C_37  and  O_39 
ROOT
HETATM    1  C   UNK N   1      29.776  25.950  -6.146  0.00  0.00     0.053 A 
HETATM    2  C   UNK N   1      30.721  26.941  -5.824  0.00  0.00     0.083 A 
HETATM    3  S   UNK N   1      31.519  26.335  -4.517  0.00  0.00    -0.063 SA
HETATM    4  C   UNK N   1      30.703  24.911  -4.356  0.00  0.00     0.151 A 
HETATM    5  N   UNK N   1      29.759  24.856  -5.315  0.00  0.00    -0.335 N 
ATOM      6  HN  UNK N   1      29.101  24.084  -5.414  1.00  0.00     0.168 HD
ENDROOT
BRANCH   4   7
HETATM    7  N   UNK N   1      30.420  24.422  -3.075  0.00  0.00    -0.303 N 
HETATM    8  C   UNK N   1      30.599  23.178  -2.589  0.00  0.00     0.257 C 
HETATM    9  O   UNK N   1      30.377  22.993  -1.410  0.00  0.00    -0.267 OA
HETATM   10  H   UNK N   1      30.038  25.076  -2.445  0.00  0.00     0.171 HD
BRANCH   8  11
HETATM   11  C   UNK N   1      31.121  22.049  -3.380  0.00  0.00     0.035 A 
HETATM   12  C   UNK N   1      30.330  21.636  -4.449  0.00  0.00     0.042 A 
HETATM   13  C   UNK N   1      30.819  20.781  -5.416  0.00  0.00     0.046 A 
HETATM   14  C   UNK N   1      32.162  20.378  -5.373  0.00  0.00     0.008 A 
HETATM   15 Cl   UNK N   1      29.743  20.349  -6.737  0.00  0.00    -0.083 Cl
HETATM   16  C   UNK N   1      32.969  20.754  -4.274  0.00  0.00     0.046 A 
HETATM   17  C   UNK N   1      32.437  21.581  -3.265  0.00  0.00     0.042 A 
HETATM   18 Cl   UNK N   1      34.662  20.284  -4.198  0.00  0.00    -0.083 Cl
BRANCH  14  19
HETATM   19  C   UNK N   1      32.742  19.716  -6.556  0.00  0.00     0.028 C 
HETATM   20  C   UNK N   1      33.331  20.288  -7.608  0.00  0.00     0.012 C 
HETATM   21  C   UNK N   1      33.337  21.773  -7.789  0.00  0.00     0.055 C 
BRANCH  20  22
HETATM   22  C   UNK N   1      34.011  19.404  -8.581  0.00  0.00     0.171 C 
HETATM   23  O   UNK N   1      35.216  19.232  -8.522  0.00  0.00    -0.646 OA
BRANCH  22  24
HETATM   24  O   UNK N   1      33.290  18.737  -9.508  0.00  0.00    -0.773 OA
HETATM   25  H   UNK N   1      32.916  18.509 -10.336  0.00  0.00     0.167 HD
ENDBRANCH  22  24
ENDBRANCH  20  22
ENDBRANCH  14  19
ENDBRANCH   8  11
ENDBRANCH   4   7
BRANCH   1  26
HETATM   26  C   UNK N   1      28.533  26.265  -6.826  0.00  0.00     0.025 A 
HETATM   27  C   UNK N   1      27.698  27.188  -6.193  0.00  0.00     0.016 A 
HETATM   28  C   UNK N   1      26.385  27.336  -6.589  0.00  0.00     0.002 A 
HETATM   29  C   UNK N   1      25.897  26.560  -7.625  0.00  0.00     0.012 A 
HETATM   30  C   UNK N   1      26.715  25.664  -8.321  0.00  0.00     0.004 A 
HETATM   31  C   UNK N   1      28.075  25.493  -7.912  0.00  0.00     0.089 A 
BRANCH  30  32
HETATM   32  C   UNK N   1      26.039  24.983  -9.486  0.00  0.00     0.153 C 
HETATM   33  C   UNK N   1      25.391  25.932 -10.481  0.00  0.00     0.045 C 
BRANCH  32  34
HETATM   34  O   UNK N   1      25.232  23.845  -9.211  0.00  0.00    -0.382 OA
BRANCH  34  35
HETATM   35  C   UNK N   1      25.984  22.644  -9.142  0.00  0.00     0.168 C 
BRANCH  35  36
HETATM   36  C   UNK N   1      26.315  22.107  -7.730  0.00  0.00     0.026 C 
BRANCH  36  37
HETATM   37  C   UNK N   1      25.595  22.750  -6.546  0.00  0.00     0.002 C 
BRANCH  37  38
HETATM   38  C   UNK N   1      26.591  23.309  -5.560  0.00  0.00    -0.000 C 
BRANCH  38  39
HETATM   39  C   UNK N   1      25.894  24.269  -4.624  0.00  0.00    -0.005 C 
HETATM   40  C   UNK N   1      26.831  24.622  -3.494  0.00  0.00     0.005 C 
ENDBRANCH  38  39
ENDBRANCH  37  38
ENDBRANCH  36  37
ENDBRANCH  35  36
ENDBRANCH  34  35
ENDBRANCH  32  34
ENDBRANCH  30  32
BRANCH  31  41
HETATM   41  O   UNK N   1      28.965  24.640  -8.497  0.00  0.00    -0.354 OA
HETATM   42  C   UNK N   1      29.699  24.858  -9.639  0.00  0.00     0.210 C 
ENDBRANCH  31  41
ENDBRANCH   1  26
TORSDOF 14
ENDMDL
MODEL 9
REMARK VINA RESULT:      -7.4      6.309      8.217
REMARK  14 active torsions:
REMARK  status: ('A' for Active; 'I' for Inactive)
REMARK    1  A    between atoms: C_2  and  C_3 
REMARK    2  A    between atoms: C_3  and  C_4 
REMARK    3  A    between atoms: C_4  and  C_5 
REMARK    4  A    between atoms: C_5  and  C_6 
REMARK    5  A    between atoms: C_6  and  O_7 
REMARK    6  A    between atoms: O_7  and  C_8 
REMARK    7  A    between atoms: C_8  and  C_10 
REMARK    8  A    between atoms: C_14  and  C_18 
REMARK    9  A    between atoms: C_15  and  O_16 
REMARK   10  A    between atoms: C_21  and  N_24 
REMARK       I    between atoms: N_24  and  C_25 
REMARK   11  A    between atoms: C_25  and  C_27 
REMARK   12  A    between atoms: C_30  and  C_34 
REMARK   13  A    between atoms: C_35  and  C_37 
REMARK   14  A    between atoms: C_37  and  O_39 
ROOT
HETATM    1  C   UNK N   1      20.778  17.938   4.593  0.00  0.00     0.053 A 
HETATM    2  C   UNK N   1      21.332  19.197   4.299  0.00  0.00     0.083 A 
HETATM    3  S   UNK N   1      20.624  19.633   2.877  0.00  0.00    -0.063 SA
HETATM    4  C   UNK N   1      19.686  18.298   2.638  0.00  0.00     0.151 A 
HETATM    5  N   UNK N   1      19.899  17.445   3.659  0.00  0.00    -0.335 N 
ATOM      6  HN  UNK N   1      19.455  16.530   3.732  1.00  0.00     0.168 HD
ENDROOT
BRANCH   4   7
HETATM    7  N   UNK N   1      19.520  17.798   1.341  0.00  0.00    -0.303 N 
HETATM    8  C   UNK N   1      19.904  16.607   0.841  0.00  0.00     0.257 C 
HETATM    9  O   UNK N   1      19.569  16.333  -0.294  0.00  0.00    -0.267 OA
HETATM   10  H   UNK N   1      19.060  18.398   0.710  0.00  0.00     0.171 HD
BRANCH   8  11
HETATM   11  C   UNK N   1      20.639  15.586   1.609  0.00  0.00     0.035 A 
HETATM   12  C   UNK N   1      19.977  14.378   1.808  0.00  0.00     0.042 A 
HETATM   13  C   UNK N   1      20.643  13.261   2.272  0.00  0.00     0.046 A 
HETATM   14  C   UNK N   1      22.031  13.314   2.475  0.00  0.00     0.008 A 
HETATM   15 Cl   UNK N   1      19.715  11.780   2.457  0.00  0.00    -0.083 Cl
HETATM   16  C   UNK N   1      22.713  14.542   2.318  0.00  0.00     0.046 A 
HETATM   17  C   UNK N   1      22.007  15.688   1.899  0.00  0.00     0.042 A 
HETATM   18 Cl   UNK N   1      24.454  14.640   2.544  0.00  0.00    -0.083 Cl
BRANCH  14  19
HETATM   19  C   UNK N   1      22.765  12.052   2.682  0.00  0.00     0.028 C 
HETATM   20  C   UNK N   1      23.380  11.303   1.764  0.00  0.00     0.012 C 
HETATM   21  C   UNK N   1      23.258  11.600   0.303  0.00  0.00     0.055 C 
BRANCH  20  22
HETATM   22  C   UNK N   1      24.219  10.181   2.241  0.00  0.00     0.171 C 
HETATM   23  O   UNK N   1      25.042   9.667   1.504  0.00  0.00    -0.646 OA
BRANCH  22  24
HETATM   24  O   UNK N   1      24.116   9.756   3.519  0.00  0.00    -0.773 OA
HETATM   25  H   UNK N   1      23.755   9.368   4.292  0.00  0.00     0.167 HD
ENDBRANCH  22  24
ENDBRANCH  20  22
ENDBRANCH  14  19
ENDBRANCH   8  11
ENDBRANCH   4   7
BRANCH   1  26
HETATM   26  C   UNK N   1      21.482  16.957   5.398  0.00  0.00     0.025 A 
HETATM   27  C   UNK N   1      22.876  17.041   5.396  0.00  0.00     0.016 A 
HETATM   28  C   UNK N   1      23.644  16.000   5.877  0.00  0.00     0.002 A 
HETATM   29  C   UNK N   1      23.021  14.866   6.365  0.00  0.00     0.012 A 
HETATM   30  C   UNK N   1      21.628  14.765   6.436  0.00  0.00     0.004 A 
HETATM   31  C   UNK N   1      20.821  15.833   5.931  0.00  0.00     0.089 A 
BRANCH  30  32
HETATM   32  C   UNK N   1      21.130  13.502   7.094  0.00  0.00     0.153 C 
HETATM   33  C   UNK N   1      20.790  12.379   6.127  0.00  0.00     0.045 C 
BRANCH  32  34
HETATM   34  O   UNK N   1      20.173  13.631   8.138  0.00  0.00    -0.382 OA
BRANCH  34  35
HETATM   35  C   UNK N   1      20.760  14.009   9.374  0.00  0.00     0.168 C 
BRANCH  35  36
HETATM   36  C   UNK N   1      20.953  12.892  10.425  0.00  0.00     0.026 C 
BRANCH  36  37
HETATM   37  C   UNK N   1      22.291  12.154  10.431  0.00  0.00     0.002 C 
BRANCH  37  38
HETATM   38  C   UNK N   1      23.386  13.039   9.888  0.00  0.00    -0.000 C 
BRANCH  38  39
HETATM   39  C   UNK N   1      24.260  12.243   8.946  0.00  0.00    -0.005 C 
HETATM   40  C   UNK N   1      23.505  11.015   8.496  0.00  0.00     0.005 C 
ENDBRANCH  38  39
ENDBRANCH  37  38
ENDBRANCH  36  37
ENDBRANCH  35  36
ENDBRANCH  34  35
ENDBRANCH  32  34
ENDBRANCH  30  32
BRANCH  31  41
HETATM   41  O   UNK N   1      19.456  15.846   5.927  0.00  0.00    -0.354 OA
HETATM   42  C   UNK N   1      18.619  15.080   5.152  0.00  0.00     0.210 C 
ENDBRANCH  31  41
ENDBRANCH   1  26
TORSDOF 14
ENDMDL
