REMARK  9 active torsions:
REMARK  status: ('A' for Active; 'I' for Inactive)
REMARK    1  A    between atoms: C_3  and  C_22 
REMARK       I    between atoms: N_4  and  C_6 
REMARK    2  A    between atoms: C_6  and  C_8 
REMARK    3  A    between atoms: C_8  and  C_9 
REMARK    4  A    between atoms: C_9  and  C_10 
REMARK    5  A    between atoms: C_10  and  C_11 
REMARK    6  A    between atoms: C_11  and  C_12 
REMARK       I    between atoms: C_12  and  N_14 
REMARK    7  A    between atoms: C_18  and  C_19 
REMARK    8  A    between atoms: C_19  and  O_21 
REMARK    9  A    between atoms: C_22  and  O_24 
ROOT
HETATM    1  C   UNK N   1       0.776  -3.734   0.000  0.00  0.00     0.010 C 
ENDROOT
BRANCH   1   2
HETATM    2  C   UNK N   1       0.101  -2.385  -0.000  0.00  0.00     0.103 C 
BRANCH   2   3
HETATM    3  C   UNK N   1      -1.412  -2.319  -0.000  0.00  0.00     0.220 C 
HETATM    4  N   UNK N   1      -2.244  -3.422  -0.000  0.00  0.00    -0.338 N 
HETATM    5  C   UNK N   1      -3.695  -3.402   0.000  0.00  0.00     0.185 A 
HETATM    6  C   UNK N   1      -1.745  -4.771  -0.000  0.00  0.00     0.127 A 
HETATM    7  C   UNK N   1      -4.207  -4.825  -0.000  0.00  0.00     0.038 A 
HETATM    8  C   UNK N   1      -2.957  -5.697   0.000  0.00  0.00     0.022 A 
HETATM    9  O   UNK N   1      -1.880  -1.200  -0.000  0.00  0.00    -0.273 OA
BRANCH   5  10
HETATM   10  C   UNK N   1      -4.674  -2.242   0.000  0.00  0.00     0.163 C 
HETATM   11  O   UNK N   1      -5.869  -2.485   0.000  0.00  0.00    -0.648 OA
BRANCH  10  12
HETATM   12  O   UNK N   1      -4.283  -0.957   0.000  0.00  0.00    -0.775 OA
HETATM   13  H   UNK N   1      -3.370  -0.745   0.000  0.00  0.00     0.167 HD
ENDBRANCH  10  12
ENDBRANCH   5  10
ENDBRANCH   2   3
ENDBRANCH   1   2
BRANCH   1  14
HETATM   14  C   UNK N   1       2.258  -3.524   0.000  0.00  0.00     0.010 C 
BRANCH  14  15
HETATM   15  C   UNK N   1       2.933  -4.872  -0.000  0.00  0.00     0.103 C 
BRANCH  15  16
HETATM   16  C   UNK N   1       4.446  -4.938  -0.000  0.00  0.00     0.220 C 
HETATM   17  O   UNK N   1       4.914  -6.057  -0.000  0.00  0.00    -0.273 OA
HETATM   18  N   UNK N   1       5.278  -3.835  -0.000  0.00  0.00    -0.338 N 
HETATM   19  C   UNK N   1       4.779  -2.486  -0.000  0.00  0.00     0.127 A 
HETATM   20  C   UNK N   1       6.729  -3.855   0.000  0.00  0.00     0.185 A 
HETATM   21  C   UNK N   1       5.991  -1.560   0.000  0.00  0.00     0.022 A 
HETATM   22  C   UNK N   1       7.241  -2.433  -0.000  0.00  0.00     0.038 A 
BRANCH  20  23
HETATM   23  C   UNK N   1       7.708  -5.016   0.000  0.00  0.00     0.163 C 
HETATM   24  O   UNK N   1       8.903  -4.772   0.000  0.00  0.00    -0.648 OA
BRANCH  23  25
HETATM   25  O   UNK N   1       7.317  -6.300   0.000  0.00  0.00    -0.775 OA
HETATM   26  H   UNK N   1       6.404  -6.512   0.000  0.00  0.00     0.167 HD
ENDBRANCH  23  25
ENDBRANCH  20  23
ENDBRANCH  15  16
ENDBRANCH  14  15
ENDBRANCH   1  14
TORSDOF 9
