MODEL 1
REMARK VINA RESULT:      -7.6      0.000      0.000
REMARK  6 active torsions:
REMARK  status: ('A' for Active; 'I' for Inactive)
REMARK    1  A    between atoms: C_4  and  O_38 
REMARK    2  A    between atoms: C_5  and  O_37 
REMARK    3  A    between atoms: C_9  and  O_31 
REMARK    4  A    between atoms: C_10  and  O_29 
REMARK    5  A    between atoms: C_22  and  N_27 
REMARK    6  A    between atoms: O_31  and  C_32 
REMARK       I    between atoms: C_32  and  N_34 
ROOT
HETATM    1  C   UNK N   1      26.448  26.910  -5.225  0.00  0.00     0.010 C 
HETATM    2  C   UNK N   1      26.900  27.828  -6.351  0.00  0.00    -0.012 C 
HETATM    3  C   UNK N   1      28.049  28.776  -5.965  0.00  0.00     0.039 C 
HETATM    4  C   UNK N   1      29.238  28.150  -5.207  0.00  0.00     0.150 C 
HETATM    5  C   UNK N   1      29.828  26.883  -5.868  0.00  0.00     0.154 C 
HETATM    6  C   UNK N   1      30.776  26.018  -5.010  0.00  0.00     0.035 C 
HETATM    7  C   UNK N   1      30.006  25.158  -4.040  0.00  0.00    -0.015 C 
HETATM    8  C   UNK N   1      30.253  23.861  -3.742  0.00  0.00    -0.055 C 
HETATM    9  C   UNK N   1      31.412  23.046  -4.333  0.00  0.00     0.194 C 
HETATM   10  C   UNK N   1      31.555  21.621  -3.709  0.00  0.00     0.177 C 
HETATM   11  C   UNK N   1      32.062  20.482  -4.577  0.00  0.00     0.008 C 
HETATM   12  C   UNK N   1      31.455  20.054  -5.688  0.00  0.00    -0.001 C 
HETATM   13  C   UNK N   1      30.262  20.713  -6.236  0.00  0.00     0.012 C 
HETATM   14  C   UNK N   1      29.597  20.252  -7.307  0.00  0.00     0.006 C 
HETATM   15  C   UNK N   1      28.490  21.057  -7.866  0.00  0.00     0.251 C 
HETATM   16  O   UNK N   1      27.934  20.693  -8.895  0.00  0.00    -0.268 OA
HETATM   17  N   UNK N   1      28.186  22.251  -7.295  0.00  0.00    -0.320 N 
HETATM   18  C   UNK N   1      27.298  23.243  -7.806  0.00  0.00     0.090 C 
HETATM   19  C   UNK N   1      26.442  22.996  -8.813  0.00  0.00     0.090 C 
HETATM   20  C   UNK N   1      25.658  24.098  -9.409  0.00  0.00     0.201 C 
HETATM   21  O   UNK N   1      24.853  23.856 -10.295  0.00  0.00    -0.286 OA
HETATM   22  C   UNK N   1      25.935  25.502  -9.009  0.00  0.00     0.086 C 
HETATM   23  C   UNK N   1      26.799  25.757  -8.001  0.00  0.00     0.025 C 
HETATM   24  C   UNK N   1      27.214  27.179  -7.699  0.00  0.00     0.049 C 
HETATM   25  C   UNK N   1      27.446  24.617  -7.299  0.00  0.00     0.207 C 
HETATM   26  O   UNK N   1      28.166  24.812  -6.337  0.00  0.00    -0.285 OA
HETATM   27  C   UNK N   1      30.030  18.996  -8.001  0.00  0.00     0.054 C 
HETATM   28  C   UNK N   1      29.327  23.208  -2.766  0.00  0.00     0.046 C 
HETATM   29  C   UNK N   1      31.792  26.887  -4.290  0.00  0.00     0.017 C 
HETATM   30  H   UNK N   1      28.624  22.453  -6.436  0.00  0.00     0.169 HD
ENDROOT
BRANCH   9  31
HETATM   31  O   UNK N   1      32.617  23.736  -4.363  0.00  0.00    -0.291 OA
BRANCH  31  32
HETATM   32  C   UNK N   1      33.572  23.645  -5.329  0.00  0.00     0.359 C 
HETATM   33  O   UNK N   1      34.588  23.010  -5.108  0.00  0.00    -0.239 OA
HETATM   34  N   UNK N   1      33.396  24.209  -6.544  0.00  0.00    -0.346 N 
HETATM   35  H   UNK N   1      33.330  24.929  -7.213  0.00  0.00     0.161 HD
HETATM   36  H   UNK N   1      33.232  23.415  -7.102  0.00  0.00     0.161 HD
ENDBRANCH  31  32
ENDBRANCH   9  31
BRANCH  10  37
HETATM   37  O   UNK N   1      32.055  21.596  -2.385  0.00  0.00    -0.384 OA
HETATM   38  C   UNK N   1      33.357  21.061  -2.380  0.00  0.00     0.202 C 
ENDBRANCH  10  37
BRANCH   5  39
HETATM   39  O   UNK N   1      30.451  27.225  -7.069  0.00  0.00    -0.392 OA
HETATM   40  H   UNK N   1      30.824  27.704  -7.825  0.00  0.00     0.210 HD
ENDBRANCH   5  39
BRANCH   4  41
HETATM   41  O   UNK N   1      28.909  27.967  -3.862  0.00  0.00    -0.388 OA
HETATM   42  C   UNK N   1      28.957  29.254  -3.315  0.00  0.00     0.202 C 
ENDBRANCH   4  41
BRANCH  22  43
HETATM   43  N   UNK N   1      25.329  26.565  -9.721  0.00  0.00    -0.395 N 
HETATM   44  H   UNK N   1      24.697  26.403 -10.458  0.00  0.00     0.156 HD
HETATM   45  H   UNK N   1      25.546  27.493  -9.471  0.00  0.00     0.156 HD
ENDBRANCH  22  43
TORSDOF 6
ENDMDL
MODEL 2
REMARK VINA RESULT:      -7.1     14.115     16.306
REMARK  6 active torsions:
REMARK  status: ('A' for Active; 'I' for Inactive)
REMARK    1  A    between atoms: C_4  and  O_38 
REMARK    2  A    between atoms: C_5  and  O_37 
REMARK    3  A    between atoms: C_9  and  O_31 
REMARK    4  A    between atoms: C_10  and  O_29 
REMARK    5  A    between atoms: C_22  and  N_27 
REMARK    6  A    between atoms: O_31  and  C_32 
REMARK       I    between atoms: C_32  and  N_34 
ROOT
HETATM    1  C   UNK N   1      30.738  12.899   1.696  0.00  0.00     0.010 C 
HETATM    2  C   UNK N   1      30.368  11.516   2.211  0.00  0.00    -0.012 C 
HETATM    3  C   UNK N   1      31.574  10.666   2.647  0.00  0.00     0.039 C 
HETATM    4  C   UNK N   1      32.626  11.360   3.537  0.00  0.00     0.150 C 
HETATM    5  C   UNK N   1      32.044  12.086   4.773  0.00  0.00     0.154 C 
HETATM    6  C   UNK N   1      32.972  13.075   5.509  0.00  0.00     0.035 C 
HETATM    7  C   UNK N   1      33.065  14.389   4.777  0.00  0.00    -0.015 C 
HETATM    8  C   UNK N   1      33.046  15.624   5.332  0.00  0.00    -0.055 C 
HETATM    9  C   UNK N   1      32.961  15.889   6.842  0.00  0.00     0.194 C 
HETATM   10  C   UNK N   1      33.105  17.398   7.219  0.00  0.00     0.177 C 
HETATM   11  C   UNK N   1      32.354  17.932   8.426  0.00  0.00     0.008 C 
HETATM   12  C   UNK N   1      31.024  17.914   8.555  0.00  0.00    -0.001 C 
HETATM   13  C   UNK N   1      30.146  17.284   7.560  0.00  0.00     0.012 C 
HETATM   14  C   UNK N   1      28.807  17.322   7.635  0.00  0.00     0.006 C 
HETATM   15  C   UNK N   1      28.010  16.545   6.662  0.00  0.00     0.251 C 
HETATM   16  O   UNK N   1      26.792  16.499   6.775  0.00  0.00    -0.268 OA
HETATM   17  N   UNK N   1      28.653  15.797   5.728  0.00  0.00    -0.320 N 
HETATM   18  C   UNK N   1      28.068  14.841   4.847  0.00  0.00     0.090 C 
HETATM   19  C   UNK N   1      26.740  14.750   4.658  0.00  0.00     0.090 C 
HETATM   20  C   UNK N   1      26.176  13.642   3.859  0.00  0.00     0.201 C 
HETATM   21  O   UNK N   1      24.973  13.592   3.660  0.00  0.00    -0.286 OA
HETATM   22  C   UNK N   1      27.060  12.539   3.400  0.00  0.00     0.086 C 
HETATM   23  C   UNK N   1      28.396  12.622   3.592  0.00  0.00     0.025 C 
HETATM   24  C   UNK N   1      29.282  11.437   3.283  0.00  0.00     0.049 C 
HETATM   25  C   UNK N   1      28.957  13.833   4.247  0.00  0.00     0.207 C 
HETATM   26  O   UNK N   1      30.161  13.972   4.361  0.00  0.00    -0.285 OA
HETATM   27  C   UNK N   1      28.119  18.048   8.752  0.00  0.00     0.054 C 
HETATM   28  C   UNK N   1      33.121  16.784   4.391  0.00  0.00     0.046 C 
HETATM   29  C   UNK N   1      34.346  12.464   5.723  0.00  0.00     0.017 C 
HETATM   30  H   UNK N   1      29.626  15.930   5.651  0.00  0.00     0.169 HD
ENDROOT
BRANCH   9  31
HETATM   31  O   UNK N   1      33.793  15.072   7.596  0.00  0.00    -0.291 OA
BRANCH  31  32
HETATM   32  C   UNK N   1      33.526  14.580   8.837  0.00  0.00     0.359 C 
HETATM   33  O   UNK N   1      34.077  15.071   9.807  0.00  0.00    -0.239 OA
HETATM   34  N   UNK N   1      32.628  13.586   9.019  0.00  0.00    -0.346 N 
HETATM   35  H   UNK N   1      32.265  12.671   8.996  0.00  0.00     0.161 HD
HETATM   36  H   UNK N   1      31.876  14.080   9.419  0.00  0.00     0.161 HD
ENDBRANCH  31  32
ENDBRANCH   9  31
BRANCH  10  37
HETATM   37  O   UNK N   1      34.410  17.929   7.077  0.00  0.00    -0.384 OA
HETATM   38  C   UNK N   1      34.803  18.548   8.280  0.00  0.00     0.202 C 
ENDBRANCH  10  37
BRANCH   5  39
HETATM   39  O   UNK N   1      31.535  11.149   5.673  0.00  0.00    -0.392 OA
HETATM   40  H   UNK N   1      31.337  10.624   6.464  0.00  0.00     0.210 HD
ENDBRANCH   5  39
BRANCH   4  41
HETATM   41  O   UNK N   1      33.453  12.174   2.761  0.00  0.00    -0.388 OA
HETATM   42  C   UNK N   1      34.279  11.275   2.076  0.00  0.00     0.202 C 
ENDBRANCH   4  41
BRANCH  22  43
HETATM   43  N   UNK N   1      26.490  11.385   2.811  0.00  0.00    -0.395 N 
HETATM   44  H   UNK N   1      26.324  11.324   1.843  0.00  0.00     0.156 HD
HETATM   45  H   UNK N   1      26.253  10.621   3.386  0.00  0.00     0.156 HD
ENDBRANCH  22  43
TORSDOF 6
ENDMDL
MODEL 3
REMARK VINA RESULT:      -7.0     15.829     20.363
REMARK  6 active torsions:
REMARK  status: ('A' for Active; 'I' for Inactive)
REMARK    1  A    between atoms: C_4  and  O_38 
REMARK    2  A    between atoms: C_5  and  O_37 
REMARK    3  A    between atoms: C_9  and  O_31 
REMARK    4  A    between atoms: C_10  and  O_29 
REMARK    5  A    between atoms: C_22  and  N_27 
REMARK    6  A    between atoms: O_31  and  C_32 
REMARK       I    between atoms: C_32  and  N_34 
ROOT
HETATM    1  C   UNK N   1      36.140  14.642   5.890  0.00  0.00     0.010 C 
HETATM    2  C   UNK N   1      34.886  15.479   5.685  0.00  0.00    -0.012 C 
HETATM    3  C   UNK N   1      33.950  14.949   4.585  0.00  0.00     0.039 C 
HETATM    4  C   UNK N   1      33.647  13.436   4.603  0.00  0.00     0.150 C 
HETATM    5  C   UNK N   1      33.179  12.890   5.973  0.00  0.00     0.154 C 
HETATM    6  C   UNK N   1      33.188  11.358   6.159  0.00  0.00     0.035 C 
HETATM    7  C   UNK N   1      34.580  10.846   6.426  0.00  0.00    -0.015 C 
HETATM    8  C   UNK N   1      34.932   9.905   7.334  0.00  0.00    -0.055 C 
HETATM    9  C   UNK N   1      33.937   9.164   8.238  0.00  0.00     0.194 C 
HETATM   10  C   UNK N   1      34.592   8.029   9.088  0.00  0.00     0.177 C 
HETATM   11  C   UNK N   1      34.034   7.724  10.467  0.00  0.00     0.008 C 
HETATM   12  C   UNK N   1      33.990   8.601  11.473  0.00  0.00    -0.001 C 
HETATM   13  C   UNK N   1      34.407  10.001  11.314  0.00  0.00     0.012 C 
HETATM   14  C   UNK N   1      34.441  10.876  12.332  0.00  0.00     0.006 C 
HETATM   15  C   UNK N   1      34.743  12.295  12.049  0.00  0.00     0.251 C 
HETATM   16  O   UNK N   1      34.689  13.119  12.954  0.00  0.00    -0.268 OA
HETATM   17  N   UNK N   1      34.960  12.683  10.766  0.00  0.00    -0.320 N 
HETATM   18  C   UNK N   1      35.067  14.019  10.282  0.00  0.00     0.090 C 
HETATM   19  C   UNK N   1      35.223  15.074  11.101  0.00  0.00     0.090 C 
HETATM   20  C   UNK N   1      35.170  16.449  10.562  0.00  0.00     0.201 C 
HETATM   21  O   UNK N   1      35.354  17.398  11.308  0.00  0.00    -0.286 OA
HETATM   22  C   UNK N   1      34.782  16.672   9.145  0.00  0.00     0.086 C 
HETATM   23  C   UNK N   1      34.618  15.615   8.318  0.00  0.00     0.025 C 
HETATM   24  C   UNK N   1      34.062  15.820   6.927  0.00  0.00     0.049 C 
HETATM   25  C   UNK N   1      34.848  14.243   8.844  0.00  0.00     0.207 C 
HETATM   26  O   UNK N   1      34.786  13.280   8.103  0.00  0.00    -0.285 OA
HETATM   27  C   UNK N   1      34.072  10.454  13.723  0.00  0.00     0.054 C 
HETATM   28  C   UNK N   1      36.389   9.583   7.437  0.00  0.00     0.046 C 
HETATM   29  C   UNK N   1      32.566  10.668   4.957  0.00  0.00     0.017 C 
HETATM   30  H   UNK N   1      35.054  11.964  10.099  0.00  0.00     0.169 HD
ENDROOT
BRANCH   9  31
HETATM   31  O   UNK N   1      32.795   8.738   7.573  0.00  0.00    -0.291 OA
BRANCH  31  32
HETATM   32  C   UNK N   1      31.509   8.935   7.977  0.00  0.00     0.359 C 
HETATM   33  O   UNK N   1      31.294   9.400   9.082  0.00  0.00    -0.239 OA
HETATM   34  N   UNK N   1      30.469   8.666   7.158  0.00  0.00    -0.346 N 
HETATM   35  H   UNK N   1      29.823   8.118   6.655  0.00  0.00     0.161 HD
HETATM   36  H   UNK N   1      30.178   9.575   6.915  0.00  0.00     0.161 HD
ENDBRANCH  31  32
ENDBRANCH   9  31
BRANCH  10  37
HETATM   37  O   UNK N   1      34.970   6.877   8.356  0.00  0.00    -0.384 OA
HETATM   38  C   UNK N   1      34.261   5.758   8.835  0.00  0.00     0.202 C 
ENDBRANCH  10  37
BRANCH   5  39
HETATM   39  O   UNK N   1      31.917  13.401   6.278  0.00  0.00    -0.392 OA
HETATM   40  H   UNK N   1      30.997  13.511   6.562  0.00  0.00     0.210 HD
ENDBRANCH   5  39
BRANCH   4  41
HETATM   41  O   UNK N   1      34.719  12.723   4.064  0.00  0.00    -0.388 OA
HETATM   42  C   UNK N   1      34.662  12.998   2.693  0.00  0.00     0.202 C 
ENDBRANCH   4  41
BRANCH  22  43
HETATM   43  N   UNK N   1      34.537  17.988   8.686  0.00  0.00    -0.395 N 
HETATM   44  H   UNK N   1      34.345  18.181   7.739  0.00  0.00     0.156 HD
HETATM   45  H   UNK N   1      34.559  18.732   9.331  0.00  0.00     0.156 HD
ENDBRANCH  22  43
TORSDOF 6
ENDMDL
MODEL 4
REMARK VINA RESULT:      -7.0     13.131     16.015
REMARK  6 active torsions:
REMARK  status: ('A' for Active; 'I' for Inactive)
REMARK    1  A    between atoms: C_4  and  O_38 
REMARK    2  A    between atoms: C_5  and  O_37 
REMARK    3  A    between atoms: C_9  and  O_31 
REMARK    4  A    between atoms: C_10  and  O_29 
REMARK    5  A    between atoms: C_22  and  N_27 
REMARK    6  A    between atoms: O_31  and  C_32 
REMARK       I    between atoms: C_32  and  N_34 
ROOT
HETATM    1  C   UNK N   1      32.749  14.938   9.500  0.00  0.00     0.010 C 
HETATM    2  C   UNK N   1      33.350  16.333   9.417  0.00  0.00    -0.012 C 
HETATM    3  C   UNK N   1      34.842  16.353   9.041  0.00  0.00     0.039 C 
HETATM    4  C   UNK N   1      35.271  15.460   7.859  0.00  0.00     0.150 C 
HETATM    5  C   UNK N   1      34.424  15.639   6.577  0.00  0.00     0.154 C 
HETATM    6  C   UNK N   1      34.565  14.558   5.484  0.00  0.00     0.035 C 
HETATM    7  C   UNK N   1      33.781  13.319   5.833  0.00  0.00    -0.015 C 
HETATM    8  C   UNK N   1      33.023  12.581   4.989  0.00  0.00    -0.055 C 
HETATM    9  C   UNK N   1      32.864  12.877   3.491  0.00  0.00     0.194 C 
HETATM   10  C   UNK N   1      32.052  11.786   2.722  0.00  0.00     0.177 C 
HETATM   11  C   UNK N   1      31.191  12.201   1.542  0.00  0.00     0.008 C 
HETATM   12  C   UNK N   1      30.172  13.062   1.618  0.00  0.00    -0.001 C 
HETATM   13  C   UNK N   1      29.833  13.772   2.859  0.00  0.00     0.012 C 
HETATM   14  C   UNK N   1      28.769  14.582   2.973  0.00  0.00     0.006 C 
HETATM   15  C   UNK N   1      28.586  15.356   4.219  0.00  0.00     0.251 C 
HETATM   16  O   UNK N   1      27.671  16.165   4.301  0.00  0.00    -0.268 OA
HETATM   17  N   UNK N   1      29.509  15.245   5.209  0.00  0.00    -0.320 N 
HETATM   18  C   UNK N   1      29.607  16.049   6.382  0.00  0.00     0.090 C 
HETATM   19  C   UNK N   1      28.620  16.870   6.780  0.00  0.00     0.090 C 
HETATM   20  C   UNK N   1      28.834  17.797   7.910  0.00  0.00     0.201 C 
HETATM   21  O   UNK N   1      27.917  18.509   8.289  0.00  0.00    -0.286 OA
HETATM   22  C   UNK N   1      30.190  17.940   8.502  0.00  0.00     0.086 C 
HETATM   23  C   UNK N   1      31.188  17.121   8.102  0.00  0.00     0.025 C 
HETATM   24  C   UNK N   1      32.604  17.366   8.572  0.00  0.00     0.049 C 
HETATM   25  C   UNK N   1      30.901  16.077   7.083  0.00  0.00     0.207 C 
HETATM   26  O   UNK N   1      31.759  15.274   6.763  0.00  0.00    -0.285 OA
HETATM   27  C   UNK N   1      27.833  14.790   1.821  0.00  0.00     0.054 C 
HETATM   28  C   UNK N   1      32.312  11.405   5.579  0.00  0.00     0.046 C 
HETATM   29  C   UNK N   1      36.029  14.235   5.235  0.00  0.00     0.017 C 
HETATM   30  H   UNK N   1      30.181  14.531   5.106  0.00  0.00     0.169 HD
ENDROOT
BRANCH   9  31
HETATM   31  O   UNK N   1      34.059  13.193   2.858  0.00  0.00    -0.291 OA
BRANCH  31  32
HETATM   32  C   UNK N   1      34.245  14.179   1.938  0.00  0.00     0.359 C 
HETATM   33  O   UNK N   1      33.813  15.296   2.163  0.00  0.00    -0.239 OA
HETATM   34  N   UNK N   1      34.938  13.955   0.800  0.00  0.00    -0.346 N 
HETATM   35  H   UNK N   1      35.118  13.605  -0.103  0.00  0.00     0.161 HD
HETATM   36  H   UNK N   1      35.776  14.434   0.989  0.00  0.00     0.161 HD
ENDBRANCH  31  32
ENDBRANCH   9  31
BRANCH  10  37
HETATM   37  O   UNK N   1      32.731  10.559   2.531  0.00  0.00    -0.384 OA
HETATM   38  C   UNK N   1      32.882  10.311   1.153  0.00  0.00     0.202 C 
ENDBRANCH  10  37
BRANCH   5  39
HETATM   39  O   UNK N   1      34.656  16.902   6.032  0.00  0.00    -0.392 OA
HETATM   40  H   UNK N   1      34.795  17.853   5.903  0.00  0.00     0.210 HD
ENDBRANCH   5  39
BRANCH   4  41
HETATM   41  O   UNK N   1      35.370  14.129   8.271  0.00  0.00    -0.388 OA
HETATM   42  C   UNK N   1      36.511  14.103   9.082  0.00  0.00     0.202 C 
ENDBRANCH   4  41
BRANCH  22  43
HETATM   43  N   UNK N   1      30.437  18.967   9.444  0.00  0.00    -0.395 N 
HETATM   44  H   UNK N   1      30.161  19.898   9.283  0.00  0.00     0.156 HD
HETATM   45  H   UNK N   1      30.900  18.744  10.285  0.00  0.00     0.156 HD
ENDBRANCH  22  43
TORSDOF 6
ENDMDL
MODEL 5
REMARK VINA RESULT:      -7.0     13.668     17.282
REMARK  6 active torsions:
REMARK  status: ('A' for Active; 'I' for Inactive)
REMARK    1  A    between atoms: C_4  and  O_38 
REMARK    2  A    between atoms: C_5  and  O_37 
REMARK    3  A    between atoms: C_9  and  O_31 
REMARK    4  A    between atoms: C_10  and  O_29 
REMARK    5  A    between atoms: C_22  and  N_27 
REMARK    6  A    between atoms: O_31  and  C_32 
REMARK       I    between atoms: C_32  and  N_34 
ROOT
HETATM    1  C   UNK N   1      31.736  13.319   3.872  0.00  0.00     0.010 C 
HETATM    2  C   UNK N   1      31.850  14.578   3.026  0.00  0.00    -0.012 C 
HETATM    3  C   UNK N   1      31.019  15.763   3.548  0.00  0.00     0.039 C 
HETATM    4  C   UNK N   1      31.111  16.063   5.058  0.00  0.00     0.150 C 
HETATM    5  C   UNK N   1      32.554  16.177   5.604  0.00  0.00     0.154 C 
HETATM    6  C   UNK N   1      32.732  16.134   7.136  0.00  0.00     0.035 C 
HETATM    7  C   UNK N   1      32.642  14.722   7.659  0.00  0.00    -0.015 C 
HETATM    8  C   UNK N   1      33.433  14.161   8.603  0.00  0.00    -0.055 C 
HETATM    9  C   UNK N   1      34.557  14.905   9.340  0.00  0.00     0.194 C 
HETATM   10  C   UNK N   1      35.216  14.067  10.481  0.00  0.00     0.177 C 
HETATM   11  C   UNK N   1      36.691  14.265  10.786  0.00  0.00     0.008 C 
HETATM   12  C   UNK N   1      37.676  14.050   9.910  0.00  0.00    -0.001 C 
HETATM   13  C   UNK N   1      37.419  13.676   8.513  0.00  0.00     0.012 C 
HETATM   14  C   UNK N   1      38.397  13.383   7.640  0.00  0.00     0.006 C 
HETATM   15  C   UNK N   1      38.048  13.152   6.223  0.00  0.00     0.251 C 
HETATM   16  O   UNK N   1      38.938  12.973   5.401  0.00  0.00    -0.268 OA
HETATM   17  N   UNK N   1      36.751  13.259   5.834  0.00  0.00    -0.320 N 
HETATM   18  C   UNK N   1      36.257  13.266   4.497  0.00  0.00     0.090 C 
HETATM   19  C   UNK N   1      37.011  12.903   3.445  0.00  0.00     0.090 C 
HETATM   20  C   UNK N   1      36.503  13.080   2.069  0.00  0.00     0.201 C 
HETATM   21  O   UNK N   1      37.180  12.709   1.123  0.00  0.00    -0.286 OA
HETATM   22  C   UNK N   1      35.227  13.808   1.840  0.00  0.00     0.086 C 
HETATM   23  C   UNK N   1      34.467  14.180   2.894  0.00  0.00     0.025 C 
HETATM   24  C   UNK N   1      33.259  15.064   2.682  0.00  0.00     0.049 C 
HETATM   25  C   UNK N   1      34.918  13.836   4.268  0.00  0.00     0.207 C 
HETATM   26  O   UNK N   1      34.216  14.087   5.230  0.00  0.00    -0.285 OA
HETATM   27  C   UNK N   1      39.835  13.397   8.062  0.00  0.00     0.054 C 
HETATM   28  C   UNK N   1      33.169  12.727   8.935  0.00  0.00     0.046 C 
HETATM   29  C   UNK N   1      31.723  17.040   7.820  0.00  0.00     0.017 C 
HETATM   30  H   UNK N   1      36.082  13.339   6.552  0.00  0.00     0.169 HD
ENDROOT
BRANCH   9  31
HETATM   31  O   UNK N   1      34.198  16.180   9.756  0.00  0.00    -0.291 OA
BRANCH  31  32
HETATM   32  C   UNK N   1      34.976  17.295   9.693  0.00  0.00     0.359 C 
HETATM   33  O   UNK N   1      35.854  17.460  10.523  0.00  0.00    -0.239 OA
HETATM   34  N   UNK N   1      34.823  18.202   8.703  0.00  0.00    -0.346 N 
HETATM   35  H   UNK N   1      34.403  18.932   8.193  0.00  0.00     0.161 HD
HETATM   36  H   UNK N   1      35.621  18.022   8.155  0.00  0.00     0.161 HD
ENDBRANCH  31  32
ENDBRANCH   9  31
BRANCH  10  37
HETATM   37  O   UNK N   1      34.413  13.891  11.634  0.00  0.00    -0.384 OA
HETATM   38  C   UNK N   1      35.030  12.974  12.506  0.00  0.00     0.202 C 
ENDBRANCH  10  37
BRANCH   5  39
HETATM   39  O   UNK N   1      33.164  17.320   5.085  0.00  0.00    -0.392 OA
HETATM   40  H   UNK N   1      33.347  18.209   4.744  0.00  0.00     0.210 HD
ENDBRANCH   5  39
BRANCH   4  41
HETATM   41  O   UNK N   1      30.321  15.164   5.777  0.00  0.00    -0.388 OA
HETATM   42  C   UNK N   1      29.016  15.642   5.612  0.00  0.00     0.202 C 
ENDBRANCH   4  41
BRANCH  22  43
HETATM   43  N   UNK N   1      34.844  14.150   0.521  0.00  0.00    -0.395 N 
HETATM   44  H   UNK N   1      34.583  15.067   0.277  0.00  0.00     0.156 HD
HETATM   45  H   UNK N   1      34.838  13.451  -0.172  0.00  0.00     0.156 HD
ENDBRANCH  22  43
TORSDOF 6
ENDMDL
MODEL 6
REMARK VINA RESULT:      -7.0     12.564     15.402
REMARK  6 active torsions:
REMARK  status: ('A' for Active; 'I' for Inactive)
REMARK    1  A    between atoms: C_4  and  O_38 
REMARK    2  A    between atoms: C_5  and  O_37 
REMARK    3  A    between atoms: C_9  and  O_31 
REMARK    4  A    between atoms: C_10  and  O_29 
REMARK    5  A    between atoms: C_22  and  N_27 
REMARK    6  A    between atoms: O_31  and  C_32 
REMARK       I    between atoms: C_32  and  N_34 
ROOT
HETATM    1  C   UNK N   1      21.123  15.323   1.332  0.00  0.00     0.010 C 
HETATM    2  C   UNK N   1      19.952  15.514   2.284  0.00  0.00    -0.012 C 
HETATM    3  C   UNK N   1      19.554  14.242   3.053  0.00  0.00     0.039 C 
HETATM    4  C   UNK N   1      20.701  13.431   3.691  0.00  0.00     0.150 C 
HETATM    5  C   UNK N   1      21.673  14.264   4.560  0.00  0.00     0.154 C 
HETATM    6  C   UNK N   1      23.014  13.605   4.943  0.00  0.00     0.035 C 
HETATM    7  C   UNK N   1      23.994  13.649   3.798  0.00  0.00    -0.015 C 
HETATM    8  C   UNK N   1      25.315  13.936   3.878  0.00  0.00    -0.055 C 
HETATM    9  C   UNK N   1      26.054  14.238   5.190  0.00  0.00     0.194 C 
HETATM   10  C   UNK N   1      27.598  14.393   5.015  0.00  0.00     0.177 C 
HETATM   11  C   UNK N   1      28.350  15.356   5.916  0.00  0.00     0.008 C 
HETATM   12  C   UNK N   1      28.116  16.670   5.976  0.00  0.00    -0.001 C 
HETATM   13  C   UNK N   1      27.027  17.310   5.226  0.00  0.00     0.012 C 
HETATM   14  C   UNK N   1      26.824  18.637   5.216  0.00  0.00     0.006 C 
HETATM   15  C   UNK N   1      25.623  19.175   4.543  0.00  0.00     0.251 C 
HETATM   16  O   UNK N   1      25.380  20.374   4.603  0.00  0.00    -0.268 OA
HETATM   17  N   UNK N   1      24.745  18.314   3.967  0.00  0.00    -0.320 N 
HETATM   18  C   UNK N   1      23.453  18.625   3.453  0.00  0.00     0.090 C 
HETATM   19  C   UNK N   1      23.044  19.889   3.243  0.00  0.00     0.090 C 
HETATM   20  C   UNK N   1      21.643  20.164   2.861  0.00  0.00     0.201 C 
HETATM   21  O   UNK N   1      21.294  21.311   2.632  0.00  0.00    -0.286 OA
HETATM   22  C   UNK N   1      20.646  19.061   2.868  0.00  0.00     0.086 C 
HETATM   23  C   UNK N   1      21.050  17.790   3.084  0.00  0.00     0.025 C 
HETATM   24  C   UNK N   1      20.028  16.689   3.259  0.00  0.00     0.049 C 
HETATM   25  C   UNK N   1      22.496  17.517   3.295  0.00  0.00     0.207 C 
HETATM   26  O   UNK N   1      22.899  16.375   3.413  0.00  0.00    -0.285 OA
HETATM   27  C   UNK N   1      27.736  19.561   5.967  0.00  0.00     0.054 C 
HETATM   28  C   UNK N   1      26.079  13.947   2.593  0.00  0.00     0.046 C 
HETATM   29  C   UNK N   1      22.794  12.183   5.428  0.00  0.00     0.017 C 
HETATM   30  H   UNK N   1      25.033  17.374   3.897  0.00  0.00     0.169 HD
ENDROOT
BRANCH   9  31
HETATM   31  O   UNK N   1      25.720  13.375   6.225  0.00  0.00    -0.291 OA
BRANCH  31  32
HETATM   32  C   UNK N   1      25.384  13.735   7.495  0.00  0.00     0.359 C 
HETATM   33  O   UNK N   1      25.588  14.877   7.867  0.00  0.00    -0.239 OA
HETATM   34  N   UNK N   1      24.789  12.861   8.337  0.00  0.00    -0.346 N 
HETATM   35  H   UNK N   1      24.713  12.090   8.944  0.00  0.00     0.161 HD
HETATM   36  H   UNK N   1      23.868  13.209   8.353  0.00  0.00     0.161 HD
ENDBRANCH  31  32
ENDBRANCH   9  31
BRANCH  10  37
HETATM   37  O   UNK N   1      28.294  13.186   4.760  0.00  0.00    -0.384 OA
HETATM   38  C   UNK N   1      29.643  13.470   4.473  0.00  0.00     0.202 C 
ENDBRANCH  10  37
BRANCH   5  39
HETATM   39  O   UNK N   1      21.015  14.711   5.706  0.00  0.00    -0.392 OA
HETATM   40  H   UNK N   1      20.656  15.250   6.428  0.00  0.00     0.210 HD
ENDBRANCH   5  39
BRANCH   4  41
HETATM   41  O   UNK N   1      21.349  12.666   2.719  0.00  0.00    -0.388 OA
HETATM   42  C   UNK N   1      20.439  11.648   2.416  0.00  0.00     0.202 C 
ENDBRANCH   4  41
BRANCH  22  43
HETATM   43  N   UNK N   1      19.273  19.360   2.698  0.00  0.00    -0.395 N 
HETATM   44  H   UNK N   1      18.625  18.678   2.405  0.00  0.00     0.156 HD
HETATM   45  H   UNK N   1      18.956  20.275   2.878  0.00  0.00     0.156 HD
ENDBRANCH  22  43
TORSDOF 6
ENDMDL
MODEL 7
REMARK VINA RESULT:      -7.0      2.596      8.077
REMARK  6 active torsions:
REMARK  status: ('A' for Active; 'I' for Inactive)
REMARK    1  A    between atoms: C_4  and  O_38 
REMARK    2  A    between atoms: C_5  and  O_37 
REMARK    3  A    between atoms: C_9  and  O_31 
REMARK    4  A    between atoms: C_10  and  O_29 
REMARK    5  A    between atoms: C_22  and  N_27 
REMARK    6  A    between atoms: O_31  and  C_32 
REMARK       I    between atoms: C_32  and  N_34 
ROOT
HETATM    1  C   UNK N   1      30.319  19.562  -6.474  0.00  0.00     0.010 C 
HETATM    2  C   UNK N   1      31.757  20.049  -6.361  0.00  0.00    -0.012 C 
HETATM    3  C   UNK N   1      32.507  20.106  -7.703  0.00  0.00     0.039 C 
HETATM    4  C   UNK N   1      31.762  20.755  -8.888  0.00  0.00     0.150 C 
HETATM    5  C   UNK N   1      31.160  22.147  -8.584  0.00  0.00     0.154 C 
HETATM    6  C   UNK N   1      30.125  22.699  -9.587  0.00  0.00     0.035 C 
HETATM    7  C   UNK N   1      28.772  22.067  -9.383  0.00  0.00    -0.015 C 
HETATM    8  C   UNK N   1      27.575  22.699  -9.408  0.00  0.00    -0.055 C 
HETATM    9  C   UNK N   1      27.397  24.197  -9.690  0.00  0.00     0.194 C 
HETATM   10  C   UNK N   1      25.903  24.638  -9.803  0.00  0.00     0.177 C 
HETATM   11  C   UNK N   1      25.506  26.030  -9.345  0.00  0.00     0.008 C 
HETATM   12  C   UNK N   1      25.660  26.486  -8.098  0.00  0.00    -0.001 C 
HETATM   13  C   UNK N   1      26.320  25.697  -7.049  0.00  0.00     0.012 C 
HETATM   14  C   UNK N   1      26.416  26.107  -5.774  0.00  0.00     0.006 C 
HETATM   15  C   UNK N   1      27.215  25.309  -4.821  0.00  0.00     0.251 C 
HETATM   16  O   UNK N   1      27.385  25.719  -3.679  0.00  0.00    -0.268 OA
HETATM   17  N   UNK N   1      27.848  24.191  -5.262  0.00  0.00    -0.320 N 
HETATM   18  C   UNK N   1      28.809  23.415  -4.550  0.00  0.00     0.090 C 
HETATM   19  C   UNK N   1      29.019  23.558  -3.230  0.00  0.00     0.090 C 
HETATM   20  C   UNK N   1      30.133  22.844  -2.572  0.00  0.00     0.201 C 
HETATM   21  O   UNK N   1      30.289  22.949  -1.366  0.00  0.00    -0.286 OA
HETATM   22  C   UNK N   1      31.121  22.099  -3.395  0.00  0.00     0.086 C 
HETATM   23  C   UNK N   1      30.919  21.957  -4.724  0.00  0.00     0.025 C 
HETATM   24  C   UNK N   1      31.996  21.350  -5.595  0.00  0.00     0.049 C 
HETATM   25  C   UNK N   1      29.695  22.539  -5.335  0.00  0.00     0.207 C 
HETATM   26  O   UNK N   1      29.447  22.359  -6.513  0.00  0.00    -0.285 OA
HETATM   27  C   UNK N   1      25.817  27.411  -5.338  0.00  0.00     0.054 C 
HETATM   28  C   UNK N   1      26.366  21.858  -9.147  0.00  0.00     0.046 C 
HETATM   29  C   UNK N   1      30.611  22.518 -11.015  0.00  0.00     0.017 C 
HETATM   30  H   UNK N   1      27.618  23.883  -6.169  0.00  0.00     0.169 HD
ENDROOT
BRANCH   9  31
HETATM   31  O   UNK N   1      28.167  24.657 -10.750  0.00  0.00    -0.291 OA
BRANCH  31  32
HETATM   32  C   UNK N   1      28.713  25.900 -10.868  0.00  0.00     0.359 C 
HETATM   33  O   UNK N   1      28.249  26.681 -11.680  0.00  0.00    -0.239 OA
HETATM   34  N   UNK N   1      29.728  26.298 -10.072  0.00  0.00    -0.346 N 
HETATM   35  H   UNK N   1      30.649  26.345  -9.724  0.00  0.00     0.161 HD
HETATM   36  H   UNK N   1      29.265  26.925  -9.470  0.00  0.00     0.161 HD
ENDBRANCH  31  32
ENDBRANCH   9  31
BRANCH  10  37
HETATM   37  O   UNK N   1      25.242  24.214 -10.982  0.00  0.00    -0.384 OA
HETATM   38  C   UNK N   1      24.818  25.338 -11.717  0.00  0.00     0.202 C 
ENDBRANCH  10  37
BRANCH   5  39
HETATM   39  O   UNK N   1      32.187  23.073  -8.399  0.00  0.00    -0.392 OA
HETATM   40  H   UNK N   1      32.728  23.878  -8.379  0.00  0.00     0.210 HD
ENDBRANCH   5  39
BRANCH   4  41
HETATM   41  O   UNK N   1      30.833  19.859  -9.421  0.00  0.00    -0.388 OA
HETATM   42  C   UNK N   1      31.610  18.939 -10.135  0.00  0.00     0.202 C 
ENDBRANCH   4  41
BRANCH  22  43
HETATM   43  N   UNK N   1      32.293  21.587  -2.789  0.00  0.00    -0.395 N 
HETATM   44  H   UNK N   1      32.655  20.702  -3.022  0.00  0.00     0.156 HD
HETATM   45  H   UNK N   1      32.760  22.132  -2.114  0.00  0.00     0.156 HD
ENDBRANCH  22  43
TORSDOF 6
ENDMDL
MODEL 8
REMARK VINA RESULT:      -6.9     12.304     15.276
REMARK  6 active torsions:
REMARK  status: ('A' for Active; 'I' for Inactive)
REMARK    1  A    between atoms: C_4  and  O_38 
REMARK    2  A    between atoms: C_5  and  O_37 
REMARK    3  A    between atoms: C_9  and  O_31 
REMARK    4  A    between atoms: C_10  and  O_29 
REMARK    5  A    between atoms: C_22  and  N_27 
REMARK    6  A    between atoms: O_31  and  C_32 
REMARK       I    between atoms: C_32  and  N_34 
ROOT
HETATM    1  C   UNK N   1      27.616  18.378   6.153  0.00  0.00     0.010 C 
HETATM    2  C   UNK N   1      28.268  18.612   4.798  0.00  0.00    -0.012 C 
HETATM    3  C   UNK N   1      29.404  17.628   4.470  0.00  0.00     0.039 C 
HETATM    4  C   UNK N   1      29.125  16.134   4.734  0.00  0.00     0.150 C 
HETATM    5  C   UNK N   1      27.806  15.607   4.121  0.00  0.00     0.154 C 
HETATM    6  C   UNK N   1      27.294  14.240   4.621  0.00  0.00     0.035 C 
HETATM    7  C   UNK N   1      26.623  14.364   5.966  0.00  0.00    -0.015 C 
HETATM    8  C   UNK N   1      25.478  13.756   6.353  0.00  0.00    -0.055 C 
HETATM    9  C   UNK N   1      24.675  12.787   5.473  0.00  0.00     0.194 C 
HETATM   10  C   UNK N   1      23.477  12.116   6.217  0.00  0.00     0.177 C 
HETATM   11  C   UNK N   1      22.221  11.773   5.434  0.00  0.00     0.008 C 
HETATM   12  C   UNK N   1      21.464  12.669   4.794  0.00  0.00    -0.001 C 
HETATM   13  C   UNK N   1      21.828  14.090   4.711  0.00  0.00     0.012 C 
HETATM   14  C   UNK N   1      21.043  15.015   4.137  0.00  0.00     0.006 C 
HETATM   15  C   UNK N   1      21.554  16.393   3.981  0.00  0.00     0.251 C 
HETATM   16  O   UNK N   1      20.885  17.224   3.380  0.00  0.00    -0.268 OA
HETATM   17  N   UNK N   1      22.812  16.685   4.404  0.00  0.00    -0.320 N 
HETATM   18  C   UNK N   1      23.539  17.887   4.161  0.00  0.00     0.090 C 
HETATM   19  C   UNK N   1      22.954  19.002   3.689  0.00  0.00     0.090 C 
HETATM   20  C   UNK N   1      23.778  20.168   3.306  0.00  0.00     0.201 C 
HETATM   21  O   UNK N   1      23.234  21.190   2.917  0.00  0.00    -0.286 OA
HETATM   22  C   UNK N   1      25.260  20.052   3.288  0.00  0.00     0.086 C 
HETATM   23  C   UNK N   1      25.852  18.931   3.756  0.00  0.00     0.025 C 
HETATM   24  C   UNK N   1      27.342  18.734   3.588  0.00  0.00     0.049 C 
HETATM   25  C   UNK N   1      25.003  17.837   4.299  0.00  0.00     0.207 C 
HETATM   26  O   UNK N   1      25.512  16.851   4.800  0.00  0.00    -0.285 OA
HETATM   27  C   UNK N   1      19.710  14.644   3.561  0.00  0.00     0.054 C 
HETATM   28  C   UNK N   1      24.990  14.060   7.734  0.00  0.00     0.046 C 
HETATM   29  C   UNK N   1      28.423  13.225   4.659  0.00  0.00     0.017 C 
HETATM   30  H   UNK N   1      23.269  15.993   4.935  0.00  0.00     0.169 HD
ENDROOT
BRANCH   9  31
HETATM   31  O   UNK N   1      25.466  11.865   4.800  0.00  0.00    -0.291 OA
BRANCH  31  32
HETATM   32  C   UNK N   1      25.219  11.342   3.567  0.00  0.00     0.359 C 
HETATM   33  O   UNK N   1      24.923  10.164   3.466  0.00  0.00    -0.239 OA
HETATM   34  N   UNK N   1      25.252  12.113   2.459  0.00  0.00    -0.346 N 
HETATM   35  H   UNK N   1      25.648  12.647   1.732  0.00  0.00     0.161 HD
HETATM   36  H   UNK N   1      24.293  12.189   2.250  0.00  0.00     0.161 HD
ENDBRANCH  31  32
ENDBRANCH   9  31
BRANCH  10  37
HETATM   37  O   UNK N   1      23.839  11.137   7.174  0.00  0.00    -0.384 OA
HETATM   38  C   UNK N   1      23.401   9.870   6.743  0.00  0.00     0.202 C 
ENDBRANCH  10  37
BRANCH   5  39
HETATM   39  O   UNK N   1      27.904  15.600   2.729  0.00  0.00    -0.392 OA
HETATM   40  H   UNK N   1      27.723  15.524   1.779  0.00  0.00     0.210 HD
ENDBRANCH   5  39
BRANCH   4  41
HETATM   41  O   UNK N   1      29.247  15.854   6.097  0.00  0.00    -0.388 OA
HETATM   42  C   UNK N   1      30.628  15.849   6.326  0.00  0.00     0.202 C 
ENDBRANCH   4  41
BRANCH  22  43
HETATM   43  N   UNK N   1      26.036  21.096   2.733  0.00  0.00    -0.395 N 
HETATM   44  H   UNK N   1      25.717  21.634   1.973  0.00  0.00     0.156 HD
HETATM   45  H   UNK N   1      26.922  21.291   3.118  0.00  0.00     0.156 HD
ENDBRANCH  22  43
TORSDOF 6
ENDMDL
MODEL 9
REMARK VINA RESULT:      -6.8     12.284     15.453
REMARK  6 active torsions:
REMARK  status: ('A' for Active; 'I' for Inactive)
REMARK    1  A    between atoms: C_4  and  O_38 
REMARK    2  A    between atoms: C_5  and  O_37 
REMARK    3  A    between atoms: C_9  and  O_31 
REMARK    4  A    between atoms: C_10  and  O_29 
REMARK    5  A    between atoms: C_22  and  N_27 
REMARK    6  A    between atoms: O_31  and  C_32 
REMARK       I    between atoms: C_32  and  N_34 
ROOT
HETATM    1  C   UNK N   1      27.841  15.413   5.947  0.00  0.00     0.010 C 
HETATM    2  C   UNK N   1      28.770  15.765   4.794  0.00  0.00    -0.012 C 
HETATM    3  C   UNK N   1      29.185  14.561   3.932  0.00  0.00     0.039 C 
HETATM    4  C   UNK N   1      28.061  13.594   3.503  0.00  0.00     0.150 C 
HETATM    5  C   UNK N   1      26.834  14.280   2.858  0.00  0.00     0.154 C 
HETATM    6  C   UNK N   1      25.548  13.438   2.720  0.00  0.00     0.035 C 
HETATM    7  C   UNK N   1      24.810  13.345   4.032  0.00  0.00    -0.015 C 
HETATM    8  C   UNK N   1      23.472  13.443   4.212  0.00  0.00    -0.055 C 
HETATM    9  C   UNK N   1      22.461  13.635   3.073  0.00  0.00     0.194 C 
HETATM   10  C   UNK N   1      20.973  13.570   3.543  0.00  0.00     0.177 C 
HETATM   11  C   UNK N   1      19.935  14.416   2.827  0.00  0.00     0.008 C 
HETATM   12  C   UNK N   1      19.968  15.750   2.756  0.00  0.00    -0.001 C 
HETATM   13  C   UNK N   1      21.082  16.539   3.301  0.00  0.00     0.012 C 
HETATM   14  C   UNK N   1      21.096  17.881   3.305  0.00  0.00     0.006 C 
HETATM   15  C   UNK N   1      22.317  18.584   3.750  0.00  0.00     0.251 C 
HETATM   16  O   UNK N   1      22.376  19.805   3.674  0.00  0.00    -0.268 OA
HETATM   17  N   UNK N   1      23.401  17.856   4.126  0.00  0.00    -0.320 N 
HETATM   18  C   UNK N   1      24.712  18.349   4.392  0.00  0.00     0.090 C 
HETATM   19  C   UNK N   1      24.974  19.658   4.552  0.00  0.00     0.090 C 
HETATM   20  C   UNK N   1      26.370  20.128   4.667  0.00  0.00     0.201 C 
HETATM   21  O   UNK N   1      26.594  21.314   4.854  0.00  0.00    -0.286 OA
HETATM   22  C   UNK N   1      27.490  19.178   4.443  0.00  0.00     0.086 C 
HETATM   23  C   UNK N   1      27.233  17.861   4.276  0.00  0.00     0.025 C 
HETATM   24  C   UNK N   1      28.345  16.915   3.881  0.00  0.00     0.049 C 
HETATM   25  C   UNK N   1      25.825  17.387   4.337  0.00  0.00     0.207 C 
HETATM   26  O   UNK N   1      25.570  16.199   4.270  0.00  0.00    -0.285 OA
HETATM   27  C   UNK N   1      19.938  18.665   2.765  0.00  0.00     0.054 C 
HETATM   28  C   UNK N   1      22.976  13.348   5.619  0.00  0.00     0.046 C 
HETATM   29  C   UNK N   1      25.867  12.059   2.167  0.00  0.00     0.017 C 
HETATM   30  H   UNK N   1      23.266  16.886   4.227  0.00  0.00     0.169 HD
ENDROOT
BRANCH   9  31
HETATM   31  O   UNK N   1      22.705  12.825   1.972  0.00  0.00    -0.291 OA
BRANCH  31  32
HETATM   32  C   UNK N   1      22.755  13.229   0.672  0.00  0.00     0.359 C 
HETATM   33  O   UNK N   1      22.421  14.366   0.386  0.00  0.00    -0.239 OA
HETATM   34  N   UNK N   1      23.210  12.409  -0.300  0.00  0.00    -0.346 N 
HETATM   35  H   UNK N   1      23.201  11.655  -0.934  0.00  0.00     0.161 HD
HETATM   36  H   UNK N   1      24.089  12.809  -0.492  0.00  0.00     0.161 HD
ENDBRANCH  31  32
ENDBRANCH   9  31
BRANCH  10  37
HETATM   37  O   UNK N   1      20.512  12.278   3.896  0.00  0.00    -0.384 OA
HETATM   38  C   UNK N   1      19.265  12.380   4.540  0.00  0.00     0.202 C 
ENDBRANCH  10  37
BRANCH   5  39
HETATM   39  O   UNK N   1      27.191  14.813   1.618  0.00  0.00    -0.392 OA
HETATM   40  H   UNK N   1      27.270  15.004   0.671  0.00  0.00     0.210 HD
ENDBRANCH   5  39
BRANCH   4  41
HETATM   41  O   UNK N   1      27.724  12.748   4.562  0.00  0.00    -0.388 OA
HETATM   42  C   UNK N   1      28.714  11.759   4.542  0.00  0.00     0.202 C 
ENDBRANCH   4  41
BRANCH  22  43
HETATM   43  N   UNK N   1      28.816  19.667   4.355  0.00  0.00    -0.395 N 
HETATM   44  H   UNK N   1      29.018  20.555   3.983  0.00  0.00     0.156 HD
HETATM   45  H   UNK N   1      29.556  19.103   4.677  0.00  0.00     0.156 HD
ENDBRANCH  22  43
TORSDOF 6
ENDMDL
