REMARK  6 active torsions:
REMARK  status: ('A' for Active; 'I' for Inactive)
REMARK    1  A    between atoms: C_2  and  C_11 
REMARK    2  A    between atoms: C_5  and  O_10 
REMARK    3  A    between atoms: C_7  and  C_8 
REMARK    4  A    between atoms: C_8  and  O_9 
REMARK    5  A    between atoms: C_16  and  C_17 
REMARK    6  A    between atoms: C_17  and  N_18 
ROOT
HETATM    1  C   UNK N   1       3.122   2.451   1.111  0.00  0.00     0.000 C 
HETATM    2  C   UNK N   1       3.310   0.953   1.366  0.00  0.00     0.007 C 
HETATM    3  C   UNK N   1       2.933   0.127   0.144  0.00  0.00     0.014 C 
HETATM    4  C   UNK N   1       1.473   0.325  -0.278  0.00  0.00    -0.017 C 
HETATM    5  C   UNK N   1       1.098   1.811  -0.434  0.00  0.00     0.004 C 
HETATM    6  C   UNK N   1       1.633   2.681   0.734  0.00  0.00     0.013 C 
HETATM    7  C   UNK N   1      -0.430   1.789  -0.311  0.00  0.00     0.010 C 
HETATM    8  C   UNK N   1      -0.734   0.754   0.774  0.00  0.00     0.034 C 
HETATM    9  C   UNK N   1       0.448  -0.144   0.703  0.00  0.00    -0.081 C 
HETATM   10  C   UNK N   1       0.395  -1.396   1.170  0.00  0.00     0.015 C 
HETATM   11  C   UNK N   1       1.266  -0.405  -1.599  0.00  0.00     0.020 C 
ENDROOT
BRANCH   1  12
HETATM   12  C   UNK N   1       4.229   3.169   0.265  0.00  0.00    -0.034 C 
HETATM   13  C   UNK N   1       4.037   2.898  -1.229  0.00  0.00     0.016 C 
HETATM   14  C   UNK N   1       4.065   4.675   0.543  0.00  0.00     0.012 C 
HETATM   15  C   UNK N   1       5.135   5.541  -0.110  0.00  0.00     0.032 C 
HETATM   16  C   UNK N   1       6.496   5.130   0.420  0.00  0.00     0.118 C 
HETATM   17  C   UNK N   1       6.745   3.674   0.066  0.00  0.00     0.039 C 
HETATM   18  C   UNK N   1       5.679   2.770   0.703  0.00  0.00     0.020 C 
BRANCH  16  19
HETATM   19  O   UNK N   1       7.481   5.929  -0.158  0.00  0.00    -0.396 OA
HETATM   20  H   UNK N   1       8.305   5.612  -0.560  0.00  0.00     0.210 HD
ENDBRANCH  16  19
BRANCH  18  21
HETATM   21  C   UNK N   1       6.035   1.320   0.373  0.00  0.00     0.169 C 
BRANCH  21  22
HETATM   22  O   UNK N   1       7.281   0.988   0.908  0.00  0.00    -0.400 OA
HETATM   23  H   UNK N   1       7.514   0.123   1.279  0.00  0.00     0.209 HD
ENDBRANCH  21  22
ENDBRANCH  18  21
ENDBRANCH   1  12
BRANCH   6  24
HETATM   24  C   UNK N   1       1.164   4.139   0.664  0.00  0.00     0.116 C 
BRANCH  24  25
HETATM   25  N   UNK N   1       1.391   4.705  -0.658  0.00  0.00    -0.430 N 
HETATM   26  H   UNK N   1       1.814   4.766  -1.584  0.00  0.00     0.149 HD
HETATM   27  H   UNK N   1       0.760   5.507  -0.658  0.00  0.00     0.149 HD
ENDBRANCH  24  25
ENDBRANCH   6  24
TORSDOF 6
