MODEL 1
REMARK VINA RESULT:      -7.4      0.000      0.000
REMARK  6 active torsions:
REMARK  status: ('A' for Active; 'I' for Inactive)
REMARK    1  A    between atoms: C_3  and  C_7 
REMARK       I    between atoms: C_7  and  N_9 
REMARK    2  A    between atoms: N_9  and  N_10 
REMARK       I    between atoms: N_10  and  C_11 
REMARK    3  A    between atoms: C_13  and  C_11 
REMARK    4  A    between atoms: N_21  and  O_22 
REMARK    5  A    between atoms: O_22  and  S_23 
REMARK    6  A    between atoms: S_23  and  O_26 
ROOT
HETATM    1  C   UNK N   1      21.211  15.495   6.288  0.00  0.00     0.161 C 
HETATM    2  C   UNK N   1      22.767  15.713   6.201  0.00  0.00     0.032 C 
HETATM    3  C   UNK N   1      23.211  17.025   5.403  0.00  0.00     0.031 C 
HETATM    4  C   UNK N   1      22.161  18.212   5.335  0.00  0.00     0.134 C 
HETATM    5  C   UNK N   1      21.273  17.909   6.541  0.00  0.00     0.129 C 
HETATM    6  N   UNK N   1      20.581  16.751   6.011  0.00  0.00    -0.217 NA
HETATM    7  C   UNK N   1      20.392  16.969   4.716  0.00  0.00     0.325 C 
HETATM    8  O   UNK N   1      19.769  16.222   3.973  0.00  0.00    -0.251 OA
HETATM    9  N   UNK N   1      21.207  17.918   4.279  0.00  0.00    -0.187 N 
ENDROOT
BRANCH   1  10
HETATM   10  C   UNK N   1      20.548  14.805   7.457  0.00  0.00     0.254 C 
HETATM   11  N   UNK N   1      20.750  13.505   7.778  0.00  0.00    -0.266 N 
HETATM   12  H   UNK N   1      20.286  13.139   8.565  0.00  0.00     0.190 HD
HETATM   13  O   UNK N   1      19.780  15.460   8.143  0.00  0.00    -0.270 OA
BRANCH  11  14
HETATM   14  N   UNK N   1      21.571  12.675   7.058  0.00  0.00    -0.267 N 
HETATM   15  C   UNK N   1      22.714  12.186   7.599  0.00  0.00     0.241 C 
HETATM   16  O   UNK N   1      23.407  11.432   6.933  0.00  0.00    -0.271 OA
HETATM   17  H   UNK N   1      21.327  12.430   6.136  0.00  0.00     0.190 HD
BRANCH  15  18
HETATM   18  C   UNK N   1      23.133  12.560   9.008  0.00  0.00     0.097 C 
HETATM   19  C   UNK N   1      22.616  11.551  10.034  0.00  0.00     0.017 C 
HETATM   20  C   UNK N   1      23.035  11.977  11.433  0.00  0.00     0.020 C 
HETATM   21  C   UNK N   1      24.556  12.087  11.472  0.00  0.00     0.113 C 
HETATM   22  N   UNK N   1      25.013  13.089  10.510  0.00  0.00    -0.420 N 
HETATM   23  C   UNK N   1      24.657  12.663   9.156  0.00  0.00     0.127 C 
HETATM   24  H   UNK N   1      25.505  13.952  10.746  0.00  0.00     0.153 HD
ENDBRANCH  15  18
ENDBRANCH  11  14
ENDBRANCH   1  10
BRANCH   9  25
HETATM   25  O   UNK N   1      21.364  18.248   2.988  0.00  0.00    -0.132 OA
BRANCH  25  26
HETATM   26  S   UNK N   1      20.169  19.462   2.695  0.00  0.00     0.263 S 
HETATM   27  O   UNK N   1      20.533  20.235   1.419  0.00  0.00    -0.578 OA
HETATM   28  O   UNK N   1      20.211  20.509   3.816  0.00  0.00    -0.578 OA
BRANCH  26  29
HETATM   29  O   UNK N   1      18.559  18.879   2.548  0.00  0.00    -0.272 OA
HETATM   30  H   UNK N   1      17.597  18.817   2.659  0.00  0.00     0.234 HD
ENDBRANCH  26  29
ENDBRANCH  25  26
ENDBRANCH   9  25
TORSDOF 6
ENDMDL
MODEL 2
REMARK VINA RESULT:      -7.4     11.597     14.792
REMARK  6 active torsions:
REMARK  status: ('A' for Active; 'I' for Inactive)
REMARK    1  A    between atoms: C_3  and  C_7 
REMARK       I    between atoms: C_7  and  N_9 
REMARK    2  A    between atoms: N_9  and  N_10 
REMARK       I    between atoms: N_10  and  C_11 
REMARK    3  A    between atoms: C_13  and  C_11 
REMARK    4  A    between atoms: N_21  and  O_22 
REMARK    5  A    between atoms: O_22  and  S_23 
REMARK    6  A    between atoms: S_23  and  O_26 
ROOT
HETATM    1  C   UNK N   1      34.980  16.638   8.696  0.00  0.00     0.161 C 
HETATM    2  C   UNK N   1      34.933  15.376   7.756  0.00  0.00     0.032 C 
HETATM    3  C   UNK N   1      34.992  13.974   8.522  0.00  0.00     0.031 C 
HETATM    4  C   UNK N   1      34.489  13.958  10.026  0.00  0.00     0.134 C 
HETATM    5  C   UNK N   1      33.590  15.192  10.065  0.00  0.00     0.129 C 
HETATM    6  N   UNK N   1      34.621  16.209  10.015  0.00  0.00    -0.217 NA
HETATM    7  C   UNK N   1      35.652  15.754  10.716  0.00  0.00     0.325 C 
HETATM    8  O   UNK N   1      36.670  16.394  10.943  0.00  0.00    -0.251 OA
HETATM    9  N   UNK N   1      35.566  14.441  10.872  0.00  0.00    -0.187 N 
ENDROOT
BRANCH   1  10
HETATM   10  C   UNK N   1      34.298  17.941   8.348  0.00  0.00     0.254 C 
HETATM   11  N   UNK N   1      32.968  18.057   8.124  0.00  0.00    -0.266 N 
HETATM   12  H   UNK N   1      32.604  18.948   7.915  0.00  0.00     0.190 HD
HETATM   13  O   UNK N   1      34.992  18.940   8.257  0.00  0.00    -0.270 OA
BRANCH  11  14
HETATM   14  N   UNK N   1      32.103  16.994   8.176  0.00  0.00    -0.267 N 
HETATM   15  C   UNK N   1      31.713  16.357   7.045  0.00  0.00     0.241 C 
HETATM   16  O   UNK N   1      30.959  15.401   7.135  0.00  0.00    -0.271 OA
HETATM   17  H   UNK N   1      31.760  16.689   9.047  0.00  0.00     0.190 HD
BRANCH  15  18
HETATM   18  C   UNK N   1      32.204  16.814   5.684  0.00  0.00     0.097 C 
HETATM   19  C   UNK N   1      32.782  15.652   4.875  0.00  0.00     0.017 C 
HETATM   20  C   UNK N   1      33.284  16.158   3.531  0.00  0.00     0.020 C 
HETATM   21  C   UNK N   1      32.125  16.827   2.800  0.00  0.00     0.113 C 
HETATM   22  N   UNK N   1      31.623  17.958   3.579  0.00  0.00    -0.420 N 
HETATM   23  C   UNK N   1      31.093  17.475   4.855  0.00  0.00     0.127 C 
HETATM   24  H   UNK N   1      31.640  18.935   3.281  0.00  0.00     0.153 HD
ENDBRANCH  15  18
ENDBRANCH  11  14
ENDBRANCH   1  10
BRANCH   9  25
HETATM   25  O   UNK N   1      36.534  13.675  11.397  0.00  0.00    -0.132 OA
BRANCH  25  26
HETATM   26  S   UNK N   1      36.240  13.697  13.099  0.00  0.00     0.263 S 
HETATM   27  O   UNK N   1      36.841  12.434  13.736  0.00  0.00    -0.578 OA
HETATM   28  O   UNK N   1      34.733  13.593  13.366  0.00  0.00    -0.578 OA
BRANCH  26  29
HETATM   29  O   UNK N   1      36.850  15.076  13.927  0.00  0.00    -0.272 OA
HETATM   30  H   UNK N   1      37.229  15.622  14.632  0.00  0.00     0.234 HD
ENDBRANCH  26  29
ENDBRANCH  25  26
ENDBRANCH   9  25
TORSDOF 6
ENDMDL
MODEL 3
REMARK VINA RESULT:      -7.1     13.216     16.659
REMARK  6 active torsions:
REMARK  status: ('A' for Active; 'I' for Inactive)
REMARK    1  A    between atoms: C_3  and  C_7 
REMARK       I    between atoms: C_7  and  N_9 
REMARK    2  A    between atoms: N_9  and  N_10 
REMARK       I    between atoms: N_10  and  C_11 
REMARK    3  A    between atoms: C_13  and  C_11 
REMARK    4  A    between atoms: N_21  and  O_22 
REMARK    5  A    between atoms: O_22  and  S_23 
REMARK    6  A    between atoms: S_23  and  O_26 
ROOT
HETATM    1  C   UNK N   1      36.766  12.934  11.555  0.00  0.00     0.161 C 
HETATM    2  C   UNK N   1      37.616  11.706  12.053  0.00  0.00     0.032 C 
HETATM    3  C   UNK N   1      37.369  11.303  13.581  0.00  0.00     0.031 C 
HETATM    4  C   UNK N   1      35.971  11.707  14.211  0.00  0.00     0.134 C 
HETATM    5  C   UNK N   1      35.103  11.864  12.964  0.00  0.00     0.129 C 
HETATM    6  N   UNK N   1      35.670  13.100  12.463  0.00  0.00    -0.217 NA
HETATM    7  C   UNK N   1      35.972  13.846  13.518  0.00  0.00     0.325 C 
HETATM    8  O   UNK N   1      36.404  14.990  13.454  0.00  0.00    -0.251 OA
HETATM    9  N   UNK N   1      36.037  13.102  14.612  0.00  0.00    -0.187 N 
ENDROOT
BRANCH   1  10
HETATM   10  C   UNK N   1      36.307  13.081  10.123  0.00  0.00     0.254 C 
HETATM   11  N   UNK N   1      35.994  14.267   9.551  0.00  0.00    -0.266 N 
HETATM   12  H   UNK N   1      35.715  14.272   8.606  0.00  0.00     0.190 HD
HETATM   13  O   UNK N   1      36.206  12.067   9.452  0.00  0.00    -0.270 OA
BRANCH  11  14
HETATM   14  N   UNK N   1      36.047  15.461  10.223  0.00  0.00    -0.267 N 
HETATM   15  C   UNK N   1      35.317  16.526   9.811  0.00  0.00     0.241 C 
HETATM   16  O   UNK N   1      35.376  17.565  10.450  0.00  0.00    -0.271 OA
HETATM   17  H   UNK N   1      36.624  15.546  11.016  0.00  0.00     0.190 HD
BRANCH  15  18
HETATM   18  C   UNK N   1      34.435  16.438   8.580  0.00  0.00     0.097 C 
HETATM   19  C   UNK N   1      33.010  16.017   8.939  0.00  0.00     0.017 C 
HETATM   20  C   UNK N   1      32.167  15.915   7.676  0.00  0.00     0.020 C 
HETATM   21  C   UNK N   1      32.191  17.266   6.967  0.00  0.00     0.113 C 
HETATM   22  N   UNK N   1      33.562  17.618   6.600  0.00  0.00    -0.420 N 
HETATM   23  C   UNK N   1      34.369  17.766   7.813  0.00  0.00     0.127 C 
HETATM   24  H   UNK N   1      33.905  17.742   5.647  0.00  0.00     0.153 HD
ENDBRANCH  15  18
ENDBRANCH  11  14
ENDBRANCH   1  10
BRANCH   9  25
HETATM   25  O   UNK N   1      36.475  13.540  15.802  0.00  0.00    -0.132 OA
BRANCH  25  26
HETATM   26  S   UNK N   1      35.210  13.142  16.911  0.00  0.00     0.263 S 
HETATM   27  O   UNK N   1      33.851  13.326  16.218  0.00  0.00    -0.578 OA
HETATM   28  O   UNK N   1      35.201  14.150  18.069  0.00  0.00    -0.578 OA
BRANCH  26  29
HETATM   29  O   UNK N   1      35.286  11.554  17.565  0.00  0.00    -0.272 OA
HETATM   30  H   UNK N   1      35.164  10.596  17.651  0.00  0.00     0.234 HD
ENDBRANCH  26  29
ENDBRANCH  25  26
ENDBRANCH   9  25
TORSDOF 6
ENDMDL
MODEL 4
REMARK VINA RESULT:      -7.0     13.657     15.335
REMARK  6 active torsions:
REMARK  status: ('A' for Active; 'I' for Inactive)
REMARK    1  A    between atoms: C_3  and  C_7 
REMARK       I    between atoms: C_7  and  N_9 
REMARK    2  A    between atoms: N_9  and  N_10 
REMARK       I    between atoms: N_10  and  C_11 
REMARK    3  A    between atoms: C_13  and  C_11 
REMARK    4  A    between atoms: N_21  and  O_22 
REMARK    5  A    between atoms: O_22  and  S_23 
REMARK    6  A    between atoms: S_23  and  O_26 
ROOT
HETATM    1  C   UNK N   1      36.175  12.760  11.325  0.00  0.00     0.161 C 
HETATM    2  C   UNK N   1      36.100  12.009   9.943  0.00  0.00     0.032 C 
HETATM    3  C   UNK N   1      35.691  12.935   8.706  0.00  0.00     0.031 C 
HETATM    4  C   UNK N   1      35.998  14.486   8.839  0.00  0.00     0.134 C 
HETATM    5  C   UNK N   1      37.099  14.493   9.898  0.00  0.00     0.129 C 
HETATM    6  N   UNK N   1      36.287  14.161  11.052  0.00  0.00    -0.217 NA
HETATM    7  C   UNK N   1      35.113  14.758  10.887  0.00  0.00     0.325 C 
HETATM    8  O   UNK N   1      34.211  14.749  11.715  0.00  0.00    -0.251 OA
HETATM    9  N   UNK N   1      34.935  15.096   9.619  0.00  0.00    -0.187 N 
ENDROOT
BRANCH   1  10
HETATM   10  C   UNK N   1      37.123  12.347  12.427  0.00  0.00     0.254 C 
HETATM   11  N   UNK N   1      36.886  12.561  13.743  0.00  0.00    -0.266 N 
HETATM   12  H   UNK N   1      37.553  12.248  14.396  0.00  0.00     0.190 HD
HETATM   13  O   UNK N   1      38.164  11.798  12.105  0.00  0.00    -0.270 OA
BRANCH  11  14
HETATM   14  N   UNK N   1      35.761  13.192  14.209  0.00  0.00    -0.267 N 
HETATM   15  C   UNK N   1      35.103  12.727  15.299  0.00  0.00     0.241 C 
HETATM   16  O   UNK N   1      34.118  13.330  15.696  0.00  0.00    -0.271 OA
HETATM   17  H   UNK N   1      35.427  13.995  13.746  0.00  0.00     0.190 HD
BRANCH  15  18
HETATM   18  C   UNK N   1      35.576  11.481  16.023  0.00  0.00     0.097 C 
HETATM   19  C   UNK N   1      35.462  11.636  17.540  0.00  0.00     0.017 C 
HETATM   20  C   UNK N   1      35.969  10.377  18.227  0.00  0.00     0.020 C 
HETATM   21  C   UNK N   1      35.158   9.188  17.722  0.00  0.00     0.113 C 
HETATM   22  N   UNK N   1      35.323   9.043  16.276  0.00  0.00    -0.420 N 
HETATM   23  C   UNK N   1      34.792  10.230  15.604  0.00  0.00     0.127 C 
HETATM   24  H   UNK N   1      35.743   8.239  15.808  0.00  0.00     0.153 HD
ENDBRANCH  15  18
ENDBRANCH  11  14
ENDBRANCH   1  10
BRANCH   9  25
HETATM   25  O   UNK N   1      33.786  15.570   9.113  0.00  0.00    -0.132 OA
BRANCH  25  26
HETATM   26  S   UNK N   1      34.165  17.170   8.582  0.00  0.00     0.263 S 
HETATM   27  O   UNK N   1      32.877  18.005   8.524  0.00  0.00    -0.578 OA
HETATM   28  O   UNK N   1      34.672  17.127   7.134  0.00  0.00    -0.578 OA
BRANCH  26  29
HETATM   29  O   UNK N   1      35.321  18.003   9.544  0.00  0.00    -0.272 OA
HETATM   30  H   UNK N   1      35.730  18.431  10.312  0.00  0.00     0.234 HD
ENDBRANCH  26  29
ENDBRANCH  25  26
ENDBRANCH   9  25
TORSDOF 6
ENDMDL
MODEL 5
REMARK VINA RESULT:      -7.0      3.315      6.922
REMARK  6 active torsions:
REMARK  status: ('A' for Active; 'I' for Inactive)
REMARK    1  A    between atoms: C_3  and  C_7 
REMARK       I    between atoms: C_7  and  N_9 
REMARK    2  A    between atoms: N_9  and  N_10 
REMARK       I    between atoms: N_10  and  C_11 
REMARK    3  A    between atoms: C_13  and  C_11 
REMARK    4  A    between atoms: N_21  and  O_22 
REMARK    5  A    between atoms: O_22  and  S_23 
REMARK    6  A    between atoms: S_23  and  O_26 
ROOT
HETATM    1  C   UNK N   1      22.749  15.940   5.851  0.00  0.00     0.161 C 
HETATM    2  C   UNK N   1      23.044  14.893   6.990  0.00  0.00     0.032 C 
HETATM    3  C   UNK N   1      21.899  14.777   8.099  0.00  0.00     0.031 C 
HETATM    4  C   UNK N   1      20.433  15.197   7.662  0.00  0.00     0.134 C 
HETATM    5  C   UNK N   1      20.509  15.049   6.143  0.00  0.00     0.129 C 
HETATM    6  N   UNK N   1      21.341  16.201   5.858  0.00  0.00    -0.217 NA
HETATM    7  C   UNK N   1      20.989  17.156   6.709  0.00  0.00     0.325 C 
HETATM    8  O   UNK N   1      21.442  18.293   6.698  0.00  0.00    -0.251 OA
HETATM    9  N   UNK N   1      20.331  16.644   7.739  0.00  0.00    -0.187 N 
ENDROOT
BRANCH   1  10
HETATM   10  C   UNK N   1      23.261  15.774   4.439  0.00  0.00     0.254 C 
HETATM   11  N   UNK N   1      22.990  16.640   3.435  0.00  0.00    -0.266 N 
HETATM   12  H   UNK N   1      23.376  16.462   2.546  0.00  0.00     0.190 HD
HETATM   13  O   UNK N   1      23.950  14.797   4.195  0.00  0.00    -0.270 OA
BRANCH  11  14
HETATM   14  N   UNK N   1      22.206  17.754   3.596  0.00  0.00    -0.267 N 
HETATM   15  C   UNK N   1      22.758  18.990   3.671  0.00  0.00     0.241 C 
HETATM   16  O   UNK N   1      22.024  19.958   3.792  0.00  0.00    -0.271 OA
HETATM   17  H   UNK N   1      21.228  17.654   3.657  0.00  0.00     0.190 HD
BRANCH  15  18
HETATM   18  C   UNK N   1      24.262  19.178   3.602  0.00  0.00     0.097 C 
HETATM   19  C   UNK N   1      24.631  20.528   2.986  0.00  0.00     0.017 C 
HETATM   20  C   UNK N   1      26.145  20.664   2.913  0.00  0.00     0.020 C 
HETATM   21  C   UNK N   1      26.715  20.516   4.320  0.00  0.00     0.113 C 
HETATM   22  N   UNK N   1      26.379  19.200   4.863  0.00  0.00    -0.420 N 
HETATM   23  C   UNK N   1      24.926  19.078   4.983  0.00  0.00     0.127 C 
HETATM   24  H   UNK N   1      27.054  18.478   5.118  0.00  0.00     0.153 HD
ENDBRANCH  15  18
ENDBRANCH  11  14
ENDBRANCH   1  10
BRANCH   9  25
HETATM   25  O   UNK N   1      19.986  17.333   8.837  0.00  0.00    -0.132 OA
BRANCH  25  26
HETATM   26  S   UNK N   1      18.306  16.995   9.059  0.00  0.00     0.263 S 
HETATM   27  O   UNK N   1      18.148  15.625   9.737  0.00  0.00    -0.578 OA
HETATM   28  O   UNK N   1      17.624  16.840   7.693  0.00  0.00    -0.578 OA
BRANCH  26  29
HETATM   29  O   UNK N   1      17.441  18.167   9.975  0.00  0.00    -0.272 OA
HETATM   30  H   UNK N   1      17.057  19.018  10.236  0.00  0.00     0.234 HD
ENDBRANCH  26  29
ENDBRANCH  25  26
ENDBRANCH   9  25
TORSDOF 6
ENDMDL
MODEL 6
REMARK VINA RESULT:      -6.9     13.093     14.926
REMARK  6 active torsions:
REMARK  status: ('A' for Active; 'I' for Inactive)
REMARK    1  A    between atoms: C_3  and  C_7 
REMARK       I    between atoms: C_7  and  N_9 
REMARK    2  A    between atoms: N_9  and  N_10 
REMARK       I    between atoms: N_10  and  C_11 
REMARK    3  A    between atoms: C_13  and  C_11 
REMARK    4  A    between atoms: N_21  and  O_22 
REMARK    5  A    between atoms: O_22  and  S_23 
REMARK    6  A    between atoms: S_23  and  O_26 
ROOT
HETATM    1  C   UNK N   1      35.933  12.693   9.980  0.00  0.00     0.161 C 
HETATM    2  C   UNK N   1      35.114  11.961   8.852  0.00  0.00     0.032 C 
HETATM    3  C   UNK N   1      34.443  12.936   7.777  0.00  0.00     0.031 C 
HETATM    4  C   UNK N   1      35.120  14.356   7.578  0.00  0.00     0.134 C 
HETATM    5  C   UNK N   1      36.535  14.100   8.094  0.00  0.00     0.129 C 
HETATM    6  N   UNK N   1      36.233  14.012   9.509  0.00  0.00    -0.217 NA
HETATM    7  C   UNK N   1      35.269  14.890   9.757  0.00  0.00     0.325 C 
HETATM    8  O   UNK N   1      34.824  15.130  10.871  0.00  0.00    -0.251 OA
HETATM    9  N   UNK N   1      34.655  15.236   8.636  0.00  0.00    -0.187 N 
ENDROOT
BRANCH   1  10
HETATM   10  C   UNK N   1      37.136  12.071  10.649  0.00  0.00     0.254 C 
HETATM   11  N   UNK N   1      37.692  12.545  11.788  0.00  0.00    -0.266 N 
HETATM   12  H   UNK N   1      38.469  12.070  12.163  0.00  0.00     0.190 HD
HETATM   13  O   UNK N   1      37.636  11.091  10.122  0.00  0.00    -0.270 OA
BRANCH  11  14
HETATM   14  N   UNK N   1      37.225  13.654  12.446  0.00  0.00    -0.267 N 
HETATM   15  C   UNK N   1      36.508  13.536  13.590  0.00  0.00     0.241 C 
HETATM   16  O   UNK N   1      36.128  14.549  14.157  0.00  0.00    -0.271 OA
HETATM   17  H   UNK N   1      37.412  14.550  12.081  0.00  0.00     0.190 HD
BRANCH  15  18
HETATM   18  C   UNK N   1      36.181  12.172  14.168  0.00  0.00     0.097 C 
HETATM   19  C   UNK N   1      36.256  12.176  15.695  0.00  0.00     0.017 C 
HETATM   20  C   UNK N   1      35.947  10.786  16.231  0.00  0.00     0.020 C 
HETATM   21  C   UNK N   1      34.564  10.372  15.739  0.00  0.00     0.113 C 
HETATM   22  N   UNK N   1      34.539  10.337  14.277  0.00  0.00    -0.420 N 
HETATM   23  C   UNK N   1      34.787  11.682  13.753  0.00  0.00     0.127 C 
HETATM   24  H   UNK N   1      34.375   9.505  13.709  0.00  0.00     0.153 HD
ENDBRANCH  15  18
ENDBRANCH  11  14
ENDBRANCH   1  10
BRANCH   9  25
HETATM   25  O   UNK N   1      33.540  15.981   8.581  0.00  0.00    -0.132 OA
BRANCH  25  26
HETATM   26  S   UNK N   1      34.094  17.577   8.217  0.00  0.00     0.263 S 
HETATM   27  O   UNK N   1      32.898  18.541   8.208  0.00  0.00    -0.578 OA
HETATM   28  O   UNK N   1      34.646  17.620   6.785  0.00  0.00    -0.578 OA
BRANCH  26  29
HETATM   29  O   UNK N   1      35.292  18.194   9.285  0.00  0.00    -0.272 OA
HETATM   30  H   UNK N   1      35.740  18.786   9.910  0.00  0.00     0.234 HD
ENDBRANCH  26  29
ENDBRANCH  25  26
ENDBRANCH   9  25
TORSDOF 6
ENDMDL
MODEL 7
REMARK VINA RESULT:      -6.8      9.776     13.026
REMARK  6 active torsions:
REMARK  status: ('A' for Active; 'I' for Inactive)
REMARK    1  A    between atoms: C_3  and  C_7 
REMARK       I    between atoms: C_7  and  N_9 
REMARK    2  A    between atoms: N_9  and  N_10 
REMARK       I    between atoms: N_10  and  C_11 
REMARK    3  A    between atoms: C_13  and  C_11 
REMARK    4  A    between atoms: N_21  and  O_22 
REMARK    5  A    between atoms: O_22  and  S_23 
REMARK    6  A    between atoms: S_23  and  O_26 
ROOT
HETATM    1  C   UNK N   1      32.758  17.109   7.691  0.00  0.00     0.161 C 
HETATM    2  C   UNK N   1      33.876  18.081   8.226  0.00  0.00     0.032 C 
HETATM    3  C   UNK N   1      34.853  17.434   9.313  0.00  0.00     0.031 C 
HETATM    4  C   UNK N   1      35.012  15.856   9.286  0.00  0.00     0.134 C 
HETATM    5  C   UNK N   1      34.593  15.528   7.853  0.00  0.00     0.129 C 
HETATM    6  N   UNK N   1      33.170  15.770   7.986  0.00  0.00    -0.217 NA
HETATM    7  C   UNK N   1      32.818  15.369   9.201  0.00  0.00     0.325 C 
HETATM    8  O   UNK N   1      31.668  15.361   9.620  0.00  0.00    -0.251 OA
HETATM    9  N   UNK N   1      33.881  15.272   9.986  0.00  0.00    -0.187 N 
ENDROOT
BRANCH   1  10
HETATM   10  C   UNK N   1      32.195  17.205   6.292  0.00  0.00     0.254 C 
HETATM   11  N   UNK N   1      30.897  16.976   5.986  0.00  0.00    -0.266 N 
HETATM   12  H   UNK N   1      30.612  17.073   5.048  0.00  0.00     0.190 HD
HETATM   13  O   UNK N   1      32.963  17.497   5.390  0.00  0.00    -0.270 OA
BRANCH  11  14
HETATM   14  N   UNK N   1      29.958  16.617   6.919  0.00  0.00    -0.267 N 
HETATM   15  C   UNK N   1      28.801  17.310   7.047  0.00  0.00     0.241 C 
HETATM   16  O   UNK N   1      27.981  16.945   7.875  0.00  0.00    -0.271 OA
HETATM   17  H   UNK N   1      30.128  15.844   7.505  0.00  0.00     0.190 HD
BRANCH  15  18
HETATM   18  C   UNK N   1      28.517  18.520   6.177  0.00  0.00     0.097 C 
HETATM   19  C   UNK N   1      27.625  18.160   4.987  0.00  0.00     0.017 C 
HETATM   20  C   UNK N   1      27.387  19.393   4.128  0.00  0.00     0.020 C 
HETATM   21  C   UNK N   1      26.753  20.474   4.997  0.00  0.00     0.113 C 
HETATM   22  N   UNK N   1      27.647  20.825   6.099  0.00  0.00    -0.420 N 
HETATM   23  C   UNK N   1      27.843  19.657   6.959  0.00  0.00     0.127 C 
HETATM   24  H   UNK N   1      28.071  21.742   6.246  0.00  0.00     0.153 HD
ENDBRANCH  15  18
ENDBRANCH  11  14
ENDBRANCH   1  10
BRANCH   9  25
HETATM   25  O   UNK N   1      33.830  15.044  11.308  0.00  0.00    -0.132 OA
BRANCH  25  26
HETATM   26  S   UNK N   1      35.059  13.866  11.600  0.00  0.00     0.263 S 
HETATM   27  O   UNK N   1      35.023  12.806  10.488  0.00  0.00    -0.578 OA
HETATM   28  O   UNK N   1      34.742  13.095  12.889  0.00  0.00    -0.578 OA
BRANCH  26  29
HETATM   29  O   UNK N   1      36.657  14.492  11.714  0.00  0.00    -0.272 OA
HETATM   30  H   UNK N   1      37.472  14.960  11.477  0.00  0.00     0.234 HD
ENDBRANCH  26  29
ENDBRANCH  25  26
ENDBRANCH   9  25
TORSDOF 6
ENDMDL
MODEL 8
REMARK VINA RESULT:      -6.8      9.245     12.032
REMARK  6 active torsions:
REMARK  status: ('A' for Active; 'I' for Inactive)
REMARK    1  A    between atoms: C_3  and  C_7 
REMARK       I    between atoms: C_7  and  N_9 
REMARK    2  A    between atoms: N_9  and  N_10 
REMARK       I    between atoms: N_10  and  C_11 
REMARK    3  A    between atoms: C_13  and  C_11 
REMARK    4  A    between atoms: N_21  and  O_22 
REMARK    5  A    between atoms: O_22  and  S_23 
REMARK    6  A    between atoms: S_23  and  O_26 
ROOT
HETATM    1  C   UNK N   1      31.504  16.890   5.987  0.00  0.00     0.161 C 
HETATM    2  C   UNK N   1      32.834  17.177   5.196  0.00  0.00     0.032 C 
HETATM    3  C   UNK N   1      34.173  16.950   6.041  0.00  0.00     0.031 C 
HETATM    4  C   UNK N   1      34.087  15.940   7.261  0.00  0.00     0.134 C 
HETATM    5  C   UNK N   1      32.874  15.093   6.876  0.00  0.00     0.129 C 
HETATM    6  N   UNK N   1      31.840  16.079   7.119  0.00  0.00    -0.217 NA
HETATM    7  C   UNK N   1      32.216  16.786   8.177  0.00  0.00     0.325 C 
HETATM    8  O   UNK N   1      31.536  17.657   8.703  0.00  0.00    -0.251 OA
HETATM    9  N   UNK N   1      33.515  16.643   8.396  0.00  0.00    -0.187 N 
ENDROOT
BRANCH   1  10
HETATM   10  C   UNK N   1      30.248  16.385   5.315  0.00  0.00     0.254 C 
HETATM   11  N   UNK N   1      29.024  16.412   5.891  0.00  0.00    -0.266 N 
HETATM   12  H   UNK N   1      28.256  16.074   5.376  0.00  0.00     0.190 HD
HETATM   13  O   UNK N   1      30.353  15.918   4.193  0.00  0.00    -0.270 OA
BRANCH  11  14
HETATM   14  N   UNK N   1      28.801  16.891   7.157  0.00  0.00    -0.267 N 
HETATM   15  C   UNK N   1      28.228  18.103   7.353  0.00  0.00     0.241 C 
HETATM   16  O   UNK N   1      28.027  18.484   8.496  0.00  0.00    -0.271 OA
HETATM   17  H   UNK N   1      29.061  16.345   7.935  0.00  0.00     0.190 HD
BRANCH  15  18
HETATM   18  C   UNK N   1      27.836  18.980   6.178  0.00  0.00     0.097 C 
HETATM   19  C   UNK N   1      26.694  18.361   5.372  0.00  0.00     0.017 C 
HETATM   20  C   UNK N   1      26.351  19.257   4.192  0.00  0.00     0.020 C 
HETATM   21  C   UNK N   1      25.978  20.637   4.722  0.00  0.00     0.113 C 
HETATM   22  N   UNK N   1      27.105  21.218   5.451  0.00  0.00    -0.420 N 
HETATM   23  C   UNK N   1      27.411  20.388   6.617  0.00  0.00     0.127 C 
HETATM   24  H   UNK N   1      27.602  22.070   5.188  0.00  0.00     0.153 HD
ENDBRANCH  15  18
ENDBRANCH  11  14
ENDBRANCH   1  10
BRANCH   9  25
HETATM   25  O   UNK N   1      34.216  17.354   9.292  0.00  0.00    -0.132 OA
BRANCH  25  26
HETATM   26  S   UNK N   1      34.734  16.196  10.465  0.00  0.00     0.263 S 
HETATM   27  O   UNK N   1      35.335  16.930  11.674  0.00  0.00    -0.578 OA
HETATM   28  O   UNK N   1      35.891  15.363   9.896  0.00  0.00    -0.578 OA
BRANCH  26  29
HETATM   29  O   UNK N   1      33.510  15.125  11.023  0.00  0.00    -0.272 OA
HETATM   30  H   UNK N   1      33.060  14.300  11.264  0.00  0.00     0.234 HD
ENDBRANCH  26  29
ENDBRANCH  25  26
ENDBRANCH   9  25
TORSDOF 6
ENDMDL
MODEL 9
REMARK VINA RESULT:      -6.7     13.354     15.290
REMARK  6 active torsions:
REMARK  status: ('A' for Active; 'I' for Inactive)
REMARK    1  A    between atoms: C_3  and  C_7 
REMARK       I    between atoms: C_7  and  N_9 
REMARK    2  A    between atoms: N_9  and  N_10 
REMARK       I    between atoms: N_10  and  C_11 
REMARK    3  A    between atoms: C_13  and  C_11 
REMARK    4  A    between atoms: N_21  and  O_22 
REMARK    5  A    between atoms: O_22  and  S_23 
REMARK    6  A    between atoms: S_23  and  O_26 
ROOT
HETATM    1  C   UNK N   1      35.411  12.709  11.495  0.00  0.00     0.161 C 
HETATM    2  C   UNK N   1      36.934  12.807  11.108  0.00  0.00     0.032 C 
HETATM    3  C   UNK N   1      37.325  14.114  10.274  0.00  0.00     0.031 C 
HETATM    4  C   UNK N   1      36.388  15.381  10.447  0.00  0.00     0.134 C 
HETATM    5  C   UNK N   1      35.729  15.097  11.796  0.00  0.00     0.129 C 
HETATM    6  N   UNK N   1      34.850  14.022  11.383  0.00  0.00    -0.217 NA
HETATM    7  C   UNK N   1      34.433  14.310  10.157  0.00  0.00     0.325 C 
HETATM    8  O   UNK N   1      33.615  13.648   9.532  0.00  0.00    -0.251 OA
HETATM    9  N   UNK N   1      35.225  15.210   9.593  0.00  0.00    -0.187 N 
ENDROOT
BRANCH   1  10
HETATM   10  C   UNK N   1      34.932  12.023  12.753  0.00  0.00     0.254 C 
HETATM   11  N   UNK N   1      35.369  12.339  13.995  0.00  0.00    -0.266 N 
HETATM   12  H   UNK N   1      34.993  11.848  14.762  0.00  0.00     0.190 HD
HETATM   13  O   UNK N   1      34.111  11.128  12.635  0.00  0.00    -0.270 OA
BRANCH  11  14
HETATM   14  N   UNK N   1      36.308  13.309  14.236  0.00  0.00    -0.267 N 
HETATM   15  C   UNK N   1      36.501  13.797  15.485  0.00  0.00     0.241 C 
HETATM   16  O   UNK N   1      37.363  14.644  15.662  0.00  0.00    -0.271 OA
HETATM   17  H   UNK N   1      36.850  13.655  13.490  0.00  0.00     0.190 HD
BRANCH  15  18
HETATM   18  C   UNK N   1      35.669  13.302  16.653  0.00  0.00     0.097 C 
HETATM   19  C   UNK N   1      36.059  11.880  17.058  0.00  0.00     0.017 C 
HETATM   20  C   UNK N   1      35.185  11.414  18.213  0.00  0.00     0.020 C 
HETATM   21  C   UNK N   1      35.349  12.392  19.372  0.00  0.00     0.113 C 
HETATM   22  N   UNK N   1      34.928  13.732  18.964  0.00  0.00    -0.420 N 
HETATM   23  C   UNK N   1      35.796  14.209  17.886  0.00  0.00     0.127 C 
HETATM   24  H   UNK N   1      34.150  14.255  19.368  0.00  0.00     0.153 HD
ENDBRANCH  15  18
ENDBRANCH  11  14
ENDBRANCH   1  10
BRANCH   9  25
HETATM   25  O   UNK N   1      35.155  15.582   8.306  0.00  0.00    -0.132 OA
BRANCH  25  26
HETATM   26  S   UNK N   1      34.453  17.161   8.342  0.00  0.00     0.263 S 
HETATM   27  O   UNK N   1      35.162  18.009   9.409  0.00  0.00    -0.578 OA
HETATM   28  O   UNK N   1      32.996  17.068   8.816  0.00  0.00    -0.578 OA
BRANCH  26  29
HETATM   29  O   UNK N   1      34.491  18.010   6.847  0.00  0.00    -0.272 OA
HETATM   30  H   UNK N   1      34.840  18.464   6.064  0.00  0.00     0.234 HD
ENDBRANCH  26  29
ENDBRANCH  25  26
ENDBRANCH   9  25
TORSDOF 6
ENDMDL
