MODEL 1
REMARK VINA RESULT:      -8.5      0.000      0.000
REMARK  6 active torsions:
REMARK  status: ('A' for Active; 'I' for Inactive)
REMARK    1  A    between atoms: C_4  and  N_8 
REMARK    2  A    between atoms: N_8  and  C_9 
REMARK    3  A    between atoms: C_11  and  C_30 
REMARK    4  A    between atoms: C_16  and  C_20 
REMARK    5  A    between atoms: C_20  and  C_21 
REMARK    6  A    between atoms: C_30  and  N_31 
ROOT
HETATM    1  C   UNK N   1      32.201  17.366   5.065  0.00  0.00     0.122 A 
HETATM    2  C   UNK N   1      33.265  17.546   5.963  0.00  0.00     0.062 A 
HETATM    3  C   UNK N   1      33.045  17.632   7.326  0.00  0.00     0.019 A 
HETATM    4  C   UNK N   1      31.716  17.530   7.754  0.00  0.00     0.135 A 
HETATM    5  N   UNK N   1      31.264  17.546   9.026  0.00  0.00    -0.343 N 
ATOM      6  HN  UNK N   1      31.811  17.653   9.880  1.00  0.00     0.167 HD
HETATM    7  C   UNK N   1      29.927  17.390   8.916  0.00  0.00     0.032 A 
HETATM    8  C   UNK N   1      29.577  17.277   7.581  0.00  0.00     0.062 A 
HETATM    9  N   UNK N   1      30.720  17.378   6.866  0.00  0.00    -0.240 N 
HETATM   10  N   UNK N   1      30.926  17.306   5.546  0.00  0.00    -0.277 N 
ATOM     11  HN  UNK N   1      30.138  17.209   4.906  1.00  0.00     0.189 HD
HETATM   12  C   UNK N   1      29.008  17.323  10.086  0.00  0.00     0.070 C 
ENDROOT
BRANCH   1  13
HETATM   13  N   UNK N   1      32.467  17.175   3.679  0.00  0.00    -0.327 N 
HETATM   14  H   UNK N   1      32.427  17.948   3.071  0.00  0.00     0.169 HD
BRANCH  13  15
HETATM   15  C   UNK N   1      32.788  15.889   3.150  0.00  0.00     0.123 A 
HETATM   16  C   UNK N   1      32.110  14.711   3.413  0.00  0.00     0.075 A 
HETATM   17  C   UNK N   1      32.804  13.771   2.696  0.00  0.00     0.025 A 
HETATM   18  C   UNK N   1      32.491  12.319   2.658  0.00  0.00     0.070 C 
HETATM   19  N   UNK N   1      33.826  14.355   2.039  0.00  0.00    -0.304 N 
HETATM   20  N   UNK N   1      33.813  15.652   2.313  0.00  0.00    -0.285 N 
HETATM   21  H   UNK N   1      34.472  13.895   1.456  0.00  0.00     0.186 HD
ATOM     22  HN  UNK N   1      34.465  16.348   1.951  1.00  0.00     0.188 HD
ENDBRANCH  13  15
ENDBRANCH   1  13
BRANCH   3  23
HETATM   23  C   UNK N   1      34.255  17.775   8.208  0.00  0.00     0.315 C 
BRANCH  23  24
HETATM   24  N   UNK N   1      34.383  16.700   9.169  0.00  0.00     0.096 N 
HETATM   25  C   UNK N   1      34.939  15.534   8.489  0.00  0.00     0.299 C 
HETATM   26  C   UNK N   1      35.146  14.431   9.530  0.00  0.00     0.198 C 
HETATM   27  O   UNK N   1      36.056  14.870  10.514  0.00  0.00    -0.388 OA
HETATM   28  C   UNK N   1      35.465  15.955  11.190  0.00  0.00     0.198 C 
HETATM   29  C   UNK N   1      35.312  17.119  10.217  0.00  0.00     0.299 C 
ENDBRANCH  23  24
ENDBRANCH   3  23
BRANCH   8  30
HETATM   30  C   UNK N   1      28.164  17.038   7.091  0.00  0.00     0.103 C 
BRANCH  30  31
HETATM   31  C   UNK N   1      27.654  17.999   6.068  0.00  0.00    -0.014 A 
HETATM   32  C   UNK N   1      27.301  17.542   4.792  0.00  0.00     0.012 A 
HETATM   33  C   UNK N   1      26.884  18.444   3.814  0.00  0.00     0.024 A 
HETATM   34  C   UNK N   1      26.789  19.803   4.116  0.00  0.00     0.036 A 
HETATM   35  C   UNK N   1      27.084  20.258   5.404  0.00  0.00     0.066 A 
HETATM   36 Cl   UNK N   1      26.313  20.937   2.872  0.00  0.00    -0.084 Cl
HETATM   37  C   UNK N   1      27.514  19.358   6.384  0.00  0.00     0.124 A 
HETATM   38  F   UNK N   1      27.797  19.811   7.631  0.00  0.00    -0.205 F 
ENDBRANCH  30  31
ENDBRANCH   8  30
TORSDOF 6
ENDMDL
MODEL 2
REMARK VINA RESULT:      -8.2      6.487     10.412
REMARK  6 active torsions:
REMARK  status: ('A' for Active; 'I' for Inactive)
REMARK    1  A    between atoms: C_4  and  N_8 
REMARK    2  A    between atoms: N_8  and  C_9 
REMARK    3  A    between atoms: C_11  and  C_30 
REMARK    4  A    between atoms: C_16  and  C_20 
REMARK    5  A    between atoms: C_20  and  C_21 
REMARK    6  A    between atoms: C_30  and  N_31 
ROOT
HETATM    1  C   UNK N   1      34.722  14.598  10.790  0.00  0.00     0.122 A 
HETATM    2  C   UNK N   1      35.978  14.717  10.173  0.00  0.00     0.062 A 
HETATM    3  C   UNK N   1      37.046  13.932  10.566  0.00  0.00     0.019 A 
HETATM    4  C   UNK N   1      36.807  13.020  11.602  0.00  0.00     0.135 A 
HETATM    5  N   UNK N   1      37.678  12.129  12.123  0.00  0.00    -0.343 N 
ATOM      6  HN  UNK N   1      38.653  11.986  11.863  1.00  0.00     0.167 HD
HETATM    7  C   UNK N   1      36.969  11.471  13.066  0.00  0.00     0.032 A 
HETATM    8  C   UNK N   1      35.676  11.963  13.109  0.00  0.00     0.062 A 
HETATM    9  N   UNK N   1      35.599  12.946  12.184  0.00  0.00    -0.240 N 
HETATM   10  N   UNK N   1      34.566  13.711  11.816  0.00  0.00    -0.277 N 
ATOM     11  HN  UNK N   1      33.670  13.634  12.297  1.00  0.00     0.189 HD
HETATM   12  C   UNK N   1      37.529  10.365  13.892  0.00  0.00     0.070 C 
ENDROOT
BRANCH   1  13
HETATM   13  N   UNK N   1      33.614  15.342  10.295  0.00  0.00    -0.327 N 
HETATM   14  H   UNK N   1      32.728  15.213  10.704  0.00  0.00     0.169 HD
BRANCH  13  15
HETATM   15  C   UNK N   1      33.757  16.270   9.220  0.00  0.00     0.123 A 
HETATM   16  C   UNK N   1      33.454  16.025   7.891  0.00  0.00     0.075 A 
HETATM   17  C   UNK N   1      33.774  17.201   7.265  0.00  0.00     0.025 A 
HETATM   18  C   UNK N   1      33.656  17.455   5.806  0.00  0.00     0.070 C 
HETATM   19  N   UNK N   1      34.230  18.095   8.166  0.00  0.00    -0.304 N 
HETATM   20  N   UNK N   1      34.214  17.526   9.363  0.00  0.00    -0.285 N 
HETATM   21  H   UNK N   1      34.525  19.012   7.967  0.00  0.00     0.186 HD
ATOM     22  HN  UNK N   1      34.497  17.965  10.240  1.00  0.00     0.188 HD
ENDBRANCH  13  15
ENDBRANCH   1  13
BRANCH   3  23
HETATM   23  C   UNK N   1      38.335  14.101   9.810  0.00  0.00     0.315 C 
BRANCH  23  24
HETATM   24  N   UNK N   1      38.518  13.104   8.776  0.00  0.00     0.096 N 
HETATM   25  C   UNK N   1      38.774  13.788   7.512  0.00  0.00     0.299 C 
HETATM   26  C   UNK N   1      39.047  12.726   6.443  0.00  0.00     0.198 C 
HETATM   27  O   UNK N   1      40.184  11.972   6.800  0.00  0.00    -0.388 OA
HETATM   28  C   UNK N   1      39.882  11.279   7.988  0.00  0.00     0.198 C 
HETATM   29  C   UNK N   1      39.684  12.289   9.113  0.00  0.00     0.299 C 
ENDBRANCH  23  24
ENDBRANCH   3  23
BRANCH   8  30
HETATM   30  C   UNK N   1      34.590  11.420  14.014  0.00  0.00     0.103 C 
BRANCH  30  31
HETATM   31  C   UNK N   1      34.769  11.671  15.475  0.00  0.00    -0.014 A 
HETATM   32  C   UNK N   1      34.768  12.982  15.966  0.00  0.00     0.012 A 
HETATM   33  C   UNK N   1      34.997  13.226  17.320  0.00  0.00     0.024 A 
HETATM   34  C   UNK N   1      35.199  12.157  18.195  0.00  0.00     0.036 A 
HETATM   35  C   UNK N   1      35.144  10.843  17.721  0.00  0.00     0.066 A 
HETATM   36 Cl   UNK N   1      35.535  12.470  19.882  0.00  0.00    -0.084 Cl
HETATM   37  C   UNK N   1      34.925  10.595  16.362  0.00  0.00     0.124 A 
HETATM   38  F   UNK N   1      34.874   9.316  15.914  0.00  0.00    -0.205 F 
ENDBRANCH  30  31
ENDBRANCH   8  30
TORSDOF 6
ENDMDL
MODEL 3
REMARK VINA RESULT:      -8.1      1.940      2.387
REMARK  6 active torsions:
REMARK  status: ('A' for Active; 'I' for Inactive)
REMARK    1  A    between atoms: C_4  and  N_8 
REMARK    2  A    between atoms: N_8  and  C_9 
REMARK    3  A    between atoms: C_11  and  C_30 
REMARK    4  A    between atoms: C_16  and  C_20 
REMARK    5  A    between atoms: C_20  and  C_21 
REMARK    6  A    between atoms: C_30  and  N_31 
ROOT
HETATM    1  C   UNK N   1      31.604  16.049   5.029  0.00  0.00     0.122 A 
HETATM    2  C   UNK N   1      32.854  16.196   5.653  0.00  0.00     0.062 A 
HETATM    3  C   UNK N   1      32.970  16.812   6.885  0.00  0.00     0.019 A 
HETATM    4  C   UNK N   1      31.785  17.274   7.471  0.00  0.00     0.135 A 
HETATM    5  N   UNK N   1      31.645  17.866   8.676  0.00  0.00    -0.343 N 
ATOM      6  HN  UNK N   1      32.379  18.090   9.348  1.00  0.00     0.167 HD
HETATM    7  C   UNK N   1      30.319  18.096   8.793  0.00  0.00     0.032 A 
HETATM    8  C   UNK N   1      29.664  17.639   7.662  0.00  0.00     0.062 A 
HETATM    9  N   UNK N   1      30.608  17.134   6.837  0.00  0.00    -0.240 N 
HETATM   10  N   UNK N   1      30.491  16.550   5.640  0.00  0.00    -0.277 N 
ATOM     11  HN  UNK N   1      29.581  16.481   5.187  1.00  0.00     0.189 HD
HETATM   12  C   UNK N   1      29.696  18.720   9.992  0.00  0.00     0.070 C 
ENDROOT
BRANCH   1  13
HETATM   13  N   UNK N   1      31.500  15.318   3.811  0.00  0.00    -0.327 N 
HETATM   14  H   UNK N   1      32.319  15.109   3.306  0.00  0.00     0.169 HD
BRANCH  13  15
HETATM   15  C   UNK N   1      30.239  14.882   3.307  0.00  0.00     0.123 A 
HETATM   16  C   UNK N   1      29.271  15.689   2.733  0.00  0.00     0.075 A 
HETATM   17  C   UNK N   1      28.259  14.816   2.432  0.00  0.00     0.025 A 
HETATM   18  C   UNK N   1      26.960  15.190   1.813  0.00  0.00     0.070 C 
HETATM   19  N   UNK N   1      28.605  13.565   2.794  0.00  0.00    -0.304 N 
HETATM   20  N   UNK N   1      29.820  13.604   3.324  0.00  0.00    -0.285 N 
HETATM   21  H   UNK N   1      28.050  12.759   2.684  0.00  0.00     0.186 HD
ATOM     22  HN  UNK N   1      30.345  12.806   3.682  1.00  0.00     0.188 HD
ENDBRANCH  13  15
ENDBRANCH   1  13
BRANCH   3  23
HETATM   23  C   UNK N   1      34.345  16.877   7.492  0.00  0.00     0.315 C 
BRANCH  23  24
HETATM   24  N   UNK N   1      34.478  16.058   8.679  0.00  0.00     0.096 N 
HETATM   25  C   UNK N   1      35.427  14.986   8.398  0.00  0.00     0.299 C 
HETATM   26  C   UNK N   1      35.622  14.175   9.682  0.00  0.00     0.198 C 
HETATM   27  O   UNK N   1      36.148  15.006  10.694  0.00  0.00    -0.388 OA
HETATM   28  C   UNK N   1      35.184  15.991  10.982  0.00  0.00     0.198 C 
HETATM   29  C   UNK N   1      35.010  16.886   9.759  0.00  0.00     0.299 C 
ENDBRANCH  23  24
ENDBRANCH   3  23
BRANCH   8  30
HETATM   30  C   UNK N   1      28.161  17.686   7.474  0.00  0.00     0.103 C 
BRANCH  30  31
HETATM   31  C   UNK N   1      27.674  18.432   6.276  0.00  0.00    -0.014 A 
HETATM   32  C   UNK N   1      27.747  19.830   6.243  0.00  0.00     0.012 A 
HETATM   33  C   UNK N   1      27.236  20.535   5.154  0.00  0.00     0.024 A 
HETATM   34  C   UNK N   1      26.677  19.843   4.078  0.00  0.00     0.036 A 
HETATM   35  C   UNK N   1      26.652  18.445   4.078  0.00  0.00     0.066 A 
HETATM   36 Cl   UNK N   1      25.992  20.733   2.737  0.00  0.00    -0.084 Cl
HETATM   37  C   UNK N   1      27.154  17.736   5.175  0.00  0.00     0.124 A 
HETATM   38  F   UNK N   1      27.126  16.380   5.164  0.00  0.00    -0.205 F 
ENDBRANCH  30  31
ENDBRANCH   8  30
TORSDOF 6
ENDMDL
MODEL 4
REMARK VINA RESULT:      -8.0      1.864      2.259
REMARK  6 active torsions:
REMARK  status: ('A' for Active; 'I' for Inactive)
REMARK    1  A    between atoms: C_4  and  N_8 
REMARK    2  A    between atoms: N_8  and  C_9 
REMARK    3  A    between atoms: C_11  and  C_30 
REMARK    4  A    between atoms: C_16  and  C_20 
REMARK    5  A    between atoms: C_20  and  C_21 
REMARK    6  A    between atoms: C_30  and  N_31 
ROOT
HETATM    1  C   UNK N   1      32.738  17.283   5.119  0.00  0.00     0.122 A 
HETATM    2  C   UNK N   1      33.710  17.390   6.127  0.00  0.00     0.062 A 
HETATM    3  C   UNK N   1      33.352  17.506   7.458  0.00  0.00     0.019 A 
HETATM    4  C   UNK N   1      31.980  17.509   7.741  0.00  0.00     0.135 A 
HETATM    5  N   UNK N   1      31.396  17.571   8.956  0.00  0.00    -0.343 N 
ATOM      6  HN  UNK N   1      31.855  17.644   9.864  1.00  0.00     0.167 HD
HETATM    7  C   UNK N   1      30.070  17.515   8.703  0.00  0.00     0.032 A 
HETATM    8  C   UNK N   1      29.859  17.416   7.337  0.00  0.00     0.062 A 
HETATM    9  N   UNK N   1      31.077  17.424   6.750  0.00  0.00    -0.240 N 
HETATM   10  N   UNK N   1      31.418  17.324   5.460  0.00  0.00    -0.277 N 
ATOM     11  HN  UNK N   1      30.698  17.279   4.739  1.00  0.00     0.189 HD
HETATM   12  C   UNK N   1      29.029  17.529   9.766  0.00  0.00     0.070 C 
ENDROOT
BRANCH   1  13
HETATM   13  N   UNK N   1      33.136  17.058   3.771  0.00  0.00    -0.327 N 
HETATM   14  H   UNK N   1      33.470  17.814   3.236  0.00  0.00     0.169 HD
BRANCH  13  15
HETATM   15  C   UNK N   1      33.062  15.763   3.176  0.00  0.00     0.123 A 
HETATM   16  C   UNK N   1      32.089  14.810   3.423  0.00  0.00     0.075 A 
HETATM   17  C   UNK N   1      32.463  13.753   2.635  0.00  0.00     0.025 A 
HETATM   18  C   UNK N   1      31.752  12.451   2.555  0.00  0.00     0.070 C 
HETATM   19  N   UNK N   1      33.584  14.060   1.953  0.00  0.00    -0.304 N 
HETATM   20  N   UNK N   1      33.947  15.293   2.279  0.00  0.00    -0.285 N 
HETATM   21  H   UNK N   1      34.053  13.470   1.321  0.00  0.00     0.186 HD
ATOM     22  HN  UNK N   1      34.756  15.797   1.914  1.00  0.00     0.188 HD
ENDBRANCH  13  15
ENDBRANCH   1  13
BRANCH   3  23
HETATM   23  C   UNK N   1      34.467  17.566   8.465  0.00  0.00     0.315 C 
BRANCH  23  24
HETATM   24  N   UNK N   1      34.489  16.421   9.352  0.00  0.00     0.096 N 
HETATM   25  C   UNK N   1      35.105  15.301   8.647  0.00  0.00     0.299 C 
HETATM   26  C   UNK N   1      35.198  14.122   9.619  0.00  0.00     0.198 C 
HETATM   27  O   UNK N   1      36.003  14.475  10.721  0.00  0.00    -0.388 OA
HETATM   28  C   UNK N   1      35.352  15.515  11.412  0.00  0.00     0.198 C 
HETATM   29  C   UNK N   1      35.306  16.749  10.518  0.00  0.00     0.299 C 
ENDBRANCH  23  24
ENDBRANCH   3  23
BRANCH   8  30
HETATM   30  C   UNK N   1      28.493  17.279   6.698  0.00  0.00     0.103 C 
BRANCH  30  31
HETATM   31  C   UNK N   1      28.429  16.442   5.463  0.00  0.00    -0.014 A 
HETATM   32  C   UNK N   1      28.529  15.048   5.556  0.00  0.00     0.012 A 
HETATM   33  C   UNK N   1      28.533  14.266   4.402  0.00  0.00     0.024 A 
HETATM   34  C   UNK N   1      28.406  14.871   3.150  0.00  0.00     0.036 A 
HETATM   35  C   UNK N   1      28.247  16.257   3.054  0.00  0.00     0.066 A 
HETATM   36 Cl   UNK N   1      28.461  13.891   1.703  0.00  0.00    -0.084 Cl
HETATM   37  C   UNK N   1      28.255  17.046   4.209  0.00  0.00     0.124 A 
HETATM   38  F   UNK N   1      28.100  18.389   4.103  0.00  0.00    -0.205 F 
ENDBRANCH  30  31
ENDBRANCH   8  30
TORSDOF 6
ENDMDL
MODEL 5
REMARK VINA RESULT:      -7.9      6.834     10.450
REMARK  6 active torsions:
REMARK  status: ('A' for Active; 'I' for Inactive)
REMARK    1  A    between atoms: C_4  and  N_8 
REMARK    2  A    between atoms: N_8  and  C_9 
REMARK    3  A    between atoms: C_11  and  C_30 
REMARK    4  A    between atoms: C_16  and  C_20 
REMARK    5  A    between atoms: C_20  and  C_21 
REMARK    6  A    between atoms: C_30  and  N_31 
ROOT
HETATM    1  C   UNK N   1      23.818  14.585   6.793  0.00  0.00     0.122 A 
HETATM    2  C   UNK N   1      22.481  15.011   6.840  0.00  0.00     0.062 A 
HETATM    3  C   UNK N   1      22.090  16.209   6.269  0.00  0.00     0.019 A 
HETATM    4  C   UNK N   1      23.092  16.964   5.647  0.00  0.00     0.135 A 
HETATM    5  N   UNK N   1      22.945  18.136   4.993  0.00  0.00    -0.343 N 
ATOM      6  HN  UNK N   1      22.087  18.671   4.861  1.00  0.00     0.167 HD
HETATM    7  C   UNK N   1      24.185  18.440   4.553  0.00  0.00     0.032 A 
HETATM    8  C   UNK N   1      25.074  17.451   4.940  0.00  0.00     0.062 A 
HETATM    9  N   UNK N   1      24.365  16.535   5.636  0.00  0.00    -0.240 N 
HETATM   10  N   UNK N   1      24.751  15.384   6.197  0.00  0.00    -0.277 N 
ATOM     11  HN  UNK N   1      25.731  15.106   6.182  1.00  0.00     0.189 HD
HETATM   12  C   UNK N   1      24.497  19.654   3.750  0.00  0.00     0.070 C 
ENDROOT
BRANCH   1  13
HETATM   13  N   UNK N   1      24.172  13.300   7.294  0.00  0.00    -0.327 N 
HETATM   14  H   UNK N   1      24.366  12.574   6.658  0.00  0.00     0.169 HD
BRANCH  13  15
HETATM   15  C   UNK N   1      24.252  13.041   8.695  0.00  0.00     0.123 A 
HETATM   16  C   UNK N   1      23.289  12.404   9.459  0.00  0.00     0.075 A 
HETATM   17  C   UNK N   1      23.819  12.414  10.722  0.00  0.00     0.025 A 
HETATM   18  C   UNK N   1      23.156  11.866  11.934  0.00  0.00     0.070 C 
HETATM   19  N   UNK N   1      25.028  13.011  10.711  0.00  0.00    -0.304 N 
HETATM   20  N   UNK N   1      25.295  13.389   9.468  0.00  0.00    -0.285 N 
HETATM   21  H   UNK N   1      25.611  13.143  11.492  0.00  0.00     0.186 HD
ATOM     22  HN  UNK N   1      26.144  13.860   9.154  1.00  0.00     0.188 HD
ENDBRANCH  13  15
ENDBRANCH   1  13
BRANCH   3  23
HETATM   23  C   UNK N   1      20.627  16.552   6.331  0.00  0.00     0.315 C 
BRANCH  23  24
HETATM   24  N   UNK N   1      20.158  16.783   7.682  0.00  0.00     0.096 N 
HETATM   25  C   UNK N   1      20.219  18.215   7.954  0.00  0.00     0.299 C 
HETATM   26  C   UNK N   1      19.645  18.457   9.353  0.00  0.00     0.198 C 
HETATM   27  O   UNK N   1      18.300  18.035   9.396  0.00  0.00    -0.388 OA
HETATM   28  C   UNK N   1      18.282  16.642   9.189  0.00  0.00     0.198 C 
HETATM   29  C   UNK N   1      18.766  16.346   7.774  0.00  0.00     0.299 C 
ENDBRANCH  23  24
ENDBRANCH   3  23
BRANCH   8  30
HETATM   30  C   UNK N   1      26.544  17.441   4.573  0.00  0.00     0.103 C 
BRANCH  30  31
HETATM   31  C   UNK N   1      27.501  17.662   5.697  0.00  0.00    -0.014 A 
HETATM   32  C   UNK N   1      27.496  18.877   6.394  0.00  0.00     0.012 A 
HETATM   33  C   UNK N   1      28.430  19.112   7.402  0.00  0.00     0.024 A 
HETATM   34  C   UNK N   1      29.354  18.123   7.740  0.00  0.00     0.036 A 
HETATM   35  C   UNK N   1      29.328  16.886   7.088  0.00  0.00     0.066 A 
HETATM   36 Cl   UNK N   1      30.554  18.441   8.971  0.00  0.00    -0.084 Cl
HETATM   37  C   UNK N   1      28.400  16.651   6.068  0.00  0.00     0.124 A 
HETATM   38  F   UNK N   1      28.383  15.447   5.443  0.00  0.00    -0.205 F 
ENDBRANCH  30  31
ENDBRANCH   8  30
TORSDOF 6
ENDMDL
MODEL 6
REMARK VINA RESULT:      -7.8      6.547      9.829
REMARK  6 active torsions:
REMARK  status: ('A' for Active; 'I' for Inactive)
REMARK    1  A    between atoms: C_4  and  N_8 
REMARK    2  A    between atoms: N_8  and  C_9 
REMARK    3  A    between atoms: C_11  and  C_30 
REMARK    4  A    between atoms: C_16  and  C_20 
REMARK    5  A    between atoms: C_20  and  C_21 
REMARK    6  A    between atoms: C_30  and  N_31 
ROOT
HETATM    1  C   UNK N   1      21.817  16.054   5.050  0.00  0.00     0.122 A 
HETATM    2  C   UNK N   1      21.797  14.878   5.818  0.00  0.00     0.062 A 
HETATM    3  C   UNK N   1      22.914  14.068   5.916  0.00  0.00     0.019 A 
HETATM    4  C   UNK N   1      24.054  14.483   5.216  0.00  0.00     0.135 A 
HETATM    5  N   UNK N   1      25.263  13.883   5.194  0.00  0.00    -0.343 N 
ATOM      6  HN  UNK N   1      25.539  13.022   5.667  1.00  0.00     0.167 HD
HETATM    7  C   UNK N   1      26.024  14.675   4.408  0.00  0.00     0.032 A 
HETATM    8  C   UNK N   1      25.274  15.751   3.962  0.00  0.00     0.062 A 
HETATM    9  N   UNK N   1      24.032  15.604   4.476  0.00  0.00    -0.240 N 
HETATM   10  N   UNK N   1      22.952  16.384   4.368  0.00  0.00    -0.277 N 
ATOM     11  HN  UNK N   1      22.974  17.217   3.780  1.00  0.00     0.189 HD
HETATM   12  C   UNK N   1      27.460  14.409   4.118  0.00  0.00     0.070 C 
ENDROOT
BRANCH   1  13
HETATM   13  N   UNK N   1      20.689  16.922   5.052  0.00  0.00    -0.327 N 
HETATM   14  H   UNK N   1      20.126  16.975   5.858  0.00  0.00     0.169 HD
BRANCH  13  15
HETATM   15  C   UNK N   1      20.355  17.717   3.915  0.00  0.00     0.123 A 
HETATM   16  C   UNK N   1      20.995  18.879   3.521  0.00  0.00     0.075 A 
HETATM   17  C   UNK N   1      20.303  19.265   2.402  0.00  0.00     0.025 A 
HETATM   18  C   UNK N   1      20.582  20.487   1.602  0.00  0.00     0.070 C 
HETATM   19  N   UNK N   1      19.319  18.383   2.140  0.00  0.00    -0.304 N 
HETATM   20  N   UNK N   1      19.355  17.431   3.063  0.00  0.00    -0.285 N 
HETATM   21  H   UNK N   1      18.683  18.436   1.391  0.00  0.00     0.186 HD
ATOM     22  HN  UNK N   1      18.733  16.624   3.116  1.00  0.00     0.188 HD
ENDBRANCH  13  15
ENDBRANCH   1  13
BRANCH   3  23
HETATM   23  C   UNK N   1      22.806  12.857   6.801  0.00  0.00     0.315 C 
BRANCH  23  24
HETATM   24  N   UNK N   1      23.119  13.140   8.186  0.00  0.00     0.096 N 
HETATM   25  C   UNK N   1      22.047  12.609   9.022  0.00  0.00     0.299 C 
HETATM   26  C   UNK N   1      22.427  12.841  10.487  0.00  0.00     0.198 C 
HETATM   27  O   UNK N   1      23.625  12.159  10.782  0.00  0.00    -0.388 OA
HETATM   28  C   UNK N   1      24.648  12.735  10.005  0.00  0.00     0.198 C 
HETATM   29  C   UNK N   1      24.366  12.460   8.532  0.00  0.00     0.299 C 
ENDBRANCH  23  24
ENDBRANCH   3  23
BRANCH   8  30
HETATM   30  C   UNK N   1      25.823  16.870   3.102  0.00  0.00     0.103 C 
BRANCH  30  31
HETATM   31  C   UNK N   1      26.268  18.096   3.828  0.00  0.00    -0.014 A 
HETATM   32  C   UNK N   1      27.542  18.144   4.409  0.00  0.00     0.012 A 
HETATM   33  C   UNK N   1      27.938  19.262   5.141  0.00  0.00     0.024 A 
HETATM   34  C   UNK N   1      27.075  20.351   5.270  0.00  0.00     0.036 A 
HETATM   35  C   UNK N   1      25.825  20.334   4.645  0.00  0.00     0.066 A 
HETATM   36 Cl   UNK N   1      27.557  21.730   6.231  0.00  0.00    -0.084 Cl
HETATM   37  C   UNK N   1      25.419  19.209   3.919  0.00  0.00     0.124 A 
HETATM   38  F   UNK N   1      24.204  19.204   3.316  0.00  0.00    -0.205 F 
ENDBRANCH  30  31
ENDBRANCH   8  30
TORSDOF 6
ENDMDL
MODEL 7
REMARK VINA RESULT:      -7.6      4.886      9.184
REMARK  6 active torsions:
REMARK  status: ('A' for Active; 'I' for Inactive)
REMARK    1  A    between atoms: C_4  and  N_8 
REMARK    2  A    between atoms: N_8  and  C_9 
REMARK    3  A    between atoms: C_11  and  C_30 
REMARK    4  A    between atoms: C_16  and  C_20 
REMARK    5  A    between atoms: C_20  and  C_21 
REMARK    6  A    between atoms: C_30  and  N_31 
ROOT
HETATM    1  C   UNK N   1      27.521  18.622   4.072  0.00  0.00     0.122 A 
HETATM    2  C   UNK N   1      26.219  18.099   4.040  0.00  0.00     0.062 A 
HETATM    3  C   UNK N   1      25.974  16.814   3.590  0.00  0.00     0.019 A 
HETATM    4  C   UNK N   1      27.087  16.073   3.174  0.00  0.00     0.135 A 
HETATM    5  N   UNK N   1      27.101  14.795   2.736  0.00  0.00    -0.343 N 
ATOM      6  HN  UNK N   1      26.305  14.168   2.620  1.00  0.00     0.167 HD
HETATM    7  C   UNK N   1      28.402  14.533   2.487  0.00  0.00     0.032 A 
HETATM    8  C   UNK N   1      29.168  15.650   2.777  0.00  0.00     0.062 A 
HETATM    9  N   UNK N   1      28.317  16.611   3.200  0.00  0.00    -0.240 N 
HETATM   10  N   UNK N   1      28.558  17.857   3.623  0.00  0.00    -0.277 N 
ATOM     11  HN  UNK N   1      29.506  18.232   3.609  1.00  0.00     0.189 HD
HETATM   12  C   UNK N   1      28.897  13.215   2.003  0.00  0.00     0.070 C 
ENDROOT
BRANCH   1  13
HETATM   13  N   UNK N   1      27.756  19.907   4.640  0.00  0.00    -0.327 N 
HETATM   14  H   UNK N   1      28.287  20.565   4.135  0.00  0.00     0.169 HD
BRANCH  13  15
HETATM   15  C   UNK N   1      27.241  20.264   5.922  0.00  0.00     0.123 A 
HETATM   16  C   UNK N   1      26.446  21.362   6.200  0.00  0.00     0.075 A 
HETATM   17  C   UNK N   1      26.234  21.274   7.551  0.00  0.00     0.025 A 
HETATM   18  C   UNK N   1      25.450  22.243   8.360  0.00  0.00     0.070 C 
HETATM   19  N   UNK N   1      26.856  20.185   8.046  0.00  0.00    -0.304 N 
HETATM   20  N   UNK N   1      27.467  19.563   7.047  0.00  0.00    -0.285 N 
HETATM   21  H   UNK N   1      26.856  19.901   8.988  0.00  0.00     0.186 HD
ATOM     22  HN  UNK N   1      28.013  18.704   7.119  1.00  0.00     0.188 HD
ENDBRANCH  13  15
ENDBRANCH   1  13
BRANCH   3  23
HETATM   23  C   UNK N   1      24.551  16.329   3.641  0.00  0.00     0.315 C 
BRANCH  23  24
HETATM   24  N   UNK N   1      23.660  17.264   4.295  0.00  0.00     0.096 N 
HETATM   25  C   UNK N   1      22.577  17.594   3.374  0.00  0.00     0.299 C 
HETATM   26  C   UNK N   1      21.597  18.518   4.104  0.00  0.00     0.198 C 
HETATM   27  O   UNK N   1      21.063  17.853   5.227  0.00  0.00    -0.388 OA
HETATM   28  C   UNK N   1      22.122  17.603   6.120  0.00  0.00     0.198 C 
HETATM   29  C   UNK N   1      23.091  16.617   5.476  0.00  0.00     0.299 C 
ENDBRANCH  23  24
ENDBRANCH   3  23
BRANCH   8  30
HETATM   30  C   UNK N   1      30.678  15.696   2.666  0.00  0.00     0.103 C 
BRANCH  30  31
HETATM   31  C   UNK N   1      31.408  16.219   3.859  0.00  0.00    -0.014 A 
HETATM   32  C   UNK N   1      32.247  17.333   3.734  0.00  0.00     0.012 A 
HETATM   33  C   UNK N   1      32.979  17.787   4.831  0.00  0.00     0.024 A 
HETATM   34  C   UNK N   1      32.852  17.148   6.065  0.00  0.00     0.036 A 
HETATM   35  C   UNK N   1      31.973  16.071   6.211  0.00  0.00     0.066 A 
HETATM   36 Cl   UNK N   1      33.809  17.690   7.424  0.00  0.00    -0.084 Cl
HETATM   37  C   UNK N   1      31.246  15.606   5.110  0.00  0.00     0.124 A 
HETATM   38  F   UNK N   1      30.395  14.561   5.263  0.00  0.00    -0.205 F 
ENDBRANCH  30  31
ENDBRANCH   8  30
TORSDOF 6
ENDMDL
MODEL 8
REMARK VINA RESULT:      -7.6      6.400     10.369
REMARK  6 active torsions:
REMARK  status: ('A' for Active; 'I' for Inactive)
REMARK    1  A    between atoms: C_4  and  N_8 
REMARK    2  A    between atoms: N_8  and  C_9 
REMARK    3  A    between atoms: C_11  and  C_30 
REMARK    4  A    between atoms: C_16  and  C_20 
REMARK    5  A    between atoms: C_20  and  C_21 
REMARK    6  A    between atoms: C_30  and  N_31 
ROOT
HETATM    1  C   UNK N   1      23.964  14.788   6.429  0.00  0.00     0.122 A 
HETATM    2  C   UNK N   1      22.904  15.706   6.347  0.00  0.00     0.062 A 
HETATM    3  C   UNK N   1      23.077  16.948   5.764  0.00  0.00     0.019 A 
HETATM    4  C   UNK N   1      24.353  17.235   5.264  0.00  0.00     0.135 A 
HETATM    5  N   UNK N   1      24.747  18.356   4.623  0.00  0.00    -0.343 N 
ATOM      6  HN  UNK N   1      24.187  19.182   4.414  1.00  0.00     0.167 HD
HETATM    7  C   UNK N   1      26.045  18.139   4.321  0.00  0.00     0.032 A 
HETATM    8  C   UNK N   1      26.430  16.889   4.777  0.00  0.00     0.062 A 
HETATM    9  N   UNK N   1      25.349  16.341   5.377  0.00  0.00    -0.240 N 
HETATM   10  N   UNK N   1      25.192  15.143   5.951  0.00  0.00    -0.277 N 
ATOM     11  HN  UNK N   1      25.980  14.502   6.031  1.00  0.00     0.189 HD
HETATM   12  C   UNK N   1      26.890  19.115   3.579  0.00  0.00     0.070 C 
ENDROOT
BRANCH   1  13
HETATM   13  N   UNK N   1      23.731  13.478   6.938  0.00  0.00    -0.327 N 
HETATM   14  H   UNK N   1      23.461  12.763   6.318  0.00  0.00     0.169 HD
BRANCH  13  15
HETATM   15  C   UNK N   1      23.880  13.178   8.325  0.00  0.00     0.123 A 
HETATM   16  C   UNK N   1      22.913  12.618   9.142  0.00  0.00     0.075 A 
HETATM   17  C   UNK N   1      23.526  12.546  10.366  0.00  0.00     0.025 A 
HETATM   18  C   UNK N   1      22.896  12.034  11.611  0.00  0.00     0.070 C 
HETATM   19  N   UNK N   1      24.783  13.025  10.282  0.00  0.00    -0.304 N 
HETATM   20  N   UNK N   1      25.002  13.406   9.031  0.00  0.00    -0.285 N 
HETATM   21  H   UNK N   1      25.428  13.082  11.023  0.00  0.00     0.186 HD
ATOM     22  HN  UNK N   1      25.869  13.802   8.667  1.00  0.00     0.188 HD
ENDBRANCH  13  15
ENDBRANCH   1  13
BRANCH   3  23
HETATM   23  C   UNK N   1      21.868  17.839   5.681  0.00  0.00     0.315 C 
BRANCH  23  24
HETATM   24  N   UNK N   1      21.398  18.028   4.324  0.00  0.00     0.096 N 
HETATM   25  C   UNK N   1      20.226  17.184   4.118  0.00  0.00     0.299 C 
HETATM   26  C   UNK N   1      19.689  17.453   2.709  0.00  0.00     0.198 C 
HETATM   27  O   UNK N   1      19.312  18.807   2.593  0.00  0.00    -0.388 OA
HETATM   28  C   UNK N   1      20.474  19.589   2.737  0.00  0.00     0.198 C 
HETATM   29  C   UNK N   1      21.007  19.426   4.156  0.00  0.00     0.299 C 
ENDBRANCH  23  24
ENDBRANCH   3  23
BRANCH   8  30
HETATM   30  C   UNK N   1      27.806  16.295   4.564  0.00  0.00     0.103 C 
BRANCH  30  31
HETATM   31  C   UNK N   1      28.839  16.653   5.581  0.00  0.00    -0.014 A 
HETATM   32  C   UNK N   1      28.450  17.147   6.832  0.00  0.00     0.012 A 
HETATM   33  C   UNK N   1      29.411  17.542   7.762  0.00  0.00     0.024 A 
HETATM   34  C   UNK N   1      30.767  17.418   7.456  0.00  0.00     0.036 A 
HETATM   35  C   UNK N   1      31.163  16.873   6.231  0.00  0.00     0.066 A 
HETATM   36 Cl   UNK N   1      31.968  17.962   8.605  0.00  0.00    -0.084 Cl
HETATM   37  C   UNK N   1      30.202  16.486   5.292  0.00  0.00     0.124 A 
HETATM   38  F   UNK N   1      30.598  15.958   4.107  0.00  0.00    -0.205 F 
ENDBRANCH  30  31
ENDBRANCH   8  30
TORSDOF 6
ENDMDL
MODEL 9
REMARK VINA RESULT:      -7.6      9.191     11.467
REMARK  6 active torsions:
REMARK  status: ('A' for Active; 'I' for Inactive)
REMARK    1  A    between atoms: C_4  and  N_8 
REMARK    2  A    between atoms: N_8  and  C_9 
REMARK    3  A    between atoms: C_11  and  C_30 
REMARK    4  A    between atoms: C_16  and  C_20 
REMARK    5  A    between atoms: C_20  and  C_21 
REMARK    6  A    between atoms: C_30  and  N_31 
ROOT
HETATM    1  C   UNK N   1      34.404  11.429  12.214  0.00  0.00     0.122 A 
HETATM    2  C   UNK N   1      35.335  11.971  11.312  0.00  0.00     0.062 A 
HETATM    3  C   UNK N   1      36.246  12.931  11.714  0.00  0.00     0.019 A 
HETATM    4  C   UNK N   1      36.190  13.326  13.057  0.00  0.00     0.135 A 
HETATM    5  N   UNK N   1      36.996  14.210  13.682  0.00  0.00    -0.343 N 
ATOM      6  HN  UNK N   1      37.764  14.747  13.279  1.00  0.00     0.167 HD
HETATM    7  C   UNK N   1      36.560  14.226  14.961  0.00  0.00     0.032 A 
HETATM    8  C   UNK N   1      35.496  13.350  15.103  0.00  0.00     0.062 A 
HETATM    9  N   UNK N   1      35.274  12.801  13.887  0.00  0.00    -0.240 N 
HETATM   10  N   UNK N   1      34.382  11.882  13.501  0.00  0.00    -0.277 N 
ATOM     11  HN  UNK N   1      33.693  11.524  14.161  1.00  0.00     0.189 HD
HETATM   12  C   UNK N   1      37.181  15.053  16.031  0.00  0.00     0.070 C 
ENDROOT
BRANCH   1  13
HETATM   13  N   UNK N   1      33.550  10.368  11.800  0.00  0.00    -0.327 N 
HETATM   14  H   UNK N   1      33.138   9.790  12.482  0.00  0.00     0.169 HD
BRANCH  13  15
HETATM   15  C   UNK N   1      33.277  10.122  10.421  0.00  0.00     0.123 A 
HETATM   16  C   UNK N   1      33.834   9.115   9.651  0.00  0.00     0.075 A 
HETATM   17  C   UNK N   1      33.275   9.308   8.415  0.00  0.00     0.025 A 
HETATM   18  C   UNK N   1      33.567   8.493   7.206  0.00  0.00     0.070 C 
HETATM   19  N   UNK N   1      32.430  10.357   8.448  0.00  0.00    -0.304 N 
HETATM   20  N   UNK N   1      32.427  10.852   9.678  0.00  0.00    -0.285 N 
HETATM   21  H   UNK N   1      31.905  10.698   7.689  0.00  0.00     0.186 HD
ATOM     22  HN  UNK N   1      31.876  11.646  10.004  1.00  0.00     0.188 HD
ENDBRANCH  13  15
ENDBRANCH   1  13
BRANCH   3  23
HETATM   23  C   UNK N   1      37.233  13.412  10.686  0.00  0.00     0.315 C 
BRANCH  23  24
HETATM   24  N   UNK N   1      37.433  12.465   9.609  0.00  0.00     0.096 N 
HETATM   25  C   UNK N   1      37.440  13.194   8.346  0.00  0.00     0.299 C 
HETATM   26  C   UNK N   1      37.733  12.196   7.222  0.00  0.00     0.198 C 
HETATM   27  O   UNK N   1      39.000  11.610   7.425  0.00  0.00    -0.388 OA
HETATM   28  C   UNK N   1      38.941  10.866   8.619  0.00  0.00     0.198 C 
HETATM   29  C   UNK N   1      38.734  11.823   9.788  0.00  0.00     0.299 C 
ENDBRANCH  23  24
ENDBRANCH   3  23
BRANCH   8  30
HETATM   30  C   UNK N   1      34.793  13.074  16.416  0.00  0.00     0.103 C 
BRANCH  30  31
HETATM   31  C   UNK N   1      35.399  12.010  17.271  0.00  0.00    -0.014 A 
HETATM   32  C   UNK N   1      36.031  10.910  16.680  0.00  0.00     0.012 A 
HETATM   33  C   UNK N   1      36.543   9.884  17.473  0.00  0.00     0.024 A 
HETATM   34  C   UNK N   1      36.452   9.967  18.863  0.00  0.00     0.036 A 
HETATM   35  C   UNK N   1      35.874  11.090  19.462  0.00  0.00     0.066 A 
HETATM   36 Cl   UNK N   1      37.050   8.655  19.852  0.00  0.00    -0.084 Cl
HETATM   37  C   UNK N   1      35.349  12.116  18.670  0.00  0.00     0.124 A 
HETATM   38  F   UNK N   1      34.791  13.201  19.262  0.00  0.00    -0.205 F 
ENDBRANCH  30  31
ENDBRANCH   8  30
TORSDOF 6
ENDMDL
