REMARK  7 active torsions:
REMARK  status: ('A' for Active; 'I' for Inactive)
REMARK    1  A    between atoms: C_4  and  C_7 
REMARK    2  A    between atoms: C_8  and  C_7 
REMARK    3  A    between atoms: C_13  and  C_19 
REMARK    4  A    between atoms: C_17  and  O_18 
REMARK    5  A    between atoms: C_21  and  C_28 
REMARK    6  A    between atoms: C_24  and  C_25 
REMARK    7  A    between atoms: C_25  and  O_27 
ROOT
HETATM    1  C   UNK N   1      -0.790  -1.290   0.080  0.00  0.00     0.048 C 
HETATM    2  C   UNK N   1      -0.848   0.246   0.172  0.00  0.00     0.183 C 
HETATM    3  O   UNK N   1       0.417   0.819   0.013  0.00  0.00    -0.350 OA
HETATM    4  C   UNK N   1       1.508   0.113  -0.397  0.00  0.00     0.078 A 
HETATM    5  C   UNK N   1       2.790   0.597  -0.155  0.00  0.00     0.049 A 
HETATM    6  C   UNK N   1       3.930  -0.185  -0.442  0.00  0.00    -0.022 A 
HETATM    7  C   UNK N   1       3.743  -1.447  -1.019  0.00  0.00     0.013 A 
HETATM    8  C   UNK N   1       2.463  -1.928  -1.295  0.00  0.00     0.013 A 
HETATM    9  C   UNK N   1       1.345  -1.145  -0.992  0.00  0.00     0.004 A 
HETATM   10  C   UNK N   1      -0.050  -1.627  -1.218  0.00  0.00     0.160 C 
ENDROOT
BRANCH   6  11
HETATM   11  C   UNK N   1       5.282   0.393  -0.169  0.00  0.00    -0.008 A 
HETATM   12  C   UNK N   1       5.321   1.797  -0.146  0.00  0.00     0.029 A 
HETATM   13  C   UNK N   1       6.495   2.511   0.052  0.00  0.00     0.048 A 
HETATM   14  C   UNK N   1       7.686   1.821   0.250  0.00  0.00     0.017 A 
HETATM   15  C   UNK N   1       7.690   0.428   0.254  0.00  0.00     0.020 A 
HETATM   16  C   UNK N   1       6.518  -0.322   0.049  0.00  0.00     0.048 A 
BRANCH  13  17
HETATM   17  C   UNK N   1       6.478   4.011   0.028  0.00  0.00     0.417 C 
HETATM   18  F   UNK N   1       6.916   4.500   1.244  0.00  0.00    -0.166 F 
HETATM   19  F   UNK N   1       7.314   4.464  -0.976  0.00  0.00    -0.166 F 
HETATM   20  F   UNK N   1       5.200   4.490  -0.212  0.00  0.00    -0.166 F 
ENDBRANCH  13  17
BRANCH  16  21
HETATM   21  C   UNK N   1       6.693  -1.807   0.149  0.00  0.00     0.177 C 
HETATM   22  O   UNK N   1       5.754  -2.576   0.127  0.00  0.00    -0.646 OA
BRANCH  21  23
HETATM   23  O   UNK N   1       7.930  -2.311   0.346  0.00  0.00    -0.773 OA
HETATM   24  H   UNK N   1       8.056  -3.230   0.482  0.00  0.00     0.167 HD
ENDBRANCH  21  23
ENDBRANCH  16  21
ENDBRANCH   6  11
BRANCH  10  25
HETATM   25  O   UNK N   1      -0.053  -2.986  -1.542  0.00  0.00    -0.390 OA
HETATM   26  H   UNK N   1      -0.871  -3.456  -1.767  0.00  0.00     0.210 HD
ENDBRANCH  10  25
BRANCH   1  27
HETATM   27  C   UNK N   1      -2.137  -1.973   0.307  0.00  0.00     0.048 C 
BRANCH  27  28
HETATM   28  C   UNK N   1      -1.920  -3.451   0.396  0.00  0.00    -0.058 A 
HETATM   29  C   UNK N   1      -2.560  -4.297  -0.514  0.00  0.00     0.007 A 
HETATM   30  C   UNK N   1      -2.260  -5.663  -0.529  0.00  0.00     0.001 A 
HETATM   31  C   UNK N   1      -1.308  -6.182   0.353  0.00  0.00     0.000 A 
HETATM   32  C   UNK N   1      -0.669  -5.340   1.268  0.00  0.00     0.001 A 
HETATM   33  C   UNK N   1      -0.973  -3.977   1.291  0.00  0.00     0.007 A 
ENDBRANCH  27  28
ENDBRANCH   1  27
TORSDOF 7
