REMARK  4 active torsions:
REMARK  status: ('A' for Active; 'I' for Inactive)
REMARK    1  A    between atoms: C_2  and  C_3 
REMARK    2  A    between atoms: C_2  and  N_6 
REMARK    3  A    between atoms: C_10  and  C_17 
REMARK    4  A    between atoms: C_19  and  C_23 
REMARK       I    between atoms: C_23  and  N_25 
ROOT
HETATM    1  N   UNK N   1      -0.796  -1.076   0.182  0.00  0.00    -0.339 N 
HETATM    2  C   UNK N   1      -0.003   0.143   0.053  0.00  0.00     0.166 A 
HETATM    3  C   UNK N   1       1.388  -0.421   0.001  0.00  0.00    -0.022 A 
HETATM    4  C   UNK N   1       2.572   0.290  -0.069  0.00  0.00     0.024 A 
HETATM    5  C   UNK N   1       3.790  -0.409  -0.074  0.00  0.00     0.002 A 
HETATM    6  C   UNK N   1       3.790  -1.823  -0.021  0.00  0.00     0.039 A 
HETATM    7  C   UNK N   1       2.569  -2.528   0.049  0.00  0.00     0.051 A 
HETATM    8  C   UNK N   1       1.378  -1.789   0.069  0.00  0.00     0.061 A 
HETATM    9  C   UNK N   1      -0.004  -2.174   0.182  0.00  0.00     0.256 A 
HETATM   10  O   UNK N   1      -0.417  -3.318   0.303  0.00  0.00    -0.267 OA
HETATM   11 Cl   UNK N   1       2.567  -4.280   0.137  0.00  0.00    -0.083 Cl
ENDROOT
BRANCH   5  12
HETATM   12  C   UNK N   1       5.039   0.365  -0.087  0.00  0.00     0.111 A 
HETATM   13  C   UNK N   1       5.106   1.742  -0.084  0.00  0.00     0.077 A 
HETATM   14  C   UNK N   1       6.456   2.004  -0.057  0.00  0.00     0.125 A 
HETATM   15  N   UNK N   1       7.137   0.838  -0.047  0.00  0.00    -0.255 N 
HETATM   16  O   UNK N   1       6.258  -0.124  -0.063  0.00  0.00    -0.237 OA
ATOM     17  HN  UNK N   1       8.151   0.730  -0.029  1.00  0.00     0.195 HD
BRANCH  14  18
HETATM   18  C   UNK N   1       7.032   3.375  -0.031  0.00  0.00     0.271 C 
HETATM   19  O   UNK N   1       6.253   4.320  -0.036  0.00  0.00    -0.266 OA
HETATM   20  N   UNK N   1       8.378   3.618   0.002  0.00  0.00    -0.355 N 
HETATM   21  C   UNK N   1       8.865   4.976   0.030  0.00  0.00     0.152 C 
HETATM   22  C   UNK N   1       9.350   2.556   0.011  0.00  0.00     0.152 C 
ENDBRANCH  14  18
ENDBRANCH   5  12
BRANCH   1  23
HETATM   23  C   UNK N   1      -2.243  -1.086   0.366  0.00  0.00     0.088 C 
HETATM   24  C   UNK N   1      -2.814   0.331   0.409  0.00  0.00     0.033 C 
BRANCH  23  25
HETATM   25  C   UNK N   1      -2.946  -1.885  -0.725  0.00  0.00     0.008 A 
HETATM   26  C   UNK N   1      -3.349  -3.238  -0.174  0.00  0.00     0.007 A 
HETATM   27  C   UNK N   1      -4.388  -2.150  -0.327  0.00  0.00     0.007 A 
ENDBRANCH  23  25
ENDBRANCH   1  23
TORSDOF 4
