MODEL 1
REMARK VINA RESULT:      -7.8      0.000      0.000
REMARK  7 active torsions:
REMARK  status: ('A' for Active; 'I' for Inactive)
REMARK    1  A    between atoms: C_4  and  O_8 
REMARK    2  A    between atoms: O_8  and  C_9 
REMARK    3  A    between atoms: N_12  and  C_15 
REMARK    4  A    between atoms: C_17  and  C_21 
REMARK    5  A    between atoms: N_25  and  C_28 
REMARK    6  A    between atoms: C_28  and  C_29 
REMARK    7  A    between atoms: C_29  and  O_31 
ROOT
HETATM    1  C   UNK N   1      26.684  18.885   4.064  0.00  0.00     0.126 A 
HETATM    2  C   UNK N   1      25.476  18.297   3.749  0.00  0.00     0.093 A 
HETATM    3  C   UNK N   1      24.597  19.355   3.839  0.00  0.00     0.148 A 
HETATM    4  O   UNK N   1      25.252  20.446   4.162  0.00  0.00    -0.232 OA
HETATM    5  N   UNK N   1      26.514  20.195   4.318  0.00  0.00    -0.244 N 
ATOM      6  HN  UNK N   1      27.239  20.862   4.581  1.00  0.00     0.196 HD
ENDROOT
BRANCH   1   7
HETATM    7  N   UNK N   1      27.913  18.212   4.235  0.00  0.00    -0.366 N 
HETATM    8  C   UNK N   1      28.104  16.866   3.750  0.00  0.00     0.127 C 
HETATM    9  C   UNK N   1      28.111  15.910   4.938  0.00  0.00     0.052 C 
HETATM   10  C   UNK N   1      29.051  16.389   6.051  0.00  0.00     0.132 C 
HETATM   11  C   UNK N   1      28.900  17.883   6.401  0.00  0.00     0.052 C 
HETATM   12  C   UNK N   1      28.876  18.760   5.147  0.00  0.00     0.127 C 
BRANCH  10  13
HETATM   13  O   UNK N   1      30.338  15.884   5.914  0.00  0.00    -0.344 OA
BRANCH  13  14
HETATM   14  C   UNK N   1      31.531  16.416   6.304  0.00  0.00     0.089 A 
HETATM   15  C   UNK N   1      32.388  16.950   5.330  0.00  0.00     0.044 A 
HETATM   16  C   UNK N   1      33.624  17.492   5.700  0.00  0.00     0.025 A 
HETATM   17 Br   UNK N   1      31.897  16.923   3.482  0.00  0.00    -0.048 Br
HETATM   18  C   UNK N   1      34.009  17.514   7.043  0.00  0.00     0.044 A 
HETATM   19  C   UNK N   1      33.159  16.995   8.018  0.00  0.00     0.119 A 
HETATM   20  C   UNK N   1      31.931  16.452   7.647  0.00  0.00     0.080 A 
HETATM   21  F   UNK N   1      33.522  17.014   9.322  0.00  0.00    -0.206 F 
ENDBRANCH  13  14
ENDBRANCH  10  13
ENDBRANCH   1   7
BRANCH   3  22
HETATM   22  C   UNK N   1      23.158  19.316   3.643  0.00  0.00     0.171 A 
HETATM   23  N   UNK N   1      22.318  18.383   4.135  0.00  0.00    -0.264 N 
HETATM   24  N   UNK N   1      21.122  18.707   3.666  0.00  0.00    -0.002 NA
ATOM     25  HN  UNK N   1      22.553  17.597   4.740  1.00  0.00     0.186 HD
HETATM   26  N   UNK N   1      21.239  19.795   2.923  0.00  0.00    -0.206 N 
HETATM   27  N   UNK N   1      22.491  20.205   2.897  0.00  0.00    -0.267 N 
ATOM     28  HN  UNK N   1      22.870  21.021   2.414  1.00  0.00     0.190 HD
BRANCH  26  29
HETATM   29  C   UNK N   1      20.156  20.419   2.180  0.00  0.00     0.276 C 
BRANCH  29  30
HETATM   30  C   UNK N   1      20.674  21.169   0.979  0.00  0.00     0.161 C 
HETATM   31  O   UNK N   1      21.272  20.564   0.108  0.00  0.00    -0.649 OA
BRANCH  30  32
HETATM   32  O   UNK N   1      20.465  22.495   0.842  0.00  0.00    -0.775 OA
HETATM   33  H   UNK N   1      20.820  23.167   1.389  0.00  0.00     0.167 HD
ENDBRANCH  30  32
ENDBRANCH  29  30
ENDBRANCH  26  29
ENDBRANCH   3  22
TORSDOF 7
ENDMDL
MODEL 2
REMARK VINA RESULT:      -7.7     10.191     14.182
REMARK  7 active torsions:
REMARK  status: ('A' for Active; 'I' for Inactive)
REMARK    1  A    between atoms: C_4  and  O_8 
REMARK    2  A    between atoms: O_8  and  C_9 
REMARK    3  A    between atoms: N_12  and  C_15 
REMARK    4  A    between atoms: C_17  and  C_21 
REMARK    5  A    between atoms: N_25  and  C_28 
REMARK    6  A    between atoms: C_28  and  C_29 
REMARK    7  A    between atoms: C_29  and  O_31 
ROOT
HETATM    1  C   UNK N   1      35.964  13.827  13.154  0.00  0.00     0.126 A 
HETATM    2  C   UNK N   1      34.937  13.685  12.243  0.00  0.00     0.093 A 
HETATM    3  C   UNK N   1      34.956  14.895  11.583  0.00  0.00     0.148 A 
HETATM    4  O   UNK N   1      35.916  15.647  12.068  0.00  0.00    -0.232 OA
HETATM    5  N   UNK N   1      36.537  15.037  13.028  0.00  0.00    -0.244 N 
ATOM      6  HN  UNK N   1      37.312  15.403  13.580  1.00  0.00     0.196 HD
ENDROOT
BRANCH   1   7
HETATM    7  N   UNK N   1      36.301  12.909  14.172  0.00  0.00    -0.366 N 
HETATM    8  C   UNK N   1      35.903  11.523  14.093  0.00  0.00     0.127 C 
HETATM    9  C   UNK N   1      34.771  11.278  15.086  0.00  0.00     0.052 C 
HETATM   10  C   UNK N   1      35.103  11.829  16.478  0.00  0.00     0.132 C 
HETATM   11  C   UNK N   1      35.678  13.259  16.467  0.00  0.00     0.052 C 
HETATM   12  C   UNK N   1      36.787  13.417  15.424  0.00  0.00     0.127 C 
BRANCH  10  13
HETATM   13  O   UNK N   1      35.727  10.888  17.288  0.00  0.00    -0.344 OA
BRANCH  13  14
HETATM   14  C   UNK N   1      35.245   9.721  17.801  0.00  0.00     0.089 A 
HETATM   15  C   UNK N   1      35.828   8.510  17.399  0.00  0.00     0.044 A 
HETATM   16  C   UNK N   1      35.346   7.295  17.900  0.00  0.00     0.025 A 
HETATM   17 Br   UNK N   1      37.268   8.493  16.142  0.00  0.00    -0.048 Br
HETATM   18  C   UNK N   1      34.287   7.281  18.813  0.00  0.00     0.044 A 
HETATM   19  C   UNK N   1      33.710   8.481  19.226  0.00  0.00     0.119 A 
HETATM   20  C   UNK N   1      34.188   9.688  18.722  0.00  0.00     0.080 A 
HETATM   21  F   UNK N   1      32.686   8.478  20.111  0.00  0.00    -0.206 F 
ENDBRANCH  13  14
ENDBRANCH  10  13
ENDBRANCH   1   7
BRANCH   3  22
HETATM   22  C   UNK N   1      34.058  15.328  10.527  0.00  0.00     0.171 A 
HETATM   23  N   UNK N   1      33.110  14.574   9.935  0.00  0.00    -0.264 N 
HETATM   24  N   UNK N   1      32.576  15.349   9.004  0.00  0.00    -0.002 NA
ATOM     25  HN  UNK N   1      32.857  13.611  10.158  1.00  0.00     0.186 HD
HETATM   26  N   UNK N   1      33.178  16.526   9.036  0.00  0.00    -0.206 N 
HETATM   27  N   UNK N   1      34.097  16.550   9.980  0.00  0.00    -0.267 N 
ATOM     28  HN  UNK N   1      34.706  17.327  10.238  1.00  0.00     0.190 HD
BRANCH  26  29
HETATM   29  C   UNK N   1      32.916  17.624   8.119  0.00  0.00     0.276 C 
BRANCH  29  30
HETATM   30  C   UNK N   1      34.197  18.206   7.578  0.00  0.00     0.161 C 
HETATM   31  O   UNK N   1      34.560  17.915   6.452  0.00  0.00    -0.649 OA
BRANCH  30  32
HETATM   32  O   UNK N   1      34.938  19.062   8.312  0.00  0.00    -0.775 OA
HETATM   33  H   UNK N   1      34.954  19.113   9.248  0.00  0.00     0.167 HD
ENDBRANCH  30  32
ENDBRANCH  29  30
ENDBRANCH  26  29
ENDBRANCH   3  22
TORSDOF 7
ENDMDL
MODEL 3
REMARK VINA RESULT:      -7.7     10.482     14.609
REMARK  7 active torsions:
REMARK  status: ('A' for Active; 'I' for Inactive)
REMARK    1  A    between atoms: C_4  and  O_8 
REMARK    2  A    between atoms: O_8  and  C_9 
REMARK    3  A    between atoms: N_12  and  C_15 
REMARK    4  A    between atoms: C_17  and  C_21 
REMARK    5  A    between atoms: N_25  and  C_28 
REMARK    6  A    between atoms: C_28  and  C_29 
REMARK    7  A    between atoms: C_29  and  O_31 
ROOT
HETATM    1  C   UNK N   1      35.842  13.431  13.820  0.00  0.00     0.126 A 
HETATM    2  C   UNK N   1      35.104  13.397  12.653  0.00  0.00     0.093 A 
HETATM    3  C   UNK N   1      35.529  14.534  12.000  0.00  0.00     0.148 A 
HETATM    4  O   UNK N   1      36.435  15.147  12.725  0.00  0.00    -0.232 OA
HETATM    5  N   UNK N   1      36.639  14.514  13.837  0.00  0.00    -0.244 N 
ATOM      6  HN  UNK N   1      37.282  14.784  14.581  1.00  0.00     0.196 HD
ENDROOT
BRANCH   1   7
HETATM    7  N   UNK N   1      35.705  12.548  14.912  0.00  0.00    -0.366 N 
HETATM    8  C   UNK N   1      36.818  11.754  15.377  0.00  0.00     0.127 C 
HETATM    9  C   UNK N   1      36.597  10.304  14.960  0.00  0.00     0.052 C 
HETATM   10  C   UNK N   1      35.191   9.813  15.323  0.00  0.00     0.132 C 
HETATM   11  C   UNK N   1      34.064  10.793  14.940  0.00  0.00     0.052 C 
HETATM   12  C   UNK N   1      34.386  12.224  15.375  0.00  0.00     0.127 C 
BRANCH  10  13
HETATM   13  O   UNK N   1      35.140   9.230  16.584  0.00  0.00    -0.344 OA
BRANCH  13  14
HETATM   14  C   UNK N   1      35.611   9.689  17.778  0.00  0.00     0.089 A 
HETATM   15  C   UNK N   1      36.687   9.023  18.385  0.00  0.00     0.044 A 
HETATM   16  C   UNK N   1      37.184   9.464  19.616  0.00  0.00     0.025 A 
HETATM   17 Br   UNK N   1      37.473   7.489  17.558  0.00  0.00    -0.048 Br
HETATM   18  C   UNK N   1      36.620  10.577  20.246  0.00  0.00     0.044 A 
HETATM   19  C   UNK N   1      35.558  11.251  19.643  0.00  0.00     0.119 A 
HETATM   20  C   UNK N   1      35.061  10.807  18.420  0.00  0.00     0.080 A 
HETATM   21  F   UNK N   1      35.005  12.332  20.243  0.00  0.00    -0.206 F 
ENDBRANCH  13  14
ENDBRANCH  10  13
ENDBRANCH   1   7
BRANCH   3  22
HETATM   22  C   UNK N   1      35.058  15.033  10.720  0.00  0.00     0.171 A 
HETATM   23  N   UNK N   1      35.326  14.494   9.513  0.00  0.00    -0.264 N 
HETATM   24  N   UNK N   1      34.746  15.298   8.634  0.00  0.00    -0.002 NA
ATOM     25  HN  UNK N   1      35.859  13.647   9.318  1.00  0.00     0.186 HD
HETATM   26  N   UNK N   1      34.149  16.281   9.288  0.00  0.00    -0.206 N 
HETATM   27  N   UNK N   1      34.316  16.140  10.588  0.00  0.00    -0.267 N 
ATOM     28  HN  UNK N   1      33.958  16.741  11.331  1.00  0.00     0.190 HD
BRANCH  26  29
HETATM   29  C   UNK N   1      33.462  17.402   8.665  0.00  0.00     0.276 C 
BRANCH  29  30
HETATM   30  C   UNK N   1      34.410  18.240   7.846  0.00  0.00     0.161 C 
HETATM   31  O   UNK N   1      34.445  18.097   6.637  0.00  0.00    -0.649 OA
BRANCH  30  32
HETATM   32  O   UNK N   1      35.204  19.163   8.427  0.00  0.00    -0.775 OA
HETATM   33  H   UNK N   1      34.975  19.706   9.156  0.00  0.00     0.167 HD
ENDBRANCH  30  32
ENDBRANCH  29  30
ENDBRANCH  26  29
ENDBRANCH   3  22
TORSDOF 7
ENDMDL
MODEL 4
REMARK VINA RESULT:      -7.6      1.423      1.979
REMARK  7 active torsions:
REMARK  status: ('A' for Active; 'I' for Inactive)
REMARK    1  A    between atoms: C_4  and  O_8 
REMARK    2  A    between atoms: O_8  and  C_9 
REMARK    3  A    between atoms: N_12  and  C_15 
REMARK    4  A    between atoms: C_17  and  C_21 
REMARK    5  A    between atoms: N_25  and  C_28 
REMARK    6  A    between atoms: C_28  and  C_29 
REMARK    7  A    between atoms: C_29  and  O_31 
ROOT
HETATM    1  C   UNK N   1      26.505  17.589   5.347  0.00  0.00     0.126 A 
HETATM    2  C   UNK N   1      26.211  18.694   4.573  0.00  0.00     0.093 A 
HETATM    3  C   UNK N   1      24.838  18.626   4.467  0.00  0.00     0.148 A 
HETATM    4  O   UNK N   1      24.395  17.586   5.133  0.00  0.00    -0.232 OA
HETATM    5  N   UNK N   1      25.377  16.930   5.668  0.00  0.00    -0.244 N 
ATOM      6  HN  UNK N   1      25.308  16.079   6.225  1.00  0.00     0.196 HD
ENDROOT
BRANCH   1   7
HETATM    7  N   UNK N   1      27.797  17.118   5.662  0.00  0.00    -0.366 N 
HETATM    8  C   UNK N   1      28.976  17.732   5.098  0.00  0.00     0.127 C 
HETATM    9  C   UNK N   1      29.557  16.802   4.038  0.00  0.00     0.052 C 
HETATM   10  C   UNK N   1      29.699  15.366   4.553  0.00  0.00     0.132 C 
HETATM   11  C   UNK N   1      28.452  14.836   5.290  0.00  0.00     0.052 C 
HETATM   12  C   UNK N   1      27.927  15.846   6.313  0.00  0.00     0.127 C 
BRANCH  10  13
HETATM   13  O   UNK N   1      30.941  15.128   5.131  0.00  0.00    -0.344 OA
BRANCH  13  14
HETATM   14  C   UNK N   1      31.798  15.991   5.745  0.00  0.00     0.089 A 
HETATM   15  C   UNK N   1      32.901  16.478   5.028  0.00  0.00     0.044 A 
HETATM   16  C   UNK N   1      33.805  17.356   5.637  0.00  0.00     0.025 A 
HETATM   17 Br   UNK N   1      33.205  15.932   3.221  0.00  0.00    -0.048 Br
HETATM   18  C   UNK N   1      33.610  17.762   6.960  0.00  0.00     0.044 A 
HETATM   19  C   UNK N   1      32.510  17.290   7.676  0.00  0.00     0.119 A 
HETATM   20  C   UNK N   1      31.614  16.412   7.069  0.00  0.00     0.080 A 
HETATM   21  F   UNK N   1      32.310  17.679   8.957  0.00  0.00    -0.206 F 
ENDBRANCH  13  14
ENDBRANCH  10  13
ENDBRANCH   1   7
BRANCH   3  22
HETATM   22  C   UNK N   1      23.974  19.526   3.724  0.00  0.00     0.171 A 
HETATM   23  N   UNK N   1      24.294  20.770   3.312  0.00  0.00    -0.264 N 
HETATM   24  N   UNK N   1      23.200  21.237   2.728  0.00  0.00    -0.002 NA
ATOM     25  HN  UNK N   1      25.187  21.248   3.424  1.00  0.00     0.186 HD
HETATM   26  N   UNK N   1      22.260  20.308   2.784  0.00  0.00    -0.206 N 
HETATM   27  N   UNK N   1      22.713  19.228   3.388  0.00  0.00    -0.267 N 
ATOM     28  HN  UNK N   1      22.213  18.356   3.562  1.00  0.00     0.190 HD
BRANCH  26  29
HETATM   29  C   UNK N   1      20.895  20.472   2.310  0.00  0.00     0.276 C 
BRANCH  29  30
HETATM   30  C   UNK N   1      20.781  20.150   0.842  0.00  0.00     0.161 C 
HETATM   31  O   UNK N   1      21.078  20.996   0.018  0.00  0.00    -0.649 OA
BRANCH  30  32
HETATM   32  O   UNK N   1      20.380  18.931   0.426  0.00  0.00    -0.775 OA
HETATM   33  H   UNK N   1      20.926  18.176   0.326  0.00  0.00     0.167 HD
ENDBRANCH  30  32
ENDBRANCH  29  30
ENDBRANCH  26  29
ENDBRANCH   3  22
TORSDOF 7
ENDMDL
MODEL 5
REMARK VINA RESULT:      -7.5      9.872     13.997
REMARK  7 active torsions:
REMARK  status: ('A' for Active; 'I' for Inactive)
REMARK    1  A    between atoms: C_4  and  O_8 
REMARK    2  A    between atoms: O_8  and  C_9 
REMARK    3  A    between atoms: N_12  and  C_15 
REMARK    4  A    between atoms: C_17  and  C_21 
REMARK    5  A    between atoms: N_25  and  C_28 
REMARK    6  A    between atoms: C_28  and  C_29 
REMARK    7  A    between atoms: C_29  and  O_31 
ROOT
HETATM    1  C   UNK N   1      35.066  12.945  12.240  0.00  0.00     0.126 A 
HETATM    2  C   UNK N   1      35.331  14.294  12.113  0.00  0.00     0.093 A 
HETATM    3  C   UNK N   1      34.828  14.579  10.862  0.00  0.00     0.148 A 
HETATM    4  O   UNK N   1      34.314  13.492  10.335  0.00  0.00    -0.232 OA
HETATM    5  N   UNK N   1      34.451  12.484  11.137  0.00  0.00    -0.244 N 
ATOM      6  HN  UNK N   1      34.151  11.525  10.965  1.00  0.00     0.196 HD
ENDROOT
BRANCH   1   7
HETATM    7  N   UNK N   1      35.486  12.115  13.302  0.00  0.00    -0.366 N 
HETATM    8  C   UNK N   1      34.531  11.406  14.121  0.00  0.00     0.127 C 
HETATM    9  C   UNK N   1      34.454  12.082  15.486  0.00  0.00     0.052 C 
HETATM   10  C   UNK N   1      35.844  12.320  16.085  0.00  0.00     0.132 C 
HETATM   11  C   UNK N   1      36.859  12.931  15.098  0.00  0.00     0.052 C 
HETATM   12  C   UNK N   1      36.846  12.206  13.750  0.00  0.00     0.127 C 
BRANCH  10  13
HETATM   13  O   UNK N   1      36.271  11.260  16.876  0.00  0.00    -0.344 OA
BRANCH  13  14
HETATM   14  C   UNK N   1      35.600  10.559  17.833  0.00  0.00     0.089 A 
HETATM   15  C   UNK N   1      35.308   9.206  17.604  0.00  0.00     0.044 A 
HETATM   16  C   UNK N   1      34.609   8.465  18.564  0.00  0.00     0.025 A 
HETATM   17 Br   UNK N   1      35.830   8.360  15.972  0.00  0.00    -0.048 Br
HETATM   18  C   UNK N   1      34.207   9.063  19.761  0.00  0.00     0.044 A 
HETATM   19  C   UNK N   1      34.504  10.405  20.000  0.00  0.00     0.119 A 
HETATM   20  C   UNK N   1      35.195  11.142  19.042  0.00  0.00     0.080 A 
HETATM   21  F   UNK N   1      34.122  10.994  21.158  0.00  0.00    -0.206 F 
ENDBRANCH  13  14
ENDBRANCH  10  13
ENDBRANCH   1   7
BRANCH   3  22
HETATM   22  C   UNK N   1      34.863  15.860  10.177  0.00  0.00     0.171 A 
HETATM   23  N   UNK N   1      35.546  16.952  10.576  0.00  0.00    -0.264 N 
HETATM   24  N   UNK N   1      35.248  17.892   9.692  0.00  0.00    -0.002 NA
ATOM     25  HN  UNK N   1      36.162  17.035  11.384  1.00  0.00     0.186 HD
HETATM   26  N   UNK N   1      34.419  17.384   8.795  0.00  0.00    -0.206 N 
HETATM   27  N   UNK N   1      34.168  16.118   9.062  0.00  0.00    -0.267 N 
ATOM     28  HN  UNK N   1      33.575  15.477   8.536  1.00  0.00     0.190 HD
BRANCH  26  29
HETATM   29  C   UNK N   1      33.812  18.129   7.703  0.00  0.00     0.276 C 
BRANCH  29  30
HETATM   30  C   UNK N   1      34.055  17.454   6.377  0.00  0.00     0.161 C 
HETATM   31  O   UNK N   1      34.826  16.513   6.316  0.00  0.00    -0.649 OA
BRANCH  30  32
HETATM   32  O   UNK N   1      33.415  17.860   5.261  0.00  0.00    -0.775 OA
HETATM   33  H   UNK N   1      32.620  18.356   5.232  0.00  0.00     0.167 HD
ENDBRANCH  30  32
ENDBRANCH  29  30
ENDBRANCH  26  29
ENDBRANCH   3  22
TORSDOF 7
ENDMDL
MODEL 6
REMARK VINA RESULT:      -7.4      6.990     12.745
REMARK  7 active torsions:
REMARK  status: ('A' for Active; 'I' for Inactive)
REMARK    1  A    between atoms: C_4  and  O_8 
REMARK    2  A    between atoms: O_8  and  C_9 
REMARK    3  A    between atoms: N_12  and  C_15 
REMARK    4  A    between atoms: C_17  and  C_21 
REMARK    5  A    between atoms: N_25  and  C_28 
REMARK    6  A    between atoms: C_28  and  C_29 
REMARK    7  A    between atoms: C_29  and  O_31 
ROOT
HETATM    1  C   UNK N   1      33.962  16.456   9.470  0.00  0.00     0.126 A 
HETATM    2  C   UNK N   1      33.865  15.185  10.001  0.00  0.00     0.093 A 
HETATM    3  C   UNK N   1      34.763  15.231  11.047  0.00  0.00     0.148 A 
HETATM    4  O   UNK N   1      35.306  16.424  11.109  0.00  0.00    -0.232 OA
HETATM    5  N   UNK N   1      34.854  17.185  10.164  0.00  0.00    -0.244 N 
ATOM      6  HN  UNK N   1      35.122  18.152   9.981  1.00  0.00     0.196 HD
ENDROOT
BRANCH   1   7
HETATM    7  N   UNK N   1      33.332  16.912   8.292  0.00  0.00    -0.366 N 
HETATM    8  C   UNK N   1      32.559  18.131   8.280  0.00  0.00     0.127 C 
HETATM    9  C   UNK N   1      31.078  17.775   8.209  0.00  0.00     0.052 C 
HETATM   10  C   UNK N   1      30.788  16.756   7.101  0.00  0.00     0.132 C 
HETATM   11  C   UNK N   1      31.760  15.560   7.077  0.00  0.00     0.052 C 
HETATM   12  C   UNK N   1      33.219  16.012   7.180  0.00  0.00     0.127 C 
BRANCH  10  13
HETATM   13  O   UNK N   1      30.478  17.361   5.889  0.00  0.00    -0.344 OA
BRANCH  13  14
HETATM   14  C   UNK N   1      29.265  17.587   5.311  0.00  0.00     0.089 A 
HETATM   15  C   UNK N   1      28.927  16.883   4.145  0.00  0.00     0.044 A 
HETATM   16  C   UNK N   1      27.694  17.103   3.522  0.00  0.00     0.025 A 
HETATM   17 Br   UNK N   1      30.152  15.635   3.372  0.00  0.00    -0.048 Br
HETATM   18  C   UNK N   1      26.785  18.018   4.062  0.00  0.00     0.044 A 
HETATM   19  C   UNK N   1      27.109  18.713   5.226  0.00  0.00     0.119 A 
HETATM   20  C   UNK N   1      28.340  18.496   5.842  0.00  0.00     0.080 A 
HETATM   21  F   UNK N   1      26.235  19.600   5.759  0.00  0.00    -0.206 F 
ENDBRANCH  13  14
ENDBRANCH  10  13
ENDBRANCH   1   7
BRANCH   3  22
HETATM   22  C   UNK N   1      35.107  14.146  11.950  0.00  0.00     0.171 A 
HETATM   23  N   UNK N   1      34.543  12.922  11.968  0.00  0.00    -0.264 N 
HETATM   24  N   UNK N   1      35.120  12.286  12.976  0.00  0.00    -0.002 NA
ATOM     25  HN  UNK N   1      33.826  12.562  11.338  1.00  0.00     0.186 HD
HETATM   26  N   UNK N   1      36.000  13.096  13.541  0.00  0.00    -0.206 N 
HETATM   27  N   UNK N   1      36.024  14.258  12.919  0.00  0.00    -0.267 N 
ATOM     28  HN  UNK N   1      36.611  15.065  13.130  1.00  0.00     0.190 HD
BRANCH  26  29
HETATM   29  C   UNK N   1      36.785  12.782  14.724  0.00  0.00     0.276 C 
BRANCH  29  30
HETATM   30  C   UNK N   1      36.775  13.923  15.709  0.00  0.00     0.161 C 
HETATM   31  O   UNK N   1      35.975  13.914  16.627  0.00  0.00    -0.649 OA
BRANCH  30  32
HETATM   32  O   UNK N   1      37.653  14.942  15.603  0.00  0.00    -0.775 OA
HETATM   33  H   UNK N   1      37.646  15.729  16.112  0.00  0.00     0.167 HD
ENDBRANCH  30  32
ENDBRANCH  29  30
ENDBRANCH  26  29
ENDBRANCH   3  22
TORSDOF 7
ENDMDL
MODEL 7
REMARK VINA RESULT:      -7.3      6.671     12.214
REMARK  7 active torsions:
REMARK  status: ('A' for Active; 'I' for Inactive)
REMARK    1  A    between atoms: C_4  and  O_8 
REMARK    2  A    between atoms: O_8  and  C_9 
REMARK    3  A    between atoms: N_12  and  C_15 
REMARK    4  A    between atoms: C_17  and  C_21 
REMARK    5  A    between atoms: N_25  and  C_28 
REMARK    6  A    between atoms: C_28  and  C_29 
REMARK    7  A    between atoms: C_29  and  O_31 
ROOT
HETATM    1  C   UNK N   1      33.846  17.189   9.024  0.00  0.00     0.126 A 
HETATM    2  C   UNK N   1      33.791  15.934   9.594  0.00  0.00     0.093 A 
HETATM    3  C   UNK N   1      34.912  15.922  10.396  0.00  0.00     0.148 A 
HETATM    4  O   UNK N   1      35.537  17.072  10.299  0.00  0.00    -0.232 OA
HETATM    5  N   UNK N   1      34.926  17.857   9.468  0.00  0.00    -0.244 N 
ATOM      6  HN  UNK N   1      35.209  18.801   9.203  1.00  0.00     0.196 HD
ENDROOT
BRANCH   1   7
HETATM    7  N   UNK N   1      32.987  17.681   8.018  0.00  0.00    -0.366 N 
HETATM    8  C   UNK N   1      31.614  18.025   8.307  0.00  0.00     0.127 C 
HETATM    9  C   UNK N   1      30.703  16.956   7.714  0.00  0.00     0.052 C 
HETATM   10  C   UNK N   1      31.052  16.655   6.252  0.00  0.00     0.132 C 
HETATM   11  C   UNK N   1      32.559  16.460   5.993  0.00  0.00     0.052 C 
HETATM   12  C   UNK N   1      33.394  17.564   6.647  0.00  0.00     0.127 C 
BRANCH  10  13
HETATM   13  O   UNK N   1      30.340  17.448   5.360  0.00  0.00    -0.344 OA
BRANCH  13  14
HETATM   14  C   UNK N   1      29.240  17.151   4.612  0.00  0.00     0.089 A 
HETATM   15  C   UNK N   1      28.032  17.809   4.890  0.00  0.00     0.044 A 
HETATM   16  C   UNK N   1      26.884  17.515   4.146  0.00  0.00     0.025 A 
HETATM   17 Br   UNK N   1      27.925  19.094   6.301  0.00  0.00    -0.048 Br
HETATM   18  C   UNK N   1      26.934  16.572   3.116  0.00  0.00     0.044 A 
HETATM   19  C   UNK N   1      28.134  15.922   2.827  0.00  0.00     0.119 A 
HETATM   20  C   UNK N   1      29.274  16.212   3.572  0.00  0.00     0.080 A 
HETATM   21  F   UNK N   1      28.194  15.008   1.829  0.00  0.00    -0.206 F 
ENDBRANCH  13  14
ENDBRANCH  10  13
ENDBRANCH   1   7
BRANCH   3  22
HETATM   22  C   UNK N   1      35.386  14.822  11.219  0.00  0.00     0.171 A 
HETATM   23  N   UNK N   1      36.644  14.662  11.677  0.00  0.00    -0.264 N 
HETATM   24  N   UNK N   1      36.634  13.509  12.328  0.00  0.00    -0.002 NA
ATOM     25  HN  UNK N   1      37.434  15.295  11.551  1.00  0.00     0.186 HD
HETATM   26  N   UNK N   1      35.416  12.997  12.266  0.00  0.00    -0.206 N 
HETATM   27  N   UNK N   1      34.613  13.795  11.592  0.00  0.00    -0.267 N 
ATOM     28  HN  UNK N   1      33.621  13.660  11.397  1.00  0.00     0.190 HD
BRANCH  26  29
HETATM   29  C   UNK N   1      35.026  11.703  12.805  0.00  0.00     0.276 C 
BRANCH  29  30
HETATM   30  C   UNK N   1      34.380  11.845  14.160  0.00  0.00     0.161 C 
HETATM   31  O   UNK N   1      33.832  10.882  14.666  0.00  0.00    -0.649 OA
BRANCH  30  32
HETATM   32  O   UNK N   1      34.421  13.014  14.832  0.00  0.00    -0.775 OA
HETATM   33  H   UNK N   1      35.177  13.387  15.242  0.00  0.00     0.167 HD
ENDBRANCH  30  32
ENDBRANCH  29  30
ENDBRANCH  26  29
ENDBRANCH   3  22
TORSDOF 7
ENDMDL
MODEL 8
REMARK VINA RESULT:      -7.3      4.596     10.711
REMARK  7 active torsions:
REMARK  status: ('A' for Active; 'I' for Inactive)
REMARK    1  A    between atoms: C_4  and  O_8 
REMARK    2  A    between atoms: O_8  and  C_9 
REMARK    3  A    between atoms: N_12  and  C_15 
REMARK    4  A    between atoms: C_17  and  C_21 
REMARK    5  A    between atoms: N_25  and  C_28 
REMARK    6  A    between atoms: C_28  and  C_29 
REMARK    7  A    between atoms: C_29  and  O_31 
ROOT
HETATM    1  C   UNK N   1      28.680  17.861   4.764  0.00  0.00     0.126 A 
HETATM    2  C   UNK N   1      29.694  17.818   5.699  0.00  0.00     0.093 A 
HETATM    3  C   UNK N   1      30.760  17.353   4.959  0.00  0.00     0.148 A 
HETATM    4  O   UNK N   1      30.386  17.163   3.716  0.00  0.00    -0.232 OA
HETATM    5  N   UNK N   1      29.131  17.450   3.566  0.00  0.00    -0.244 N 
ATOM      6  HN  UNK N   1      28.590  17.378   2.704  1.00  0.00     0.196 HD
ENDROOT
BRANCH   1   7
HETATM    7  N   UNK N   1      27.325  18.160   5.024  0.00  0.00    -0.366 N 
HETATM    8  C   UNK N   1      26.284  17.188   4.786  0.00  0.00     0.127 C 
HETATM    9  C   UNK N   1      25.504  17.597   3.540  0.00  0.00     0.052 C 
HETATM   10  C   UNK N   1      25.083  19.070   3.588  0.00  0.00     0.132 C 
HETATM   11  C   UNK N   1      26.211  20.033   4.011  0.00  0.00     0.052 C 
HETATM   12  C   UNK N   1      26.953  19.528   5.250  0.00  0.00     0.127 C 
BRANCH  10  13
HETATM   13  O   UNK N   1      23.832  19.248   4.166  0.00  0.00    -0.344 OA
BRANCH  13  14
HETATM   14  C   UNK N   1      22.601  19.307   3.583  0.00  0.00     0.089 A 
HETATM   15  C   UNK N   1      21.662  18.307   3.876  0.00  0.00     0.044 A 
HETATM   16  C   UNK N   1      20.395  18.335   3.283  0.00  0.00     0.025 A 
HETATM   17 Br   UNK N   1      22.102  16.876   5.066  0.00  0.00    -0.048 Br
HETATM   18  C   UNK N   1      20.052  19.365   2.403  0.00  0.00     0.044 A 
HETATM   19  C   UNK N   1      20.977  20.369   2.115  0.00  0.00     0.119 A 
HETATM   20  C   UNK N   1      22.239  20.336   2.702  0.00  0.00     0.080 A 
HETATM   21  F   UNK N   1      20.655  21.372   1.265  0.00  0.00    -0.206 F 
ENDBRANCH  13  14
ENDBRANCH  10  13
ENDBRANCH   1   7
BRANCH   3  22
HETATM   22  C   UNK N   1      32.102  17.073   5.441  0.00  0.00     0.171 A 
HETATM   23  N   UNK N   1      33.177  16.799   4.675  0.00  0.00    -0.264 N 
HETATM   24  N   UNK N   1      34.162  16.558   5.528  0.00  0.00    -0.002 NA
ATOM     25  HN  UNK N   1      33.223  16.782   3.657  1.00  0.00     0.186 HD
HETATM   26  N   UNK N   1      33.697  16.686   6.759  0.00  0.00    -0.206 N 
HETATM   27  N   UNK N   1      32.421  17.017   6.741  0.00  0.00    -0.267 N 
ATOM     28  HN  UNK N   1      31.811  17.190   7.539  1.00  0.00     0.190 HD
BRANCH  26  29
HETATM   29  C   UNK N   1      34.461  16.433   7.971  0.00  0.00     0.276 C 
BRANCH  29  30
HETATM   30  C   UNK N   1      34.827  17.719   8.668  0.00  0.00     0.161 C 
HETATM   31  O   UNK N   1      34.619  18.782   8.111  0.00  0.00    -0.649 OA
BRANCH  30  32
HETATM   32  O   UNK N   1      35.360  17.712   9.907  0.00  0.00    -0.775 OA
HETATM   33  H   UNK N   1      35.598  18.468  10.408  0.00  0.00     0.167 HD
ENDBRANCH  30  32
ENDBRANCH  29  30
ENDBRANCH  26  29
ENDBRANCH   3  22
TORSDOF 7
ENDMDL
MODEL 9
REMARK VINA RESULT:      -7.2      5.816     11.672
REMARK  7 active torsions:
REMARK  status: ('A' for Active; 'I' for Inactive)
REMARK    1  A    between atoms: C_4  and  O_8 
REMARK    2  A    between atoms: O_8  and  C_9 
REMARK    3  A    between atoms: N_12  and  C_15 
REMARK    4  A    between atoms: C_17  and  C_21 
REMARK    5  A    between atoms: N_25  and  C_28 
REMARK    6  A    between atoms: C_28  and  C_29 
REMARK    7  A    between atoms: C_29  and  O_31 
ROOT
HETATM    1  C   UNK N   1      31.345  16.858   7.731  0.00  0.00     0.126 A 
HETATM    2  C   UNK N   1      31.765  15.994   8.721  0.00  0.00     0.093 A 
HETATM    3  C   UNK N   1      32.953  16.563   9.128  0.00  0.00     0.148 A 
HETATM    4  O   UNK N   1      33.176  17.658   8.440  0.00  0.00    -0.232 OA
HETATM    5  N   UNK N   1      32.230  17.859   7.578  0.00  0.00    -0.244 N 
ATOM      6  HN  UNK N   1      32.168  18.630   6.912  1.00  0.00     0.196 HD
ENDROOT
BRANCH   1   7
HETATM    7  N   UNK N   1      30.225  16.675   6.891  0.00  0.00    -0.366 N 
HETATM    8  C   UNK N   1      30.382  16.314   5.502  0.00  0.00     0.127 C 
HETATM    9  C   UNK N   1      30.067  17.530   4.637  0.00  0.00     0.052 C 
HETATM   10  C   UNK N   1      28.744  18.191   5.040  0.00  0.00     0.132 C 
HETATM   11  C   UNK N   1      28.581  18.396   6.560  0.00  0.00     0.052 C 
HETATM   12  C   UNK N   1      28.943  17.133   7.345  0.00  0.00     0.127 C 
BRANCH  10  13
HETATM   13  O   UNK N   1      27.659  17.681   4.337  0.00  0.00    -0.344 OA
BRANCH  13  14
HETATM   14  C   UNK N   1      26.404  18.188   4.180  0.00  0.00     0.089 A 
HETATM   15  C   UNK N   1      25.323  17.521   4.777  0.00  0.00     0.044 A 
HETATM   16  C   UNK N   1      24.021  18.012   4.623  0.00  0.00     0.025 A 
HETATM   17 Br   UNK N   1      25.602  15.920   5.783  0.00  0.00    -0.048 Br
HETATM   18  C   UNK N   1      23.790  19.175   3.883  0.00  0.00     0.044 A 
HETATM   19  C   UNK N   1      24.860  19.849   3.297  0.00  0.00     0.119 A 
HETATM   20  C   UNK N   1      26.154  19.356   3.446  0.00  0.00     0.080 A 
HETATM   21  F   UNK N   1      24.647  20.978   2.580  0.00  0.00    -0.206 F 
ENDBRANCH  13  14
ENDBRANCH  10  13
ENDBRANCH   1   7
BRANCH   3  22
HETATM   22  C   UNK N   1      33.864  16.054  10.139  0.00  0.00     0.171 A 
HETATM   23  N   UNK N   1      34.917  16.715  10.660  0.00  0.00    -0.264 N 
HETATM   24  N   UNK N   1      35.489  15.860  11.494  0.00  0.00    -0.002 NA
ATOM     25  HN  UNK N   1      35.209  17.671  10.457  1.00  0.00     0.186 HD
HETATM   26  N   UNK N   1      34.805  14.729  11.477  0.00  0.00    -0.206 N 
HETATM   27  N   UNK N   1      33.781  14.820  10.652  0.00  0.00    -0.267 N 
ATOM     28  HN  UNK N   1      33.080  14.108  10.448  1.00  0.00     0.190 HD
BRANCH  26  29
HETATM   29  C   UNK N   1      35.163  13.525  12.210  0.00  0.00     0.276 C 
BRANCH  29  30
HETATM   30  C   UNK N   1      35.664  13.853  13.593  0.00  0.00     0.161 C 
HETATM   31  O   UNK N   1      35.010  13.513  14.564  0.00  0.00    -0.649 OA
BRANCH  30  32
HETATM   32  O   UNK N   1      36.835  14.496  13.775  0.00  0.00    -0.775 OA
HETATM   33  H   UNK N   1      37.525  14.573  13.146  0.00  0.00     0.167 HD
ENDBRANCH  30  32
ENDBRANCH  29  30
ENDBRANCH  26  29
ENDBRANCH   3  22
TORSDOF 7
ENDMDL
