MODEL 1
REMARK VINA RESULT:      -6.5      0.000      0.000
REMARK  7 active torsions:
REMARK  status: ('A' for Active; 'I' for Inactive)
REMARK    1  A    between atoms: C_3  and  O_20 
REMARK    2  A    between atoms: C_4  and  C_18 
REMARK    3  A    between atoms: C_5  and  O_7 
REMARK    4  A    between atoms: O_7  and  C_8 
REMARK    5  A    between atoms: C_8  and  C_9 
REMARK    6  A    between atoms: C_12  and  C_15 
REMARK    7  A    between atoms: C_15  and  O_17 
ROOT
HETATM    1  O   UNK N   1      25.883  25.859  -6.479  0.00  0.00    -0.346 OA
ENDROOT
BRANCH   1   2
HETATM    2  C   UNK N   1      26.540  27.046  -6.308  0.00  0.00     0.085 A 
HETATM    3  C   UNK N   1      26.363  27.995  -5.219  0.00  0.00     0.068 A 
HETATM    4  C   UNK N   1      27.146  29.174  -5.227  0.00  0.00     0.081 A 
HETATM    5  C   UNK N   1      28.061  29.426  -6.244  0.00  0.00     0.037 A 
HETATM    6  C   UNK N   1      28.227  28.521  -7.280  0.00  0.00     0.005 A 
HETATM    7  C   UNK N   1      27.476  27.351  -7.307  0.00  0.00     0.038 A 
BRANCH   3   8
HETATM    8  C   UNK N   1      25.438  27.904  -4.044  0.00  0.00     0.275 C 
HETATM    9  O   UNK N   1      25.754  27.835  -2.874  0.00  0.00    -0.301 OA
ENDBRANCH   3   8
BRANCH   4  10
HETATM   10  O   UNK N   1      27.019  30.083  -4.240  0.00  0.00    -0.360 OA
HETATM   11  H   UNK N   1      27.778  30.384  -3.781  0.00  0.00     0.217 HD
ENDBRANCH   4  10
ENDBRANCH   1   2
BRANCH   1  12
HETATM   12  C   UNK N   1      25.646  24.920  -5.513  0.00  0.00     0.214 C 
BRANCH  12  13
HETATM   13  C   UNK N   1      26.853  24.336  -4.860  0.00  0.00    -0.034 A 
HETATM   14  C   UNK N   1      26.861  24.307  -3.465  0.00  0.00     0.010 A 
HETATM   15  C   UNK N   1      27.946  23.779  -2.773  0.00  0.00     0.019 A 
HETATM   16  C   UNK N   1      29.045  23.269  -3.468  0.00  0.00     0.037 A 
HETATM   17  C   UNK N   1      29.046  23.294  -4.875  0.00  0.00     0.019 A 
HETATM   18  C   UNK N   1      27.949  23.827  -5.573  0.00  0.00     0.010 A 
BRANCH  16  19
HETATM   19  C   UNK N   1      30.190  22.712  -2.719  0.00  0.00     0.176 C 
HETATM   20  O   UNK N   1      30.925  21.887  -3.245  0.00  0.00    -0.646 OA
BRANCH  19  21
HETATM   21  O   UNK N   1      30.435  23.105  -1.456  0.00  0.00    -0.773 OA
HETATM   22  H   UNK N   1      30.797  23.954  -1.291  0.00  0.00     0.167 HD
ENDBRANCH  19  21
ENDBRANCH  16  19
ENDBRANCH  12  13
ENDBRANCH   1  12
TORSDOF 7
ENDMDL
MODEL 2
REMARK VINA RESULT:      -6.4     12.449     15.445
REMARK  7 active torsions:
REMARK  status: ('A' for Active; 'I' for Inactive)
REMARK    1  A    between atoms: C_3  and  O_20 
REMARK    2  A    between atoms: C_4  and  C_18 
REMARK    3  A    between atoms: C_5  and  O_7 
REMARK    4  A    between atoms: O_7  and  C_8 
REMARK    5  A    between atoms: C_8  and  C_9 
REMARK    6  A    between atoms: C_12  and  C_15 
REMARK    7  A    between atoms: C_15  and  O_17 
ROOT
HETATM    1  O   UNK N   1      30.033  16.619   6.034  0.00  0.00    -0.346 OA
ENDROOT
BRANCH   1   2
HETATM    2  C   UNK N   1      29.190  17.693   6.098  0.00  0.00     0.085 A 
HETATM    3  C   UNK N   1      28.540  18.227   7.286  0.00  0.00     0.068 A 
HETATM    4  C   UNK N   1      27.698  19.355   7.137  0.00  0.00     0.081 A 
HETATM    5  C   UNK N   1      27.493  19.943   5.893  0.00  0.00     0.037 A 
HETATM    6  C   UNK N   1      28.114  19.434   4.765  0.00  0.00     0.005 A 
HETATM    7  C   UNK N   1      28.948  18.326   4.870  0.00  0.00     0.038 A 
BRANCH   3   8
HETATM    8  C   UNK N   1      28.634  17.738   8.699  0.00  0.00     0.275 C 
HETATM    9  O   UNK N   1      27.715  17.377   9.406  0.00  0.00    -0.301 OA
ENDBRANCH   3   8
BRANCH   4  10
HETATM   10  O   UNK N   1      27.074  19.885   8.208  0.00  0.00    -0.360 OA
HETATM   11  H   UNK N   1      26.201  19.618   8.419  0.00  0.00     0.217 HD
ENDBRANCH   4  10
ENDBRANCH   1   2
BRANCH   1  12
HETATM   12  C   UNK N   1      31.359  16.650   5.703  0.00  0.00     0.214 C 
BRANCH  12  13
HETATM   13  C   UNK N   1      32.316  16.745   6.843  0.00  0.00    -0.034 A 
HETATM   14  C   UNK N   1      32.168  15.809   7.868  0.00  0.00     0.010 A 
HETATM   15  C   UNK N   1      33.017  15.824   8.970  0.00  0.00     0.019 A 
HETATM   16  C   UNK N   1      34.031  16.780   9.065  0.00  0.00     0.037 A 
HETATM   17  C   UNK N   1      34.187  17.728   8.037  0.00  0.00     0.019 A 
HETATM   18  C   UNK N   1      33.329  17.711   6.925  0.00  0.00     0.010 A 
BRANCH  16  19
HETATM   19  C   UNK N   1      34.924  16.783  10.242  0.00  0.00     0.176 C 
HETATM   20  O   UNK N   1      35.841  17.591  10.315  0.00  0.00    -0.646 OA
BRANCH  19  21
HETATM   21  O   UNK N   1      34.740  15.901  11.241  0.00  0.00    -0.773 OA
HETATM   22  H   UNK N   1      33.881  15.576  11.426  0.00  0.00     0.167 HD
ENDBRANCH  19  21
ENDBRANCH  16  19
ENDBRANCH  12  13
ENDBRANCH   1  12
TORSDOF 7
ENDMDL
MODEL 3
REMARK VINA RESULT:      -6.3     10.140     11.896
REMARK  7 active torsions:
REMARK  status: ('A' for Active; 'I' for Inactive)
REMARK    1  A    between atoms: C_3  and  O_20 
REMARK    2  A    between atoms: C_4  and  C_18 
REMARK    3  A    between atoms: C_5  and  O_7 
REMARK    4  A    between atoms: O_7  and  C_8 
REMARK    5  A    between atoms: C_8  and  C_9 
REMARK    6  A    between atoms: C_12  and  C_15 
REMARK    7  A    between atoms: C_15  and  O_17 
ROOT
HETATM    1  O   UNK N   1      23.263  20.466   3.401  0.00  0.00    -0.346 OA
ENDROOT
BRANCH   1   2
HETATM    2  C   UNK N   1      22.217  19.586   3.400  0.00  0.00     0.085 A 
HETATM    3  C   UNK N   1      21.065  19.596   2.510  0.00  0.00     0.068 A 
HETATM    4  C   UNK N   1      20.084  18.589   2.676  0.00  0.00     0.081 A 
HETATM    5  C   UNK N   1      20.211  17.613   3.659  0.00  0.00     0.037 A 
HETATM    6  C   UNK N   1      21.308  17.606   4.505  0.00  0.00     0.005 A 
HETATM    7  C   UNK N   1      22.293  18.579   4.373  0.00  0.00     0.038 A 
BRANCH   3   8
HETATM    8  C   UNK N   1      20.752  20.553   1.402  0.00  0.00     0.275 C 
HETATM    9  O   UNK N   1      21.108  20.466   0.244  0.00  0.00    -0.301 OA
ENDBRANCH   3   8
BRANCH   4  10
HETATM   10  O   UNK N   1      19.000  18.556   1.876  0.00  0.00    -0.360 OA
HETATM   11  H   UNK N   1      18.642  17.734   1.607  0.00  0.00     0.217 HD
ENDBRANCH   4  10
ENDBRANCH   1   2
BRANCH   1  12
HETATM   12  C   UNK N   1      24.382  20.391   2.619  0.00  0.00     0.214 C 
BRANCH  12  13
HETATM   13  C   UNK N   1      25.564  19.719   3.231  0.00  0.00    -0.034 A 
HETATM   14  C   UNK N   1      26.551  20.547   3.767  0.00  0.00     0.010 A 
HETATM   15  C   UNK N   1      27.687  20.006   4.358  0.00  0.00     0.019 A 
HETATM   16  C   UNK N   1      27.857  18.621   4.423  0.00  0.00     0.037 A 
HETATM   17  C   UNK N   1      26.867  17.777   3.885  0.00  0.00     0.019 A 
HETATM   18  C   UNK N   1      25.719  18.326   3.288  0.00  0.00     0.010 A 
BRANCH  16  19
HETATM   19  C   UNK N   1      29.069  18.061   5.053  0.00  0.00     0.176 C 
HETATM   20  O   UNK N   1      29.069  17.784   6.246  0.00  0.00    -0.646 OA
BRANCH  19  21
HETATM   21  O   UNK N   1      30.182  17.851   4.326  0.00  0.00    -0.773 OA
HETATM   22  H   UNK N   1      30.114  17.522   3.450  0.00  0.00     0.167 HD
ENDBRANCH  19  21
ENDBRANCH  16  19
ENDBRANCH  12  13
ENDBRANCH   1  12
TORSDOF 7
ENDMDL
MODEL 4
REMARK VINA RESULT:      -6.3     11.116     13.891
REMARK  7 active torsions:
REMARK  status: ('A' for Active; 'I' for Inactive)
REMARK    1  A    between atoms: C_3  and  O_20 
REMARK    2  A    between atoms: C_4  and  C_18 
REMARK    3  A    between atoms: C_5  and  O_7 
REMARK    4  A    between atoms: O_7  and  C_8 
REMARK    5  A    between atoms: C_8  and  C_9 
REMARK    6  A    between atoms: C_12  and  C_15 
REMARK    7  A    between atoms: C_15  and  O_17 
ROOT
HETATM    1  O   UNK N   1      28.398  17.364   6.378  0.00  0.00    -0.346 OA
ENDROOT
BRANCH   1   2
HETATM    2  C   UNK N   1      27.832  18.526   5.933  0.00  0.00     0.085 A 
HETATM    3  C   UNK N   1      27.144  18.737   4.668  0.00  0.00     0.068 A 
HETATM    4  C   UNK N   1      26.626  20.025   4.395  0.00  0.00     0.081 A 
HETATM    5  C   UNK N   1      26.768  21.068   5.306  0.00  0.00     0.037 A 
HETATM    6  C   UNK N   1      27.424  20.865   6.509  0.00  0.00     0.005 A 
HETATM    7  C   UNK N   1      27.946  19.612   6.813  0.00  0.00     0.038 A 
BRANCH   3   8
HETATM    8  C   UNK N   1      26.892  17.750   3.569  0.00  0.00     0.275 C 
HETATM    9  O   UNK N   1      25.812  17.347   3.188  0.00  0.00    -0.301 OA
ENDBRANCH   3   8
BRANCH   4  10
HETATM   10  O   UNK N   1      25.981  20.269   3.238  0.00  0.00    -0.360 OA
HETATM   11  H   UNK N   1      25.730  19.557   2.683  0.00  0.00     0.217 HD
ENDBRANCH   4  10
ENDBRANCH   1   2
BRANCH   1  12
HETATM   12  C   UNK N   1      29.549  16.795   5.911  0.00  0.00     0.214 C 
BRANCH  12  13
HETATM   13  C   UNK N   1      30.799  17.150   6.644  0.00  0.00    -0.034 A 
HETATM   14  C   UNK N   1      31.984  17.142   5.907  0.00  0.00     0.010 A 
HETATM   15  C   UNK N   1      33.196  17.460   6.510  0.00  0.00     0.019 A 
HETATM   16  C   UNK N   1      33.243  17.794   7.866  0.00  0.00     0.037 A 
HETATM   17  C   UNK N   1      32.053  17.805   8.617  0.00  0.00     0.019 A 
HETATM   18  C   UNK N   1      30.829  17.483   8.006  0.00  0.00     0.010 A 
BRANCH  16  19
HETATM   19  C   UNK N   1      34.537  18.130   8.492  0.00  0.00     0.176 C 
HETATM   20  O   UNK N   1      35.251  18.995   8.001  0.00  0.00    -0.646 OA
BRANCH  19  21
HETATM   21  O   UNK N   1      34.944  17.492   9.604  0.00  0.00    -0.773 OA
HETATM   22  H   UNK N   1      34.585  16.653   9.821  0.00  0.00     0.167 HD
ENDBRANCH  19  21
ENDBRANCH  16  19
ENDBRANCH  12  13
ENDBRANCH   1  12
TORSDOF 7
ENDMDL
MODEL 5
REMARK VINA RESULT:      -6.1     10.054     13.778
REMARK  7 active torsions:
REMARK  status: ('A' for Active; 'I' for Inactive)
REMARK    1  A    between atoms: C_3  and  O_20 
REMARK    2  A    between atoms: C_4  and  C_18 
REMARK    3  A    between atoms: C_5  and  O_7 
REMARK    4  A    between atoms: O_7  and  C_8 
REMARK    5  A    between atoms: C_8  and  C_9 
REMARK    6  A    between atoms: C_12  and  C_15 
REMARK    7  A    between atoms: C_15  and  O_17 
ROOT
HETATM    1  O   UNK N   1      29.451  17.020   6.160  0.00  0.00    -0.346 OA
ENDROOT
BRANCH   1   2
HETATM    2  C   UNK N   1      30.707  17.167   5.640  0.00  0.00     0.085 A 
HETATM    3  C   UNK N   1      31.949  17.322   6.384  0.00  0.00     0.068 A 
HETATM    4  C   UNK N   1      33.153  17.461   5.652  0.00  0.00     0.081 A 
HETATM    5  C   UNK N   1      33.157  17.449   4.261  0.00  0.00     0.037 A 
HETATM    6  C   UNK N   1      31.974  17.300   3.556  0.00  0.00     0.005 A 
HETATM    7  C   UNK N   1      30.771  17.162   4.239  0.00  0.00     0.038 A 
BRANCH   3   8
HETATM    8  C   UNK N   1      32.148  17.360   7.868  0.00  0.00     0.275 C 
HETATM    9  O   UNK N   1      31.805  18.245   8.626  0.00  0.00    -0.301 OA
ENDBRANCH   3   8
BRANCH   4  10
HETATM   10  O   UNK N   1      34.328  17.608   6.295  0.00  0.00    -0.360 OA
HETATM   11  H   UNK N   1      35.133  17.543   5.820  0.00  0.00     0.217 HD
ENDBRANCH   4  10
ENDBRANCH   1   2
BRANCH   1  12
HETATM   12  C   UNK N   1      28.651  18.022   6.632  0.00  0.00     0.214 C 
BRANCH  12  13
HETATM   13  C   UNK N   1      27.659  18.578   5.666  0.00  0.00    -0.034 A 
HETATM   14  C   UNK N   1      27.610  19.968   5.546  0.00  0.00     0.010 A 
HETATM   15  C   UNK N   1      26.716  20.572   4.668  0.00  0.00     0.019 A 
HETATM   16  C   UNK N   1      25.853  19.793   3.893  0.00  0.00     0.037 A 
HETATM   17  C   UNK N   1      25.896  18.391   4.008  0.00  0.00     0.019 A 
HETATM   18  C   UNK N   1      26.800  17.782   4.894  0.00  0.00     0.010 A 
BRANCH  16  19
HETATM   19  C   UNK N   1      24.909  20.449   2.966  0.00  0.00     0.176 C 
HETATM   20  O   UNK N   1      25.279  20.783   1.848  0.00  0.00    -0.646 OA
BRANCH  19  21
HETATM   21  O   UNK N   1      23.638  20.686   3.340  0.00  0.00    -0.773 OA
HETATM   22  H   UNK N   1      23.038  21.079   2.736  0.00  0.00     0.167 HD
ENDBRANCH  19  21
ENDBRANCH  16  19
ENDBRANCH  12  13
ENDBRANCH   1  12
TORSDOF 7
ENDMDL
MODEL 6
REMARK VINA RESULT:      -6.1     21.553     26.002
REMARK  7 active torsions:
REMARK  status: ('A' for Active; 'I' for Inactive)
REMARK    1  A    between atoms: C_3  and  O_20 
REMARK    2  A    between atoms: C_4  and  C_18 
REMARK    3  A    between atoms: C_5  and  O_7 
REMARK    4  A    between atoms: O_7  and  C_8 
REMARK    5  A    between atoms: C_8  and  C_9 
REMARK    6  A    between atoms: C_12  and  C_15 
REMARK    7  A    between atoms: C_15  and  O_17 
ROOT
HETATM    1  O   UNK N   1      36.081  11.629  16.296  0.00  0.00    -0.346 OA
ENDROOT
BRANCH   1   2
HETATM    2  C   UNK N   1      35.714  11.546  17.610  0.00  0.00     0.085 A 
HETATM    3  C   UNK N   1      35.319  12.646  18.480  0.00  0.00     0.068 A 
HETATM    4  C   UNK N   1      34.973  12.347  19.819  0.00  0.00     0.081 A 
HETATM    5  C   UNK N   1      35.007  11.041  20.299  0.00  0.00     0.037 A 
HETATM    6  C   UNK N   1      35.383   9.997  19.470  0.00  0.00     0.005 A 
HETATM    7  C   UNK N   1      35.730  10.251  18.147  0.00  0.00     0.038 A 
BRANCH   3   8
HETATM    8  C   UNK N   1      35.222  14.104  18.152  0.00  0.00     0.275 C 
HETATM    9  O   UNK N   1      36.139  14.896  18.080  0.00  0.00    -0.301 OA
ENDBRANCH   3   8
BRANCH   4  10
HETATM   10  O   UNK N   1      34.601  13.330  20.662  0.00  0.00    -0.360 OA
HETATM   11  H   UNK N   1      34.400  14.181  20.327  0.00  0.00     0.217 HD
ENDBRANCH   4  10
ENDBRANCH   1   2
BRANCH   1  12
HETATM   12  C   UNK N   1      35.236  11.703  15.224  0.00  0.00     0.214 C 
BRANCH  12  13
HETATM   13  C   UNK N   1      35.487  12.822  14.270  0.00  0.00    -0.034 A 
HETATM   14  C   UNK N   1      34.865  12.737  13.024  0.00  0.00     0.010 A 
HETATM   15  C   UNK N   1      35.043  13.736  12.073  0.00  0.00     0.019 A 
HETATM   16  C   UNK N   1      35.851  14.840  12.353  0.00  0.00     0.037 A 
HETATM   17  C   UNK N   1      36.483  14.934  13.606  0.00  0.00     0.019 A 
HETATM   18  C   UNK N   1      36.302  13.924  14.566  0.00  0.00     0.010 A 
BRANCH  16  19
HETATM   19  C   UNK N   1      36.031  15.892  11.332  0.00  0.00     0.176 C 
HETATM   20  O   UNK N   1      35.169  16.748  11.173  0.00  0.00    -0.646 OA
BRANCH  19  21
HETATM   21  O   UNK N   1      37.139  15.922  10.570  0.00  0.00    -0.773 OA
HETATM   22  H   UNK N   1      37.198  16.522   9.852  0.00  0.00     0.167 HD
ENDBRANCH  19  21
ENDBRANCH  16  19
ENDBRANCH  12  13
ENDBRANCH   1  12
TORSDOF 7
ENDMDL
MODEL 7
REMARK VINA RESULT:      -6.1      1.971      6.781
REMARK  7 active torsions:
REMARK  status: ('A' for Active; 'I' for Inactive)
REMARK    1  A    between atoms: C_3  and  O_20 
REMARK    2  A    between atoms: C_4  and  C_18 
REMARK    3  A    between atoms: C_5  and  O_7 
REMARK    4  A    between atoms: O_7  and  C_8 
REMARK    5  A    between atoms: C_8  and  C_9 
REMARK    6  A    between atoms: C_12  and  C_15 
REMARK    7  A    between atoms: C_15  and  O_17 
ROOT
HETATM    1  O   UNK N   1      29.067  22.580  -5.295  0.00  0.00    -0.346 OA
ENDROOT
BRANCH   1   2
HETATM    2  C   UNK N   1      30.132  21.858  -4.833  0.00  0.00     0.085 A 
HETATM    3  C   UNK N   1      30.866  22.075  -3.594  0.00  0.00     0.068 A 
HETATM    4  C   UNK N   1      31.946  21.209  -3.298  0.00  0.00     0.081 A 
HETATM    5  C   UNK N   1      32.302  20.178  -4.161  0.00  0.00     0.037 A 
HETATM    6  C   UNK N   1      31.603  19.974  -5.338  0.00  0.00     0.005 A 
HETATM    7  C   UNK N   1      30.535  20.804  -5.665  0.00  0.00     0.038 A 
BRANCH   3   8
HETATM    8  C   UNK N   1      30.637  23.120  -2.546  0.00  0.00     0.275 C 
HETATM    9  O   UNK N   1      30.372  22.931  -1.376  0.00  0.00    -0.301 OA
ENDBRANCH   3   8
BRANCH   4  10
HETATM   10  O   UNK N   1      32.655  21.370  -2.163  0.00  0.00    -0.360 OA
HETATM   11  H   UNK N   1      33.352  21.995  -2.132  0.00  0.00     0.217 HD
ENDBRANCH   4  10
ENDBRANCH   1   2
BRANCH   1  12
HETATM   12  C   UNK N   1      29.129  23.724  -6.041  0.00  0.00     0.214 C 
BRANCH  12  13
HETATM   13  C   UNK N   1      28.384  24.898  -5.501  0.00  0.00    -0.034 A 
HETATM   14  C   UNK N   1      27.593  24.676  -4.373  0.00  0.00     0.010 A 
HETATM   15  C   UNK N   1      26.864  25.714  -3.802  0.00  0.00     0.019 A 
HETATM   16  C   UNK N   1      26.914  26.997  -4.353  0.00  0.00     0.037 A 
HETATM   17  C   UNK N   1      27.709  27.230  -5.491  0.00  0.00     0.019 A 
HETATM   18  C   UNK N   1      28.445  26.180  -6.066  0.00  0.00     0.010 A 
BRANCH  16  19
HETATM   19  C   UNK N   1      26.134  28.088  -3.736  0.00  0.00     0.176 C 
HETATM   20  O   UNK N   1      25.411  27.859  -2.775  0.00  0.00    -0.646 OA
BRANCH  19  21
HETATM   21  O   UNK N   1      26.209  29.340  -4.222  0.00  0.00    -0.773 OA
HETATM   22  H   UNK N   1      26.965  29.867  -4.047  0.00  0.00     0.167 HD
ENDBRANCH  19  21
ENDBRANCH  16  19
ENDBRANCH  12  13
ENDBRANCH   1  12
TORSDOF 7
ENDMDL
MODEL 8
REMARK VINA RESULT:      -6.0     12.299     16.502
REMARK  7 active torsions:
REMARK  status: ('A' for Active; 'I' for Inactive)
REMARK    1  A    between atoms: C_3  and  O_20 
REMARK    2  A    between atoms: C_4  and  C_18 
REMARK    3  A    between atoms: C_5  and  O_7 
REMARK    4  A    between atoms: O_7  and  C_8 
REMARK    5  A    between atoms: C_8  and  C_9 
REMARK    6  A    between atoms: C_12  and  C_15 
REMARK    7  A    between atoms: C_15  and  O_17 
ROOT
HETATM    1  O   UNK N   1      32.234  16.338   7.000  0.00  0.00    -0.346 OA
ENDROOT
BRANCH   1   2
HETATM    2  C   UNK N   1      33.048  16.130   8.078  0.00  0.00     0.085 A 
HETATM    3  C   UNK N   1      33.964  17.087   8.682  0.00  0.00     0.068 A 
HETATM    4  C   UNK N   1      34.723  16.671   9.802  0.00  0.00     0.081 A 
HETATM    5  C   UNK N   1      34.603  15.384  10.317  0.00  0.00     0.037 A 
HETATM    6  C   UNK N   1      33.732  14.475   9.741  0.00  0.00     0.005 A 
HETATM    7  C   UNK N   1      32.968  14.847   8.639  0.00  0.00     0.038 A 
BRANCH   3   8
HETATM    8  C   UNK N   1      34.231  18.504   8.276  0.00  0.00     0.275 C 
HETATM    9  O   UNK N   1      35.315  19.046   8.197  0.00  0.00    -0.301 OA
ENDBRANCH   3   8
BRANCH   4  10
HETATM   10  O   UNK N   1      35.584  17.522  10.394  0.00  0.00    -0.360 OA
HETATM   11  H   UNK N   1      36.487  17.522  10.146  0.00  0.00     0.217 HD
ENDBRANCH   4  10
ENDBRANCH   1   2
BRANCH   1  12
HETATM   12  C   UNK N   1      30.934  15.934   6.879  0.00  0.00     0.214 C 
BRANCH  12  13
HETATM   13  C   UNK N   1      29.944  17.004   6.561  0.00  0.00    -0.034 A 
HETATM   14  C   UNK N   1      29.263  17.571   7.639  0.00  0.00     0.010 A 
HETATM   15  C   UNK N   1      28.323  18.575   7.434  0.00  0.00     0.019 A 
HETATM   16  C   UNK N   1      28.047  19.031   6.143  0.00  0.00     0.037 A 
HETATM   17  C   UNK N   1      28.729  18.465   5.050  0.00  0.00     0.019 A 
HETATM   18  C   UNK N   1      29.679  17.451   5.258  0.00  0.00     0.010 A 
BRANCH  16  19
HETATM   19  C   UNK N   1      27.046  20.098   5.942  0.00  0.00     0.176 C 
HETATM   20  O   UNK N   1      27.408  21.250   5.742  0.00  0.00    -0.646 OA
BRANCH  19  21
HETATM   21  O   UNK N   1      25.731  19.815   5.976  0.00  0.00    -0.773 OA
HETATM   22  H   UNK N   1      25.304  19.479   5.212  0.00  0.00     0.167 HD
ENDBRANCH  19  21
ENDBRANCH  16  19
ENDBRANCH  12  13
ENDBRANCH   1  12
TORSDOF 7
ENDMDL
MODEL 9
REMARK VINA RESULT:      -6.0      1.641      2.432
REMARK  7 active torsions:
REMARK  status: ('A' for Active; 'I' for Inactive)
REMARK    1  A    between atoms: C_3  and  O_20 
REMARK    2  A    between atoms: C_4  and  C_18 
REMARK    3  A    between atoms: C_5  and  O_7 
REMARK    4  A    between atoms: O_7  and  C_8 
REMARK    5  A    between atoms: C_8  and  C_9 
REMARK    6  A    between atoms: C_12  and  C_15 
REMARK    7  A    between atoms: C_15  and  O_17 
ROOT
HETATM    1  O   UNK N   1      28.153  26.950  -6.743  0.00  0.00    -0.346 OA
ENDROOT
BRANCH   1   2
HETATM    2  C   UNK N   1      27.558  27.692  -5.762  0.00  0.00     0.085 A 
HETATM    3  C   UNK N   1      26.737  27.197  -4.666  0.00  0.00     0.068 A 
HETATM    4  C   UNK N   1      26.209  28.137  -3.749  0.00  0.00     0.081 A 
HETATM    5  C   UNK N   1      26.464  29.498  -3.884  0.00  0.00     0.037 A 
HETATM    6  C   UNK N   1      27.245  29.967  -4.927  0.00  0.00     0.005 A 
HETATM    7  C   UNK N   1      27.781  29.074  -5.849  0.00  0.00     0.038 A 
BRANCH   3   8
HETATM    8  C   UNK N   1      26.354  25.783  -4.354  0.00  0.00     0.275 C 
HETATM    9  O   UNK N   1      26.445  25.225  -3.279  0.00  0.00    -0.301 OA
ENDBRANCH   3   8
BRANCH   4  10
HETATM   10  O   UNK N   1      25.444  27.727  -2.718  0.00  0.00    -0.360 OA
HETATM   11  H   UNK N   1      24.714  27.161  -2.874  0.00  0.00     0.217 HD
ENDBRANCH   4  10
ENDBRANCH   1   2
BRANCH   1  12
HETATM   12  C   UNK N   1      29.427  26.455  -6.721  0.00  0.00     0.214 C 
BRANCH  12  13
HETATM   13  C   UNK N   1      29.722  25.457  -5.652  0.00  0.00    -0.034 A 
HETATM   14  C   UNK N   1      30.393  25.925  -4.522  0.00  0.00     0.010 A 
HETATM   15  C   UNK N   1      30.708  25.064  -3.477  0.00  0.00     0.019 A 
HETATM   16  C   UNK N   1      30.356  23.714  -3.544  0.00  0.00     0.037 A 
HETATM   17  C   UNK N   1      29.678  23.232  -4.680  0.00  0.00     0.019 A 
HETATM   18  C   UNK N   1      29.361  24.104  -5.735  0.00  0.00     0.010 A 
BRANCH  16  19
HETATM   19  C   UNK N   1      30.698  22.812  -2.426  0.00  0.00     0.176 C 
HETATM   20  O   UNK N   1      31.384  21.818  -2.626  0.00  0.00    -0.646 OA
BRANCH  19  21
HETATM   21  O   UNK N   1      30.260  23.072  -1.181  0.00  0.00    -0.773 OA
HETATM   22  H   UNK N   1      30.509  22.513  -0.470  0.00  0.00     0.167 HD
ENDBRANCH  19  21
ENDBRANCH  16  19
ENDBRANCH  12  13
ENDBRANCH   1  12
TORSDOF 7
ENDMDL
