REMARK  9 active torsions:
REMARK  status: ('A' for Active; 'I' for Inactive)
REMARK    1  A    between atoms: N_18  and  C_5 
REMARK    2  A    between atoms: N_18  and  C_6 
REMARK    3  A    between atoms: C_10  and  C_9 
REMARK    4  A    between atoms: N_16  and  C_9 
REMARK    5  A    between atoms: N_18  and  C_10 
REMARK    6  A    between atoms: S_23  and  C_12 
REMARK    7  A    between atoms: C_15  and  C_13 
REMARK    8  A    between atoms: O_22  and  C_14 
REMARK    9  A    between atoms: O_19  and  C_15 
ROOT
HETATM    1  C   UNK N   1      10.850   3.080   0.241  0.00  0.00     0.026 A 
HETATM    2  C   UNK N   1       9.618   3.720   0.105  0.00  0.00     0.039 A 
HETATM    3  C   UNK N   1       9.779   0.954  -0.126  0.00  0.00     0.042 A 
HETATM    4  C   UNK N   1      10.930   1.694   0.118  0.00  0.00     0.059 A 
HETATM    5  C   UNK N   1       8.524   1.563  -0.230  0.00  0.00     0.049 A 
HETATM    6  C   UNK N   1       8.440   2.980  -0.128  0.00  0.00     0.082 A 
ENDROOT
BRANCH   5   7
HETATM    7  C   UNK N   1       7.370   0.642  -0.470  0.00  0.00     0.149 C 
HETATM    8  N   UNK N   1       6.188   0.801   0.020  0.00  0.00    -0.369 N 
ATOM      9  HN  UNK N   1       5.484   0.115  -0.254  1.00  0.00     0.161 HD
BRANCH   8  10
HETATM   10  C   UNK N   1       5.755   1.846   0.914  0.00  0.00     0.152 C 
BRANCH  10  11
HETATM   11  C   UNK N   1       4.443   1.459   1.623  0.00  0.00     0.292 C 
BRANCH  11  12
HETATM   12  N   UNK N   1       3.413   0.853   0.762  0.00  0.00     0.089 N 
BRANCH  12  13
HETATM   13  C   UNK N   1       3.269   1.591  -0.492  0.00  0.00     0.268 C 
HETATM   14  C   UNK N   1       2.029   2.459  -0.437  0.00  0.00     0.037 C 
ENDBRANCH  12  13
BRANCH  12  15
HETATM   15  C   UNK N   1       3.769  -0.540   0.496  0.00  0.00     0.268 C 
HETATM   16  C   UNK N   1       2.631  -1.284  -0.183  0.00  0.00     0.037 C 
ENDBRANCH  12  15
ENDBRANCH  11  12
ENDBRANCH  10  11
ENDBRANCH   8  10
BRANCH   7  17
HETATM   17  O   UNK N   1       7.608  -0.486  -1.171  0.00  0.00    -0.346 OA
HETATM   18  H   UNK N   1       7.013  -1.021  -1.657  0.00  0.00     0.219 HD
ENDBRANCH   7  17
ENDBRANCH   5   7
BRANCH   6  19
HETATM   19  O   UNK N   1       7.260   3.621  -0.307  0.00  0.00    -0.355 OA
HETATM   20  C   UNK N   1       7.113   4.988  -0.222  0.00  0.00     0.210 C 
ENDBRANCH   6  19
BRANCH   4  21
HETATM   21  S   UNK N   1      12.480   0.836   0.351  0.00  0.00     0.171 S 
HETATM   22  C   UNK N   1      13.240  -0.340  -0.801  0.00  0.00     0.167 C 
HETATM   23  O   UNK N   1      12.361   0.117   1.703  0.00  0.00    -0.223 OA
HETATM   24  O   UNK N   1      13.545   1.873   0.740  0.00  0.00    -0.223 OA
ENDBRANCH   4  21
TORSDOF 9
