MODEL 1
REMARK VINA RESULT:      -7.3      0.000      0.000
REMARK  4 active torsions:
REMARK  status: ('A' for Active; 'I' for Inactive)
REMARK    1  A    between atoms: C_4  and  N_26 
REMARK    2  A    between atoms: C_14  and  N_9 
REMARK    3  A    between atoms: C_15  and  O_25 
REMARK    4  A    between atoms: P_21  and  O_24 
ROOT
HETATM    1  C   UNK N   1      29.362  18.439   9.890  0.00  0.00     0.183 A 
HETATM    2  N   UNK N   1      28.325  18.687   9.021  0.00  0.00    -0.337 N 
ATOM      3  HN  UNK N   1      27.507  19.199   9.349  1.00  0.00     0.168 HD
HETATM    4  C   UNK N   1      28.375  18.257   7.726  0.00  0.00     0.131 A 
HETATM    5  C   UNK N   1      29.503  17.565   7.315  0.00  0.00     0.123 A 
HETATM    6  C   UNK N   1      30.510  17.323   8.186  0.00  0.00     0.144 A 
HETATM    7  N   UNK N   1      30.466  17.742   9.473  0.00  0.00    -0.336 N 
ATOM      8  HN  UNK N   1      31.234  17.545  10.115  1.00  0.00     0.168 HD
HETATM    9  N   UNK N   1      31.461  16.591   7.576  0.00  0.00    -0.277 N 
HETATM   10  C   UNK N   1      30.993  16.422   6.311  0.00  0.00     0.185 A 
HETATM   11  N   UNK N   1      29.784  17.017   6.120  0.00  0.00    -0.326 N 
ATOM     12  HN  UNK N   1      29.222  17.042   5.269  1.00  0.00     0.168 HD
HETATM   13 Cl   UNK N   1      31.819  15.517   5.054  0.00  0.00    -0.044 Cl
ENDROOT
BRANCH   9  14
HETATM   14  C   UNK N   1      32.694  16.000   8.119  0.00  0.00     0.264 C 
HETATM   15  C   UNK N   1      32.530  14.772   8.992  0.00  0.00     0.199 C 
HETATM   16  C   UNK N   1      33.857  14.749   9.715  0.00  0.00     0.197 C 
HETATM   17  C   UNK N   1      34.511  16.028   9.206  0.00  0.00     0.180 C 
HETATM   18  O   UNK N   1      33.616  14.879  11.091  0.00  0.00    -0.286 OA
HETATM   19  O   UNK N   1      33.471  16.895   8.857  0.00  0.00    -0.353 OA
HETATM   20  C   UNK N   1      35.419  16.593  10.285  0.00  0.00     0.215 C 
HETATM   21  O   UNK N   1      36.155  15.533  10.838  0.00  0.00    -0.294 OA
HETATM   22  P   UNK N   1      35.120  14.720  12.013  0.00  0.00     0.393 P 
HETATM   23  O   UNK N   1      35.860  13.656  11.150  0.00  0.00    -0.631 OA
BRANCH  15  24
HETATM   24  O   UNK N   1      32.382  13.631   8.203  0.00  0.00    -0.388 OA
HETATM   25  H   UNK N   1      32.746  13.056   7.513  0.00  0.00     0.210 HD
ENDBRANCH  15  24
BRANCH  22  26
HETATM   26  O   UNK N   1      34.615  13.104  12.390  0.00  0.00    -0.307 OA
HETATM   27  H   UNK N   1      33.861  12.687  11.946  0.00  0.00     0.222 HD
ENDBRANCH  22  26
ENDBRANCH   9  14
BRANCH   4  28
HETATM   28  N   UNK N   1      27.297  18.490   6.848  0.00  0.00    -0.383 N 
HETATM   29  H   UNK N   1      26.480  17.944   6.906  0.00  0.00     0.157 HD
HETATM   30  H   UNK N   1      27.362  19.202   6.172  0.00  0.00     0.157 HD
ENDBRANCH   4  28
TORSDOF 4
ENDMDL
MODEL 2
REMARK VINA RESULT:      -7.0     11.120     12.807
REMARK  4 active torsions:
REMARK  status: ('A' for Active; 'I' for Inactive)
REMARK    1  A    between atoms: C_4  and  N_26 
REMARK    2  A    between atoms: C_14  and  N_9 
REMARK    3  A    between atoms: C_15  and  O_25 
REMARK    4  A    between atoms: P_21  and  O_24 
ROOT
HETATM    1  C   UNK N   1      21.331  20.603   3.619  0.00  0.00     0.183 A 
HETATM    2  N   UNK N   1      21.060  21.123   2.374  0.00  0.00    -0.337 N 
ATOM      3  HN  UNK N   1      21.142  22.127   2.221  1.00  0.00     0.168 HD
HETATM    4  C   UNK N   1      20.682  20.313   1.342  0.00  0.00     0.131 A 
HETATM    5  C   UNK N   1      20.582  18.952   1.587  0.00  0.00     0.123 A 
HETATM    6  C   UNK N   1      20.845  18.460   2.820  0.00  0.00     0.144 A 
HETATM    7  N   UNK N   1      21.216  19.258   3.850  0.00  0.00    -0.336 N 
ATOM      8  HN  UNK N   1      21.406  18.867   4.774  1.00  0.00     0.168 HD
HETATM    9  N   UNK N   1      20.625  17.132   2.826  0.00  0.00    -0.277 N 
HETATM   10  C   UNK N   1      20.240  16.852   1.553  0.00  0.00     0.185 A 
HETATM   11  N   UNK N   1      20.208  17.959   0.763  0.00  0.00    -0.326 N 
ATOM     12  HN  UNK N   1      19.958  18.021  -0.224  1.00  0.00     0.168 HD
HETATM   13 Cl   UNK N   1      19.800  15.254   0.974  0.00  0.00    -0.044 Cl
ENDROOT
BRANCH   9  14
HETATM   14  C   UNK N   1      20.678  16.170   3.937  0.00  0.00     0.264 C 
HETATM   15  C   UNK N   1      19.500  16.169   4.890  0.00  0.00     0.199 C 
HETATM   16  C   UNK N   1      20.094  15.461   6.086  0.00  0.00     0.197 C 
HETATM   17  C   UNK N   1      21.540  15.269   5.649  0.00  0.00     0.180 C 
HETATM   18  O   UNK N   1      20.063  16.336   7.182  0.00  0.00    -0.286 OA
HETATM   19  O   UNK N   1      21.818  16.291   4.734  0.00  0.00    -0.353 OA
HETATM   20  C   UNK N   1      22.445  15.303   6.869  0.00  0.00     0.215 C 
HETATM   21  O   UNK N   1      21.849  14.529   7.878  0.00  0.00    -0.294 OA
HETATM   22  P   UNK N   1      20.616  15.523   8.655  0.00  0.00     0.393 P 
HETATM   23  O   UNK N   1      20.050  14.093   8.409  0.00  0.00    -0.631 OA
BRANCH  15  24
HETATM   24  O   UNK N   1      18.444  15.431   4.358  0.00  0.00    -0.388 OA
HETATM   25  H   UNK N   1      17.966  14.588   4.323  0.00  0.00     0.210 HD
ENDBRANCH  15  24
BRANCH  22  26
HETATM   26  O   UNK N   1      18.946  15.393   9.106  0.00  0.00    -0.307 OA
HETATM   27  H   UNK N   1      18.462  16.137   9.498  0.00  0.00     0.222 HD
ENDBRANCH  22  26
ENDBRANCH   9  14
BRANCH   4  28
HETATM   28  N   UNK N   1      20.378  20.854   0.076  0.00  0.00    -0.383 N 
HETATM   29  H   UNK N   1      20.354  20.276  -0.721  0.00  0.00     0.157 HD
HETATM   30  H   UNK N   1      20.190  21.815  -0.012  0.00  0.00     0.157 HD
ENDBRANCH   4  28
TORSDOF 4
ENDMDL
MODEL 3
REMARK VINA RESULT:      -7.0      5.119      7.566
REMARK  4 active torsions:
REMARK  status: ('A' for Active; 'I' for Inactive)
REMARK    1  A    between atoms: C_4  and  N_26 
REMARK    2  A    between atoms: C_14  and  N_9 
REMARK    3  A    between atoms: C_15  and  O_25 
REMARK    4  A    between atoms: P_21  and  O_24 
ROOT
HETATM    1  C   UNK N   1      36.821  15.149  14.635  0.00  0.00     0.183 A 
HETATM    2  N   UNK N   1      36.800  14.105  15.531  0.00  0.00    -0.337 N 
ATOM      3  HN  UNK N   1      37.178  14.239  16.467  1.00  0.00     0.168 HD
HETATM    4  C   UNK N   1      36.279  12.891  15.183  0.00  0.00     0.131 A 
HETATM    5  C   UNK N   1      35.772  12.745  13.901  0.00  0.00     0.123 A 
HETATM    6  C   UNK N   1      35.809  13.782  13.031  0.00  0.00     0.144 A 
HETATM    7  N   UNK N   1      36.328  14.987  13.367  0.00  0.00    -0.336 N 
ATOM      8  HN  UNK N   1      36.350  15.754  12.694  1.00  0.00     0.168 HD
HETATM    9  N   UNK N   1      35.317  13.383  11.843  0.00  0.00    -0.277 N 
HETATM   10  C   UNK N   1      34.972  12.084  12.043  0.00  0.00     0.185 A 
HETATM   11  N   UNK N   1      35.239  11.663  13.308  0.00  0.00    -0.326 N 
ATOM     12  HN  UNK N   1      35.074  10.742  13.713  1.00  0.00     0.168 HD
HETATM   13 Cl   UNK N   1      34.284  11.035  10.814  0.00  0.00    -0.044 Cl
ENDROOT
BRANCH   9  14
HETATM   14  C   UNK N   1      35.233  14.106  10.564  0.00  0.00     0.264 C 
HETATM   15  C   UNK N   1      35.836  15.495  10.529  0.00  0.00     0.199 C 
HETATM   16  C   UNK N   1      35.170  16.072   9.301  0.00  0.00     0.197 C 
HETATM   17  C   UNK N   1      34.221  14.948   8.904  0.00  0.00     0.180 C 
HETATM   18  O   UNK N   1      34.413  17.188   9.689  0.00  0.00    -0.286 OA
HETATM   19  O   UNK N   1      33.932  14.239  10.076  0.00  0.00    -0.353 OA
HETATM   20  C   UNK N   1      32.986  15.538   8.246  0.00  0.00     0.215 C 
HETATM   21  O   UNK N   1      33.402  16.532   7.346  0.00  0.00    -0.294 OA
HETATM   22  P   UNK N   1      33.715  17.998   8.277  0.00  0.00     0.393 P 
HETATM   23  O   UNK N   1      34.860  17.786   7.244  0.00  0.00    -0.631 OA
BRANCH  15  24
HETATM   24  O   UNK N   1      37.217  15.422  10.348  0.00  0.00    -0.388 OA
HETATM   25  H   UNK N   1      37.963  15.046   9.855  0.00  0.00     0.210 HD
ENDBRANCH  15  24
BRANCH  22  26
HETATM   26  O   UNK N   1      34.973  19.181   8.442  0.00  0.00    -0.307 OA
HETATM   27  H   UNK N   1      35.908  18.953   8.319  0.00  0.00     0.222 HD
ENDBRANCH  22  26
ENDBRANCH   9  14
BRANCH   4  28
HETATM   28  N   UNK N   1      36.285  11.817  16.095  0.00  0.00    -0.383 N 
HETATM   29  H   UNK N   1      36.143  11.979  17.056  0.00  0.00     0.157 HD
HETATM   30  H   UNK N   1      36.432  10.901  15.770  0.00  0.00     0.157 HD
ENDBRANCH   4  28
TORSDOF 4
ENDMDL
MODEL 4
REMARK VINA RESULT:      -6.7      3.500      4.719
REMARK  4 active torsions:
REMARK  status: ('A' for Active; 'I' for Inactive)
REMARK    1  A    between atoms: C_4  and  N_26 
REMARK    2  A    between atoms: C_14  and  N_9 
REMARK    3  A    between atoms: C_15  and  O_25 
REMARK    4  A    between atoms: P_21  and  O_24 
ROOT
HETATM    1  C   UNK N   1      28.147  19.662   4.687  0.00  0.00     0.183 A 
HETATM    2  N   UNK N   1      27.301  20.518   5.352  0.00  0.00    -0.337 N 
ATOM      3  HN  UNK N   1      26.849  21.275   4.842  1.00  0.00     0.168 HD
HETATM    4  C   UNK N   1      27.059  20.368   6.688  0.00  0.00     0.131 A 
HETATM    5  C   UNK N   1      27.690  19.327   7.350  0.00  0.00     0.123 A 
HETATM    6  C   UNK N   1      28.525  18.499   6.680  0.00  0.00     0.144 A 
HETATM    7  N   UNK N   1      28.774  18.644   5.356  0.00  0.00    -0.336 N 
ATOM      8  HN  UNK N   1      29.411  18.011   4.870  1.00  0.00     0.168 HD
HETATM    9  N   UNK N   1      29.057  17.611   7.540  0.00  0.00    -0.277 N 
HETATM   10  C   UNK N   1      28.497  17.928   8.737  0.00  0.00     0.185 A 
HETATM   11  N   UNK N   1      27.644  18.985   8.649  0.00  0.00    -0.326 N 
ATOM     12  HN  UNK N   1      27.098  19.416   9.394  1.00  0.00     0.168 HD
HETATM   13 Cl   UNK N   1      28.842  17.105  10.249  0.00  0.00    -0.044 Cl
ENDROOT
BRANCH   9  14
HETATM   14  C   UNK N   1      30.081  16.577   7.319  0.00  0.00     0.264 C 
HETATM   15  C   UNK N   1      31.520  16.987   7.556  0.00  0.00     0.199 C 
HETATM   16  C   UNK N   1      32.258  15.902   6.807  0.00  0.00     0.197 C 
HETATM   17  C   UNK N   1      31.111  15.116   6.184  0.00  0.00     0.180 C 
HETATM   18  O   UNK N   1      33.007  16.500   5.782  0.00  0.00    -0.286 OA
HETATM   19  O   UNK N   1      30.046  16.013   6.043  0.00  0.00    -0.353 OA
HETATM   20  C   UNK N   1      31.566  14.522   4.862  0.00  0.00     0.215 C 
HETATM   21  O   UNK N   1      32.846  13.976   5.044  0.00  0.00    -0.294 OA
HETATM   22  P   UNK N   1      34.009  15.299   4.949  0.00  0.00     0.393 P 
HETATM   23  O   UNK N   1      34.377  14.372   6.143  0.00  0.00    -0.631 OA
BRANCH  15  24
HETATM   24  O   UNK N   1      31.823  16.935   8.916  0.00  0.00    -0.388 OA
HETATM   25  H   UNK N   1      31.980  17.418   9.743  0.00  0.00     0.210 HD
ENDBRANCH  15  24
BRANCH  22  26
HETATM   26  O   UNK N   1      35.349  15.911   5.865  0.00  0.00    -0.307 OA
HETATM   27  H   UNK N   1      35.891  15.334   6.426  0.00  0.00     0.222 HD
ENDBRANCH  22  26
ENDBRANCH   9  14
BRANCH   4  28
HETATM   28  N   UNK N   1      26.213  21.265   7.371  0.00  0.00    -0.383 N 
HETATM   29  H   UNK N   1      25.918  22.100   6.939  0.00  0.00     0.157 HD
HETATM   30  H   UNK N   1      25.916  21.057   8.285  0.00  0.00     0.157 HD
ENDBRANCH   4  28
TORSDOF 4
ENDMDL
MODEL 5
REMARK VINA RESULT:      -6.4     10.909     12.842
REMARK  4 active torsions:
REMARK  status: ('A' for Active; 'I' for Inactive)
REMARK    1  A    between atoms: C_4  and  N_26 
REMARK    2  A    between atoms: C_14  and  N_9 
REMARK    3  A    between atoms: C_15  and  O_25 
REMARK    4  A    between atoms: P_21  and  O_24 
ROOT
HETATM    1  C   UNK N   1      22.888  12.684   7.220  0.00  0.00     0.183 A 
HETATM    2  N   UNK N   1      22.457  12.467   8.507  0.00  0.00    -0.337 N 
ATOM      3  HN  UNK N   1      22.668  11.581   8.965  1.00  0.00     0.168 HD
HETATM    4  C   UNK N   1      21.750  13.422   9.182  0.00  0.00     0.131 A 
HETATM    5  C   UNK N   1      21.482  14.614   8.528  0.00  0.00     0.123 A 
HETATM    6  C   UNK N   1      21.908  14.806   7.258  0.00  0.00     0.144 A 
HETATM    7  N   UNK N   1      22.606  13.863   6.581  0.00  0.00    -0.336 N 
ATOM      8  HN  UNK N   1      22.914  14.027   5.622  1.00  0.00     0.168 HD
HETATM    9  N   UNK N   1      21.481  16.006   6.822  0.00  0.00    -0.277 N 
HETATM   10  C   UNK N   1      20.804  16.525   7.880  0.00  0.00     0.185 A 
HETATM   11  N   UNK N   1      20.791  15.687   8.951  0.00  0.00    -0.326 N 
ATOM     12  HN  UNK N   1      20.359  15.836   9.863  1.00  0.00     0.168 HD
HETATM   13 Cl   UNK N   1      20.001  18.086   7.882  0.00  0.00    -0.044 Cl
ENDROOT
BRANCH   9  14
HETATM   14  C   UNK N   1      21.602  16.628   5.494  0.00  0.00     0.264 C 
HETATM   15  C   UNK N   1      22.286  17.979   5.437  0.00  0.00     0.199 C 
HETATM   16  C   UNK N   1      21.815  18.487   4.094  0.00  0.00     0.197 C 
HETATM   17  C   UNK N   1      20.861  17.382   3.659  0.00  0.00     0.180 C 
HETATM   18  O   UNK N   1      21.082  19.666   4.297  0.00  0.00    -0.286 OA
HETATM   19  O   UNK N   1      20.384  16.785   4.831  0.00  0.00    -0.353 OA
HETATM   20  C   UNK N   1      19.756  17.978   2.804  0.00  0.00     0.215 C 
HETATM   21  O   UNK N   1      20.340  18.875   1.896  0.00  0.00    -0.294 OA
HETATM   22  P   UNK N   1      20.617  20.394   2.750  0.00  0.00     0.393 P 
HETATM   23  O   UNK N   1      21.869  20.045   1.894  0.00  0.00    -0.631 OA
BRANCH  15  24
HETATM   24  O   UNK N   1      23.671  17.824   5.444  0.00  0.00    -0.388 OA
HETATM   25  H   UNK N   1      24.446  17.366   5.805  0.00  0.00     0.210 HD
ENDBRANCH  15  24
BRANCH  22  26
HETATM   26  O   UNK N   1      21.911  21.523   2.992  0.00  0.00    -0.307 OA
HETATM   27  H   UNK N   1      21.883  22.420   2.623  0.00  0.00     0.222 HD
ENDBRANCH  22  26
ENDBRANCH   9  14
BRANCH   4  28
HETATM   28  N   UNK N   1      21.286  13.183  10.491  0.00  0.00    -0.383 N 
HETATM   29  H   UNK N   1      21.659  13.687  11.251  0.00  0.00     0.157 HD
HETATM   30  H   UNK N   1      20.588  12.509  10.647  0.00  0.00     0.157 HD
ENDBRANCH   4  28
TORSDOF 4
ENDMDL
MODEL 6
REMARK VINA RESULT:      -6.3      2.166      3.904
REMARK  4 active torsions:
REMARK  status: ('A' for Active; 'I' for Inactive)
REMARK    1  A    between atoms: C_4  and  N_26 
REMARK    2  A    between atoms: C_14  and  N_9 
REMARK    3  A    between atoms: C_15  and  O_25 
REMARK    4  A    between atoms: P_21  and  O_24 
ROOT
HETATM    1  C   UNK N   1      33.352  14.835   3.938  0.00  0.00     0.183 A 
HETATM    2  N   UNK N   1      32.501  15.439   3.043  0.00  0.00    -0.337 N 
ATOM      3  HN  UNK N   1      32.670  15.339   2.043  1.00  0.00     0.168 HD
HETATM    4  C   UNK N   1      31.432  16.172   3.475  0.00  0.00     0.131 A 
HETATM    5  C   UNK N   1      31.232  16.286   4.842  0.00  0.00     0.123 A 
HETATM    6  C   UNK N   1      32.085  15.690   5.707  0.00  0.00     0.144 A 
HETATM    7  N   UNK N   1      33.150  14.966   5.287  0.00  0.00    -0.336 N 
ATOM      8  HN  UNK N   1      33.783  14.528   5.958  1.00  0.00     0.168 HD
HETATM    9  N   UNK N   1      31.721  15.990   6.968  0.00  0.00    -0.277 N 
HETATM   10  C   UNK N   1      30.615  16.766   6.821  0.00  0.00     0.185 A 
HETATM   11  N   UNK N   1      30.288  16.964   5.515  0.00  0.00    -0.326 N 
ATOM     12  HN  UNK N   1      29.508  17.501   5.136  1.00  0.00     0.168 HD
HETATM   13 Cl   UNK N   1      29.710  17.474   8.149  0.00  0.00    -0.044 Cl
ENDROOT
BRANCH   9  14
HETATM   14  C   UNK N   1      32.376  15.664   8.245  0.00  0.00     0.264 C 
HETATM   15  C   UNK N   1      33.512  16.569   8.674  0.00  0.00     0.199 C 
HETATM   16  C   UNK N   1      34.208  15.698   9.695  0.00  0.00     0.197 C 
HETATM   17  C   UNK N   1      33.409  14.405   9.598  0.00  0.00     0.180 C 
HETATM   18  O   UNK N   1      35.518  15.456   9.254  0.00  0.00    -0.286 OA
HETATM   19  O   UNK N   1      32.876  14.362   8.306  0.00  0.00    -0.353 OA
HETATM   20  C   UNK N   1      34.317  13.226   9.906  0.00  0.00     0.215 C 
HETATM   21  O   UNK N   1      35.096  13.554  11.028  0.00  0.00    -0.294 OA
HETATM   22  P   UNK N   1      36.437  14.556  10.472  0.00  0.00     0.393 P 
HETATM   23  O   UNK N   1      35.841  15.166  11.773  0.00  0.00    -0.631 OA
BRANCH  15  24
HETATM   24  O   UNK N   1      33.014  17.724   9.275  0.00  0.00    -0.388 OA
HETATM   25  H   UNK N   1      32.256  18.309   9.430  0.00  0.00     0.210 HD
ENDBRANCH  15  24
BRANCH  22  26
HETATM   26  O   UNK N   1      37.187  16.062  10.893  0.00  0.00    -0.307 OA
HETATM   27  H   UNK N   1      36.819  16.644  11.577  0.00  0.00     0.222 HD
ENDBRANCH  22  26
ENDBRANCH   9  14
BRANCH   4  28
HETATM   28  N   UNK N   1      30.580  16.813   2.553  0.00  0.00    -0.383 N 
HETATM   29  H   UNK N   1      30.799  17.710   2.212  0.00  0.00     0.157 HD
HETATM   30  H   UNK N   1      29.761  16.361   2.250  0.00  0.00     0.157 HD
ENDBRANCH   4  28
TORSDOF 4
ENDMDL
MODEL 7
REMARK VINA RESULT:      -6.3     11.554     13.411
REMARK  4 active torsions:
REMARK  status: ('A' for Active; 'I' for Inactive)
REMARK    1  A    between atoms: C_4  and  N_26 
REMARK    2  A    between atoms: C_14  and  N_9 
REMARK    3  A    between atoms: C_15  and  O_25 
REMARK    4  A    between atoms: P_21  and  O_24 
ROOT
HETATM    1  C   UNK N   1      22.934  12.741   7.590  0.00  0.00     0.183 A 
HETATM    2  N   UNK N   1      22.688  12.146   8.805  0.00  0.00    -0.337 N 
ATOM      3  HN  UNK N   1      23.227  11.327   9.081  1.00  0.00     0.168 HD
HETATM    4  C   UNK N   1      21.733  12.639   9.648  0.00  0.00     0.131 A 
HETATM    5  C   UNK N   1      21.020  13.755   9.241  0.00  0.00     0.123 A 
HETATM    6  C   UNK N   1      21.270  14.322   8.037  0.00  0.00     0.144 A 
HETATM    7  N   UNK N   1      22.213  13.838   7.194  0.00  0.00    -0.336 N 
ATOM      8  HN  UNK N   1      22.383  14.278   6.289  1.00  0.00     0.168 HD
HETATM    9  N   UNK N   1      20.419  15.347   7.843  0.00  0.00    -0.277 N 
HETATM   10  C   UNK N   1      19.670  15.380   8.976  0.00  0.00     0.185 A 
HETATM   11  N   UNK N   1      20.022  14.408   9.861  0.00  0.00    -0.326 N 
ATOM     12  HN  UNK N   1      19.622  14.218  10.779  1.00  0.00     0.168 HD
HETATM   13 Cl   UNK N   1      18.368  16.518   9.278  0.00  0.00    -0.044 Cl
ENDROOT
BRANCH   9  14
HETATM   14  C   UNK N   1      20.230  16.208   6.665  0.00  0.00     0.264 C 
HETATM   15  C   UNK N   1      19.333  15.670   5.569  0.00  0.00     0.199 C 
HETATM   16  C   UNK N   1      19.746  16.537   4.402  0.00  0.00     0.197 C 
HETATM   17  C   UNK N   1      20.882  17.353   5.006  0.00  0.00     0.180 C 
HETATM   18  O   UNK N   1      20.267  15.709   3.396  0.00  0.00    -0.286 OA
HETATM   19  O   UNK N   1      21.421  16.579   6.039  0.00  0.00    -0.353 OA
HETATM   20  C   UNK N   1      21.894  17.688   3.924  0.00  0.00     0.215 C 
HETATM   21  O   UNK N   1      21.192  18.098   2.780  0.00  0.00    -0.294 OA
HETATM   22  P   UNK N   1      20.644  16.646   1.940  0.00  0.00     0.393 P 
HETATM   23  O   UNK N   1      19.489  17.690   1.979  0.00  0.00    -0.631 OA
BRANCH  15  24
HETATM   24  O   UNK N   1      17.992  15.885   5.888  0.00  0.00    -0.388 OA
HETATM   25  H   UNK N   1      17.067  15.880   5.598  0.00  0.00     0.210 HD
ENDBRANCH  15  24
BRANCH  22  26
HETATM   26  O   UNK N   1      19.174  16.022   1.264  0.00  0.00    -0.307 OA
HETATM   27  H   UNK N   1      18.524  16.598   0.832  0.00  0.00     0.222 HD
ENDBRANCH  22  26
ENDBRANCH   9  14
BRANCH   4  28
HETATM   28  N   UNK N   1      21.466  12.008  10.880  0.00  0.00    -0.383 N 
HETATM   29  H   UNK N   1      20.538  11.866  11.177  0.00  0.00     0.157 HD
HETATM   30  H   UNK N   1      22.212  11.710  11.448  0.00  0.00     0.157 HD
ENDBRANCH   4  28
TORSDOF 4
ENDMDL
MODEL 8
REMARK VINA RESULT:      -6.3      5.387      7.302
REMARK  4 active torsions:
REMARK  status: ('A' for Active; 'I' for Inactive)
REMARK    1  A    between atoms: C_4  and  N_26 
REMARK    2  A    between atoms: C_14  and  N_9 
REMARK    3  A    between atoms: C_15  and  O_25 
REMARK    4  A    between atoms: P_21  and  O_24 
ROOT
HETATM    1  C   UNK N   1      33.600  10.467  10.870  0.00  0.00     0.183 A 
HETATM    2  N   UNK N   1      33.548  10.031  12.174  0.00  0.00    -0.337 N 
ATOM      3  HN  UNK N   1      33.091   9.145  12.389  1.00  0.00     0.168 HD
HETATM    4  C   UNK N   1      34.098  10.767  13.183  0.00  0.00     0.131 A 
HETATM    5  C   UNK N   1      34.712  11.966  12.854  0.00  0.00     0.123 A 
HETATM    6  C   UNK N   1      34.747  12.382  11.566  0.00  0.00     0.144 A 
HETATM    7  N   UNK N   1      34.200  11.660  10.560  0.00  0.00    -0.336 N 
ATOM      8  HN  UNK N   1      34.233  11.994   9.596  1.00  0.00     0.168 HD
HETATM    9  N   UNK N   1      35.339  13.590  11.505  0.00  0.00    -0.277 N 
HETATM   10  C   UNK N   1      35.668  13.867  12.794  0.00  0.00     0.185 A 
HETATM   11  N   UNK N   1      35.295  12.877  13.650  0.00  0.00    -0.326 N 
ATOM     12  HN  UNK N   1      35.427  12.837  14.661  1.00  0.00     0.168 HD
HETATM   13 Cl   UNK N   1      36.459  15.341  13.327  0.00  0.00    -0.044 Cl
ENDROOT
BRANCH   9  14
HETATM   14  C   UNK N   1      35.529  14.492  10.359  0.00  0.00     0.264 C 
HETATM   15  C   UNK N   1      34.502  15.592  10.183  0.00  0.00     0.199 C 
HETATM   16  C   UNK N   1      34.726  15.972   8.737  0.00  0.00     0.197 C 
HETATM   17  C   UNK N   1      35.773  14.953   8.306  0.00  0.00     0.180 C 
HETATM   18  O   UNK N   1      33.541  15.732   8.026  0.00  0.00    -0.286 OA
HETATM   19  O   UNK N   1      35.604  13.835   9.130  0.00  0.00    -0.353 OA
HETATM   20  C   UNK N   1      35.593  14.638   6.831  0.00  0.00     0.215 C 
HETATM   21  O   UNK N   1      35.384  15.846   6.147  0.00  0.00    -0.294 OA
HETATM   22  P   UNK N   1      33.688  16.288   6.350  0.00  0.00     0.393 P 
HETATM   23  O   UNK N   1      34.580  17.547   6.554  0.00  0.00    -0.631 OA
BRANCH  15  24
HETATM   24  O   UNK N   1      34.791  16.667  11.022  0.00  0.00    -0.388 OA
HETATM   25  H   UNK N   1      34.588  17.152  11.837  0.00  0.00     0.210 HD
ENDBRANCH  15  24
BRANCH  22  26
HETATM   26  O   UNK N   1      32.762  17.677   6.820  0.00  0.00    -0.307 OA
HETATM   27  H   UNK N   1      31.911  17.888   6.406  0.00  0.00     0.222 HD
ENDBRANCH  22  26
ENDBRANCH   9  14
BRANCH   4  28
HETATM   28  N   UNK N   1      34.017  10.329  14.521  0.00  0.00    -0.383 N 
HETATM   29  H   UNK N   1      34.654  10.661  15.194  0.00  0.00     0.157 HD
HETATM   30  H   UNK N   1      33.319   9.688  14.783  0.00  0.00     0.157 HD
ENDBRANCH   4  28
TORSDOF 4
ENDMDL
MODEL 9
REMARK VINA RESULT:      -6.3      5.129      7.504
REMARK  4 active torsions:
REMARK  status: ('A' for Active; 'I' for Inactive)
REMARK    1  A    between atoms: C_4  and  N_26 
REMARK    2  A    between atoms: C_14  and  N_9 
REMARK    3  A    between atoms: C_15  and  O_25 
REMARK    4  A    between atoms: P_21  and  O_24 
ROOT
HETATM    1  C   UNK N   1      34.828  13.012  13.422  0.00  0.00     0.183 A 
HETATM    2  N   UNK N   1      35.887  12.365  14.013  0.00  0.00    -0.337 N 
ATOM      3  HN  UNK N   1      35.765  11.936  14.930  1.00  0.00     0.168 HD
HETATM    4  C   UNK N   1      37.100  12.288  13.390  0.00  0.00     0.131 A 
HETATM    5  C   UNK N   1      37.229  12.882  12.144  0.00  0.00     0.123 A 
HETATM    6  C   UNK N   1      36.177  13.522  11.582  0.00  0.00     0.144 A 
HETATM    7  N   UNK N   1      34.972  13.606  12.195  0.00  0.00    -0.336 N 
ATOM      8  HN  UNK N   1      34.193  14.097  11.755  1.00  0.00     0.168 HD
HETATM    9  N   UNK N   1      36.559  14.062  10.409  0.00  0.00    -0.277 N 
HETATM   10  C   UNK N   1      37.865  13.707  10.288  0.00  0.00     0.185 A 
HETATM   11  N   UNK N   1      38.306  12.973  11.346  0.00  0.00    -0.326 N 
ATOM     12  HN  UNK N   1      39.236  12.584  11.498  1.00  0.00     0.168 HD
HETATM   13 Cl   UNK N   1      38.900  14.157   8.943  0.00  0.00    -0.044 Cl
ENDROOT
BRANCH   9  14
HETATM   14  C   UNK N   1      35.815  14.924   9.478  0.00  0.00     0.264 C 
HETATM   15  C   UNK N   1      34.945  15.999  10.097  0.00  0.00     0.199 C 
HETATM   16  C   UNK N   1      34.025  16.329   8.944  0.00  0.00     0.197 C 
HETATM   17  C   UNK N   1      34.461  15.313   7.896  0.00  0.00     0.180 C 
HETATM   18  O   UNK N   1      32.707  16.043   9.331  0.00  0.00    -0.286 OA
HETATM   19  O   UNK N   1      34.992  14.223   8.596  0.00  0.00    -0.353 OA
HETATM   20  C   UNK N   1      33.272  14.940   7.029  0.00  0.00     0.215 C 
HETATM   21  O   UNK N   1      32.582  16.118   6.701  0.00  0.00    -0.294 OA
HETATM   22  P   UNK N   1      31.559  16.538   8.076  0.00  0.00     0.393 P 
HETATM   23  O   UNK N   1      32.267  17.819   7.546  0.00  0.00    -0.631 OA
BRANCH  15  24
HETATM   24  O   UNK N   1      35.714  17.109  10.443  0.00  0.00    -0.388 OA
HETATM   25  H   UNK N   1      36.041  17.990  10.203  0.00  0.00     0.210 HD
ENDBRANCH  15  24
BRANCH  22  26
HETATM   26  O   UNK N   1      31.219  17.927   9.057  0.00  0.00    -0.307 OA
HETATM   27  H   UNK N   1      31.847  18.250   9.723  0.00  0.00     0.222 HD
ENDBRANCH  22  26
ENDBRANCH   9  14
BRANCH   4  28
HETATM   28  N   UNK N   1      38.190  11.648  14.013  0.00  0.00    -0.383 N 
HETATM   29  H   UNK N   1      38.802  11.081  13.488  0.00  0.00     0.157 HD
HETATM   30  H   UNK N   1      38.340  11.766  14.978  0.00  0.00     0.157 HD
ENDBRANCH   4  28
TORSDOF 4
ENDMDL
