REMARK  4 active torsions:
REMARK  status: ('A' for Active; 'I' for Inactive)
REMARK    1  A    between atoms: C_2  and  C_3 
REMARK    2  A    between atoms: C_3  and  C_5 
REMARK    3  A    between atoms: C_5  and  C_6 
REMARK    4  A    between atoms: C_5  and  C_8 
REMARK       I    between atoms: C_8  and  N_10 
ROOT
HETATM    1  C   UNK N   1       2.266  -1.333  -0.000  0.00  0.00     0.081 C 
ENDROOT
BRANCH   1   2
HETATM    2  C   UNK N   1       0.796  -0.818   0.000  0.00  0.00    -0.006 C 
HETATM    3  C   UNK N   1      -0.393  -1.771  -0.000  0.00  0.00     0.011 C 
BRANCH   2   4
HETATM    4  C   UNK N   1       0.532   0.696  -0.000  0.00  0.00     0.000 C 
HETATM    5  C   UNK N   1      -0.939   1.079   0.000  0.00  0.00     0.005 C 
ENDBRANCH   2   4
ENDBRANCH   1   2
BRANCH   1   6
HETATM    6  C   UNK N   1       2.695  -2.818   0.000  0.00  0.00     0.010 C 
HETATM    7  C   UNK N   1       1.594  -3.860  -0.000  0.00  0.00     0.006 C 
ENDBRANCH   1   6
BRANCH   1   8
HETATM    8  C   UNK N   1       3.418  -0.347   0.000  0.00  0.00     0.219 C 
HETATM    9  O   UNK N   1       3.210   0.859   0.000  0.00  0.00    -0.273 OA
HETATM   10  N   UNK N   1       4.689  -0.788  -0.000  0.00  0.00    -0.370 N 
HETATM   11  H   UNK N   1       4.874  -1.755  -0.000  0.00  0.00     0.159 HD
HETATM   12  H   UNK N   1       5.434  -0.144  -0.000  0.00  0.00     0.159 HD
ENDBRANCH   1   8
TORSDOF 4
