REMARK  12 active torsions:
REMARK  status: ('A' for Active; 'I' for Inactive)
REMARK    1  A    between atoms: C_2  and  C_4 
REMARK    2  A    between atoms: C_4  and  C_5 
REMARK    3  A    between atoms: C_4  and  N_72 
REMARK       I    between atoms: C_5  and  N_7 
REMARK    4  A    between atoms: C_15  and  C_16 
REMARK    5  A    between atoms: C_20  and  C_26 
REMARK    6  A    between atoms: C_38  and  C_40 
REMARK    7  A    between atoms: C_50  and  C_47 
REMARK       I    between atoms: N_58  and  C_59 
REMARK    8  A    between atoms: C_59  and  C_61 
REMARK    9  A    between atoms: C_61  and  C_62 
REMARK   10  A    between atoms: C_61  and  N_65 
REMARK       I    between atoms: N_65  and  C_66 
REMARK   11  A    between atoms: C_66  and  O_68 
REMARK       I    between atoms: N_72  and  C_73 
REMARK   12  A    between atoms: C_73  and  O_75 
ROOT
HETATM    1  C   UNK N   1       5.562   0.052  -0.562  0.00  0.00    -0.019 C 
HETATM    2  C   UNK N   1       5.041  -1.138  -0.065  0.00  0.00     0.020 C 
HETATM    3  C   UNK N   1       3.959  -1.739  -0.719  0.00  0.00    -0.057 C 
HETATM    4  C   UNK N   1       3.486  -1.218  -1.931  0.00  0.00     0.007 C 
HETATM    5  C   UNK N   1       3.964   0.002  -2.403  0.00  0.00     0.008 C 
HETATM    6  C   UNK N   1       4.925   0.692  -1.671  0.00  0.00    -0.047 C 
HETATM    7  C   UNK N   1       5.090   2.210  -1.931  0.00  0.00     0.044 C 
HETATM    8  C   UNK N   1       4.602   3.144  -0.734  0.00  0.00     0.043 C 
HETATM    9  C   UNK N   1       3.543   2.456   0.077  0.00  0.00    -0.057 C 
HETATM   10  C   UNK N   1       3.922   1.838   1.268  0.00  0.00     0.007 C 
HETATM   11  C   UNK N   1       3.363   0.617   1.632  0.00  0.00     0.008 C 
HETATM   12  C   UNK N   1       2.436   0.001   0.794  0.00  0.00    -0.051 C 
HETATM   13  C   UNK N   1       1.897   0.762  -0.316  0.00  0.00    -0.040 C 
HETATM   14  C   UNK N   1       2.457   1.987  -0.634  0.00  0.00     0.015 C 
HETATM   15  C   UNK N   1       2.173  -1.488   1.072  0.00  0.00     0.043 C 
HETATM   16  C   UNK N   1       2.977  -2.484   0.135  0.00  0.00     0.043 C 
ENDROOT
BRANCH   1  17
HETATM   17  C   UNK N   1       6.639   0.774   0.097  0.00  0.00    -0.023 A 
HETATM   18  C   UNK N   1       7.481   1.386  -0.800  0.00  0.00     0.044 A 
HETATM   19  C   UNK N   1       8.243   2.389  -0.379  0.00  0.00     0.061 A 
HETATM   20  N   UNK N   1       9.044   3.079  -1.149  0.00  0.00    -0.342 N 
HETATM   21  C   UNK N   1       8.265   2.846   0.892  0.00  0.00     0.060 A 
HETATM   22  C   UNK N   1       9.581   3.973  -0.322  0.00  0.00     0.105 A 
HETATM   23  H   UNK N   1       9.211   2.963  -2.112  0.00  0.00     0.167 HD
HETATM   24  N   UNK N   1       9.129   3.876   0.965  0.00  0.00    -0.342 N 
ATOM     25  HN  UNK N   1       9.382   4.442   1.775  1.00  0.00     0.167 HD
HETATM   26  C   UNK N   1       7.509   2.213   1.892  0.00  0.00     0.033 A 
HETATM   27  C   UNK N   1       6.669   1.139   1.477  0.00  0.00     0.014 A 
BRANCH  22  28
HETATM   28  C   UNK N   1      10.673   4.778  -0.837  0.00  0.00     0.156 C 
HETATM   29  C   UNK N   1      10.489   6.285  -0.856  0.00  0.00     0.040 C 
HETATM   30  C   UNK N   1      11.669   6.724  -0.031  0.00  0.00     0.011 C 
HETATM   31  C   UNK N   1      12.196   8.130  -0.202  0.00  0.00     0.007 C 
HETATM   32  C   UNK N   1      12.763   5.696  -0.248  0.00  0.00     0.092 C 
HETATM   33  C   UNK N   1      13.246   8.342   0.894  0.00  0.00     0.001 C 
HETATM   34  C   UNK N   1      14.308   7.223   0.914  0.00  0.00     0.002 C 
HETATM   35  C   UNK N   1      13.671   5.826   0.963  0.00  0.00     0.026 C 
HETATM   36  N   UNK N   1      11.997   4.486  -0.337  0.00  0.00    -0.334 N 
HETATM   37  C   UNK N   1      12.526   3.221  -0.146  0.00  0.00     0.244 C 
HETATM   38  O   UNK N   1      13.724   3.097   0.059  0.00  0.00    -0.271 OA
BRANCH  37  39
HETATM   39  C   UNK N   1      11.647   1.971  -0.020  0.00  0.00     0.182 C 
BRANCH  39  40
HETATM   40  C   UNK N   1      11.132   1.880   1.442  0.00  0.00     0.009 C 
HETATM   41  C   UNK N   1      12.226   1.977   2.491  0.00  0.00     0.012 C 
HETATM   42  C   UNK N   1      10.291   0.645   1.727  0.00  0.00     0.012 C 
ENDBRANCH  39  40
BRANCH  39  43
HETATM   43  N   UNK N   1      12.355   0.746  -0.352  0.00  0.00    -0.323 N 
HETATM   44  C   UNK N   1      11.702  -0.369  -0.795  0.00  0.00     0.360 C 
HETATM   45  O   UNK N   1      10.501  -0.332  -1.024  0.00  0.00    -0.239 OA
HETATM   46  H   UNK N   1      13.334   0.719  -0.255  0.00  0.00     0.165 HD
BRANCH  44  47
HETATM   47  O   UNK N   1      12.363  -1.540  -0.958  0.00  0.00    -0.309 OA
HETATM   48  C   UNK N   1      13.684  -1.697  -0.617  0.00  0.00     0.215 C 
ENDBRANCH  44  47
ENDBRANCH  39  43
ENDBRANCH  37  39
ENDBRANCH  22  28
ENDBRANCH   1  17
BRANCH  13  49
HETATM   49  C   UNK N   1       0.754   0.332  -1.127  0.00  0.00     0.066 C 
HETATM   50  C   UNK N   1      -0.341   1.174  -0.804  0.00  0.00    -0.011 C 
HETATM   51  C   UNK N   1      -1.422   0.650  -0.096  0.00  0.00     0.029 C 
HETATM   52  C   UNK N   1      -1.374  -0.707   0.170  0.00  0.00     0.060 A 
HETATM   53  C   UNK N   1      -0.459  -1.528  -0.389  0.00  0.00     0.057 A 
HETATM   54  N   UNK N   1      -2.151  -1.397   0.980  0.00  0.00    -0.342 N 
HETATM   55  C   UNK N   1       0.581  -1.053  -1.120  0.00  0.00     0.018 C 
HETATM   56  N   UNK N   1      -0.639  -2.781   0.031  0.00  0.00    -0.343 N 
HETATM   57  C   UNK N   1      -1.678  -2.666   0.889  0.00  0.00     0.105 A 
HETATM   58  H   UNK N   1      -0.139  -3.590  -0.220  0.00  0.00     0.167 HD
ATOM     59  HN  UNK N   1      -2.929  -1.056   1.545  1.00  0.00     0.167 HD
BRANCH  57  60
HETATM   60  C   UNK N   1      -2.424  -3.822   1.473  0.00  0.00     0.156 C 
HETATM   61  C   UNK N   1      -1.763  -5.141   1.072  0.00  0.00     0.040 C 
HETATM   62  C   UNK N   1      -2.318  -5.369  -0.324  0.00  0.00     0.011 C 
HETATM   63  C   UNK N   1      -2.168  -6.798  -0.847  0.00  0.00     0.007 C 
HETATM   64  C   UNK N   1      -3.755  -4.830  -0.269  0.00  0.00     0.092 C 
HETATM   65  C   UNK N   1      -3.144  -7.741  -0.160  0.00  0.00     0.001 C 
HETATM   66  C   UNK N   1      -4.560  -7.236  -0.383  0.00  0.00     0.002 C 
HETATM   67  C   UNK N   1      -4.718  -5.886   0.295  0.00  0.00     0.026 C 
HETATM   68  N   UNK N   1      -3.665  -3.806   0.738  0.00  0.00    -0.334 N 
HETATM   69  C   UNK N   1      -4.552  -2.768   0.874  0.00  0.00     0.244 C 
HETATM   70  O   UNK N   1      -4.485  -2.031   1.850  0.00  0.00    -0.271 OA
BRANCH  69  71
HETATM   71  C   UNK N   1      -5.469  -2.366  -0.248  0.00  0.00     0.182 C 
BRANCH  71  72
HETATM   72  C   UNK N   1      -6.858  -2.962  -0.392  0.00  0.00     0.009 C 
HETATM   73  C   UNK N   1      -7.488  -3.251   0.957  0.00  0.00     0.012 C 
HETATM   74  C   UNK N   1      -6.804  -4.212  -1.240  0.00  0.00     0.012 C 
ENDBRANCH  71  72
BRANCH  71  75
HETATM   75  N   UNK N   1      -5.320  -0.963  -0.614  0.00  0.00    -0.323 N 
HETATM   76  C   UNK N   1      -6.155   0.033  -0.215  0.00  0.00     0.360 C 
HETATM   77  O   UNK N   1      -7.142  -0.219   0.462  0.00  0.00    -0.239 OA
HETATM   78  H   UNK N   1      -4.561  -0.719  -1.192  0.00  0.00     0.165 HD
BRANCH  76  79
HETATM   79  O   UNK N   1      -5.881   1.313  -0.574  0.00  0.00    -0.309 OA
HETATM   80  C   UNK N   1      -6.686   2.369  -0.210  0.00  0.00     0.215 C 
ENDBRANCH  76  79
ENDBRANCH  71  75
ENDBRANCH  69  71
ENDBRANCH  57  60
ENDBRANCH  13  49
TORSDOF 12
