MODEL 1
REMARK VINA RESULT:      -8.4      0.000      0.000
REMARK  9 active torsions:
REMARK  status: ('A' for Active; 'I' for Inactive)
REMARK    1  A    between atoms: C_3  and  C_2 
REMARK    2  A    between atoms: C_3  and  C_4 
REMARK    3  A    between atoms: C_3  and  C_29 
REMARK    4  A    between atoms: C_4  and  C_5 
REMARK    5  A    between atoms: C_5  and  C_6 
REMARK    6  A    between atoms: C_8  and  C_6 
REMARK    7  A    between atoms: C_17  and  C_18 
REMARK    8  A    between atoms: C_21  and  O_27 
REMARK    9  A    between atoms: C_23  and  O_26 
ROOT
HETATM    1  C   UNK N   1      28.249  18.224   6.489  0.00  0.00    -0.002 C 
HETATM    2  C   UNK N   1      27.815  19.616   6.033  0.00  0.00     0.006 C 
HETATM    3  C   UNK N   1      27.653  19.526   4.516  0.00  0.00     0.010 C 
HETATM    4  C   UNK N   1      27.586  18.029   4.201  0.00  0.00     0.023 C 
HETATM    5  C   UNK N   1      28.560  17.426   5.215  0.00  0.00    -0.033 C 
HETATM    6  C   UNK N   1      28.368  15.905   5.373  0.00  0.00     0.010 C 
HETATM    7  C   UNK N   1      26.907  15.521   5.641  0.00  0.00     0.005 C 
HETATM    8  C   UNK N   1      26.018  16.002   4.499  0.00  0.00     0.034 C 
HETATM    9  C   UNK N   1      26.177  17.487   4.376  0.00  0.00    -0.075 C 
HETATM   10  C   UNK N   1      25.120  18.313   4.366  0.00  0.00     0.004 C 
HETATM   11  C   UNK N   1      29.975  17.671   4.709  0.00  0.00     0.016 C 
ENDROOT
BRANCH  10  12
HETATM   12  C   UNK N   1      23.718  17.878   4.447  0.00  0.00     0.008 C 
HETATM   13  C   UNK N   1      22.689  18.570   3.910  0.00  0.00    -0.048 C 
HETATM   14  C   UNK N   1      21.338  17.936   3.980  0.00  0.00     0.071 C 
HETATM   15  C   UNK N   1      22.824  19.873   3.154  0.00  0.00    -0.033 C 
HETATM   16  C   UNK N   1      20.651  18.079   2.633  0.00  0.00     0.125 C 
HETATM   17  C   UNK N   1      20.378  19.561   2.420  0.00  0.00     0.068 C 
HETATM   18  C   UNK N   1      21.666  20.385   2.319  0.00  0.00     0.153 C 
HETATM   19  C   UNK N   1      23.978  20.541   3.084  0.00  0.00     0.022 C 
BRANCH  16  20
HETATM   20  O   UNK N   1      19.444  17.384   2.650  0.00  0.00    -0.395 OA
HETATM   21  H   UNK N   1      18.691  17.669   2.109  0.00  0.00     0.210 HD
ENDBRANCH  16  20
BRANCH  18  22
HETATM   22  O   UNK N   1      21.378  21.713   2.639  0.00  0.00    -0.391 OA
HETATM   23  H   UNK N   1      21.709  22.554   2.283  0.00  0.00     0.210 HD
ENDBRANCH  18  22
ENDBRANCH  10  12
BRANCH   1  24
HETATM   24  C   UNK N   1      29.239  18.242   7.676  0.00  0.00    -0.014 C 
HETATM   25  C   UNK N   1      28.638  18.687   9.000  0.00  0.00     0.010 C 
BRANCH  24  26
HETATM   26  C   UNK N   1      30.191  17.043   7.802  0.00  0.00     0.005 C 
BRANCH  26  27
HETATM   27  C   UNK N   1      31.572  17.386   8.339  0.00  0.00     0.005 C 
BRANCH  27  28
HETATM   28  C   UNK N   1      32.596  16.335   7.907  0.00  0.00    -0.012 C 
BRANCH  28  29
HETATM   29  C   UNK N   1      31.915  15.350   6.964  0.00  0.00     0.000 C 
HETATM   30  C   UNK N   1      32.727  14.072   6.847  0.00  0.00     0.005 C 
ENDBRANCH  28  29
BRANCH  28  31
HETATM   31  C   UNK N   1      33.806  16.979   7.209  0.00  0.00    -0.019 C 
HETATM   32  C   UNK N   1      33.465  17.454   5.809  0.00  0.00     0.010 C 
HETATM   33  C   UNK N   1      34.309  18.185   7.986  0.00  0.00     0.010 C 
ENDBRANCH  28  31
ENDBRANCH  27  28
ENDBRANCH  26  27
ENDBRANCH  24  26
ENDBRANCH   1  24
TORSDOF 9
ENDMDL
MODEL 2
REMARK VINA RESULT:      -8.2     11.530     14.890
REMARK  9 active torsions:
REMARK  status: ('A' for Active; 'I' for Inactive)
REMARK    1  A    between atoms: C_3  and  C_2 
REMARK    2  A    between atoms: C_3  and  C_4 
REMARK    3  A    between atoms: C_3  and  C_29 
REMARK    4  A    between atoms: C_4  and  C_5 
REMARK    5  A    between atoms: C_5  and  C_6 
REMARK    6  A    between atoms: C_8  and  C_6 
REMARK    7  A    between atoms: C_17  and  C_18 
REMARK    8  A    between atoms: C_21  and  O_27 
REMARK    9  A    between atoms: C_23  and  O_26 
ROOT
HETATM    1  C   UNK N   1      26.895  27.284  -5.183  0.00  0.00    -0.002 C 
HETATM    2  C   UNK N   1      27.080  26.549  -3.858  0.00  0.00     0.006 C 
HETATM    3  C   UNK N   1      26.287  25.249  -3.988  0.00  0.00     0.010 C 
HETATM    4  C   UNK N   1      26.028  25.078  -5.487  0.00  0.00     0.023 C 
HETATM    5  C   UNK N   1      25.815  26.517  -5.960  0.00  0.00    -0.033 C 
HETATM    6  C   UNK N   1      25.938  26.651  -7.490  0.00  0.00     0.010 C 
HETATM    7  C   UNK N   1      27.227  26.024  -8.034  0.00  0.00     0.005 C 
HETATM    8  C   UNK N   1      27.286  24.543  -7.675  0.00  0.00     0.034 C 
HETATM    9  C   UNK N   1      27.207  24.420  -6.184  0.00  0.00    -0.075 C 
HETATM   10  C   UNK N   1      28.109  23.715  -5.484  0.00  0.00     0.004 C 
HETATM   11  C   UNK N   1      24.407  26.938  -5.562  0.00  0.00     0.016 C 
ENDROOT
BRANCH  10  12
HETATM   12  C   UNK N   1      29.236  22.978  -6.075  0.00  0.00     0.008 C 
HETATM   13  C   UNK N   1      30.198  22.372  -5.345  0.00  0.00    -0.048 C 
HETATM   14  C   UNK N   1      31.211  21.569  -6.094  0.00  0.00     0.071 C 
HETATM   15  C   UNK N   1      30.256  22.359  -3.834  0.00  0.00    -0.033 C 
HETATM   16  C   UNK N   1      31.424  20.246  -5.378  0.00  0.00     0.125 C 
HETATM   17  C   UNK N   1      32.081  20.557  -4.041  0.00  0.00     0.068 C 
HETATM   18  C   UNK N   1      31.176  21.385  -3.122  0.00  0.00     0.153 C 
HETATM   19  C   UNK N   1      29.430  23.088  -3.080  0.00  0.00     0.022 C 
BRANCH  16  20
HETATM   20  O   UNK N   1      32.271  19.439  -6.134  0.00  0.00    -0.395 OA
HETATM   21  H   UNK N   1      31.943  18.644  -6.582  0.00  0.00     0.210 HD
ENDBRANCH  16  20
BRANCH  18  22
HETATM   22  O   UNK N   1      31.970  22.051  -2.188  0.00  0.00    -0.391 OA
HETATM   23  H   UNK N   1      31.871  22.191  -1.232  0.00  0.00     0.210 HD
ENDBRANCH  18  22
ENDBRANCH  10  12
BRANCH   1  24
HETATM   24  C   UNK N   1      26.824  28.821  -5.035  0.00  0.00    -0.014 C 
HETATM   25  C   UNK N   1      26.313  29.307  -3.688  0.00  0.00     0.010 C 
BRANCH  24  26
HETATM   26  C   UNK N   1      28.020  29.625  -5.568  0.00  0.00     0.005 C 
BRANCH  26  27
HETATM   27  C   UNK N   1      28.776  28.954  -6.703  0.00  0.00     0.005 C 
BRANCH  27  28
HETATM   28  C   UNK N   1      30.123  28.418  -6.212  0.00  0.00    -0.012 C 
BRANCH  28  29
HETATM   29  C   UNK N   1      30.459  29.088  -4.885  0.00  0.00     0.000 C 
HETATM   30  C   UNK N   1      31.664  30.000  -5.037  0.00  0.00     0.005 C 
ENDBRANCH  28  29
BRANCH  28  31
HETATM   31  C   UNK N   1      30.090  26.889  -6.034  0.00  0.00    -0.019 C 
HETATM   32  C   UNK N   1      30.928  26.180  -7.081  0.00  0.00     0.010 C 
HETATM   33  C   UNK N   1      30.629  26.484  -4.672  0.00  0.00     0.010 C 
ENDBRANCH  28  31
ENDBRANCH  27  28
ENDBRANCH  26  27
ENDBRANCH  24  26
ENDBRANCH   1  24
TORSDOF 9
ENDMDL
MODEL 3
REMARK VINA RESULT:      -8.0      5.644      9.513
REMARK  9 active torsions:
REMARK  status: ('A' for Active; 'I' for Inactive)
REMARK    1  A    between atoms: C_3  and  C_2 
REMARK    2  A    between atoms: C_3  and  C_4 
REMARK    3  A    between atoms: C_3  and  C_29 
REMARK    4  A    between atoms: C_4  and  C_5 
REMARK    5  A    between atoms: C_5  and  C_6 
REMARK    6  A    between atoms: C_8  and  C_6 
REMARK    7  A    between atoms: C_17  and  C_18 
REMARK    8  A    between atoms: C_21  and  O_27 
REMARK    9  A    between atoms: C_23  and  O_26 
ROOT
HETATM    1  C   UNK N   1      22.534  14.418   2.754  0.00  0.00    -0.002 C 
HETATM    2  C   UNK N   1      21.922  13.114   3.261  0.00  0.00     0.006 C 
HETATM    3  C   UNK N   1      23.047  12.080   3.215  0.00  0.00     0.010 C 
HETATM    4  C   UNK N   1      24.340  12.890   3.091  0.00  0.00     0.023 C 
HETATM    5  C   UNK N   1      23.922  14.063   2.202  0.00  0.00    -0.033 C 
HETATM    6  C   UNK N   1      24.930  15.226   2.262  0.00  0.00     0.010 C 
HETATM    7  C   UNK N   1      25.257  15.649   3.699  0.00  0.00     0.005 C 
HETATM    8  C   UNK N   1      25.837  14.471   4.476  0.00  0.00     0.034 C 
HETATM    9  C   UNK N   1      24.835  13.357   4.450  0.00  0.00    -0.075 C 
HETATM   10  C   UNK N   1      24.424  12.750   5.574  0.00  0.00     0.004 C 
HETATM   11  C   UNK N   1      23.864  13.563   0.765  0.00  0.00     0.016 C 
ENDROOT
BRANCH  10  12
HETATM   12  C   UNK N   1      24.905  13.075   6.924  0.00  0.00     0.008 C 
HETATM   13  C   UNK N   1      24.128  13.018   8.029  0.00  0.00    -0.048 C 
HETATM   14  C   UNK N   1      24.798  13.269   9.341  0.00  0.00     0.071 C 
HETATM   15  C   UNK N   1      22.671  12.613   8.041  0.00  0.00    -0.033 C 
HETATM   16  C   UNK N   1      24.332  12.228  10.343  0.00  0.00     0.125 C 
HETATM   17  C   UNK N   1      22.854  12.480  10.603  0.00  0.00     0.068 C 
HETATM   18  C   UNK N   1      21.995  12.265   9.353  0.00  0.00     0.153 C 
HETATM   19  C   UNK N   1      21.974  12.421   6.918  0.00  0.00     0.022 C 
BRANCH  16  20
HETATM   20  O   UNK N   1      25.043  12.376  11.532  0.00  0.00    -0.395 OA
HETATM   21  H   UNK N   1      24.645  12.155  12.389  0.00  0.00     0.210 HD
ENDBRANCH  16  20
BRANCH  18  22
HETATM   22  O   UNK N   1      20.803  12.977   9.496  0.00  0.00    -0.391 OA
HETATM   23  H   UNK N   1      20.297  13.246  10.280  0.00  0.00     0.210 HD
ENDBRANCH  18  22
ENDBRANCH  10  12
BRANCH   1  24
HETATM   24  C   UNK N   1      21.552  15.285   1.932  0.00  0.00    -0.014 C 
HETATM   25  C   UNK N   1      20.450  14.506   1.231  0.00  0.00     0.010 C 
BRANCH  24  26
HETATM   26  C   UNK N   1      21.069  16.590   2.583  0.00  0.00     0.005 C 
BRANCH  26  27
HETATM   27  C   UNK N   1      21.710  16.902   3.925  0.00  0.00     0.005 C 
BRANCH  27  28
HETATM   28  C   UNK N   1      20.669  16.858   5.045  0.00  0.00    -0.012 C 
BRANCH  28  29
HETATM   29  C   UNK N   1      19.398  16.213   4.503  0.00  0.00     0.000 C 
HETATM   30  C   UNK N   1      19.218  14.820   5.080  0.00  0.00     0.005 C 
ENDBRANCH  28  29
BRANCH  28  31
HETATM   31  C   UNK N   1      21.181  16.067   6.261  0.00  0.00    -0.019 C 
HETATM   32  C   UNK N   1      22.696  15.980   6.282  0.00  0.00     0.010 C 
HETATM   33  C   UNK N   1      20.749  16.722   7.563  0.00  0.00     0.010 C 
ENDBRANCH  28  31
ENDBRANCH  27  28
ENDBRANCH  26  27
ENDBRANCH  24  26
ENDBRANCH   1  24
TORSDOF 9
ENDMDL
MODEL 4
REMARK VINA RESULT:      -7.8     11.178     14.999
REMARK  9 active torsions:
REMARK  status: ('A' for Active; 'I' for Inactive)
REMARK    1  A    between atoms: C_3  and  C_2 
REMARK    2  A    between atoms: C_3  and  C_4 
REMARK    3  A    between atoms: C_3  and  C_29 
REMARK    4  A    between atoms: C_4  and  C_5 
REMARK    5  A    between atoms: C_5  and  C_6 
REMARK    6  A    between atoms: C_8  and  C_6 
REMARK    7  A    between atoms: C_17  and  C_18 
REMARK    8  A    between atoms: C_21  and  O_27 
REMARK    9  A    between atoms: C_23  and  O_26 
ROOT
HETATM    1  C   UNK N   1      27.528  26.069  -6.800  0.00  0.00    -0.002 C 
HETATM    2  C   UNK N   1      28.877  26.749  -6.581  0.00  0.00     0.006 C 
HETATM    3  C   UNK N   1      28.828  27.327  -5.167  0.00  0.00     0.010 C 
HETATM    4  C   UNK N   1      27.656  26.622  -4.478  0.00  0.00     0.023 C 
HETATM    5  C   UNK N   1      26.641  26.468  -5.612  0.00  0.00    -0.033 C 
HETATM    6  C   UNK N   1      25.548  25.434  -5.278  0.00  0.00     0.010 C 
HETATM    7  C   UNK N   1      26.129  24.095  -4.806  0.00  0.00     0.005 C 
HETATM    8  C   UNK N   1      26.990  24.303  -3.564  0.00  0.00     0.034 C 
HETATM    9  C   UNK N   1      28.075  25.278  -3.906  0.00  0.00    -0.075 C 
HETATM   10  C   UNK N   1      29.369  25.007  -3.671  0.00  0.00     0.004 C 
HETATM   11  C   UNK N   1      25.964  27.816  -5.821  0.00  0.00     0.016 C 
ENDROOT
BRANCH  10  12
HETATM   12  C   UNK N   1      29.865  23.772  -3.047  0.00  0.00     0.008 C 
HETATM   13  C   UNK N   1      30.707  22.912  -3.660  0.00  0.00    -0.048 C 
HETATM   14  C   UNK N   1      31.207  21.760  -2.849  0.00  0.00     0.071 C 
HETATM   15  C   UNK N   1      31.260  23.090  -5.056  0.00  0.00    -0.033 C 
HETATM   16  C   UNK N   1      32.701  21.606  -3.073  0.00  0.00     0.125 C 
HETATM   17  C   UNK N   1      32.899  21.181  -4.521  0.00  0.00     0.068 C 
HETATM   18  C   UNK N   1      32.439  22.253  -5.515  0.00  0.00     0.153 C 
HETATM   19  C   UNK N   1      30.834  24.054  -5.876  0.00  0.00     0.022 C 
BRANCH  16  20
HETATM   20  O   UNK N   1      33.199  20.618  -2.228  0.00  0.00    -0.395 OA
HETATM   21  H   UNK N   1      33.522  20.830  -1.339  0.00  0.00     0.210 HD
ENDBRANCH  16  20
BRANCH  18  22
HETATM   22  O   UNK N   1      32.164  21.644  -6.740  0.00  0.00    -0.391 OA
HETATM   23  H   UNK N   1      32.582  21.721  -7.613  0.00  0.00     0.210 HD
ENDBRANCH  18  22
ENDBRANCH  10  12
BRANCH   1  24
HETATM   24  C   UNK N   1      27.006  26.179  -8.251  0.00  0.00    -0.014 C 
HETATM   25  C   UNK N   1      27.646  27.287  -9.074  0.00  0.00     0.010 C 
BRANCH  24  26
HETATM   26  C   UNK N   1      26.821  24.864  -9.023  0.00  0.00     0.005 C 
BRANCH  26  27
HETATM   27  C   UNK N   1      25.598  24.060  -8.616  0.00  0.00     0.005 C 
BRANCH  27  28
HETATM   28  C   UNK N   1      26.009  22.807  -7.839  0.00  0.00    -0.012 C 
BRANCH  28  29
HETATM   29  C   UNK N   1      24.996  21.704  -8.123  0.00  0.00     0.000 C 
HETATM   30  C   UNK N   1      24.387  21.191  -6.830  0.00  0.00     0.005 C 
ENDBRANCH  28  29
BRANCH  28  31
HETATM   31  C   UNK N   1      27.420  22.337  -8.233  0.00  0.00    -0.019 C 
HETATM   32  C   UNK N   1      28.246  21.948  -7.021  0.00  0.00     0.010 C 
HETATM   33  C   UNK N   1      27.359  21.125  -9.148  0.00  0.00     0.010 C 
ENDBRANCH  28  31
ENDBRANCH  27  28
ENDBRANCH  26  27
ENDBRANCH  24  26
ENDBRANCH   1  24
TORSDOF 9
ENDMDL
MODEL 5
REMARK VINA RESULT:      -7.6      5.390      8.511
REMARK  9 active torsions:
REMARK  status: ('A' for Active; 'I' for Inactive)
REMARK    1  A    between atoms: C_3  and  C_2 
REMARK    2  A    between atoms: C_3  and  C_4 
REMARK    3  A    between atoms: C_3  and  C_29 
REMARK    4  A    between atoms: C_4  and  C_5 
REMARK    5  A    between atoms: C_5  and  C_6 
REMARK    6  A    between atoms: C_8  and  C_6 
REMARK    7  A    between atoms: C_17  and  C_18 
REMARK    8  A    between atoms: C_21  and  O_27 
REMARK    9  A    between atoms: C_23  and  O_26 
ROOT
HETATM    1  C   UNK N   1      21.763  12.810   5.893  0.00  0.00    -0.002 C 
HETATM    2  C   UNK N   1      20.419  13.506   6.092  0.00  0.00     0.006 C 
HETATM    3  C   UNK N   1      20.609  14.446   7.283  0.00  0.00     0.010 C 
HETATM    4  C   UNK N   1      22.124  14.577   7.462  0.00  0.00     0.023 C 
HETATM    5  C   UNK N   1      22.629  13.177   7.107  0.00  0.00    -0.033 C 
HETATM    6  C   UNK N   1      24.142  13.160   6.818  0.00  0.00     0.010 C 
HETATM    7  C   UNK N   1      24.559  14.226   5.797  0.00  0.00     0.005 C 
HETATM    8  C   UNK N   1      24.181  15.614   6.301  0.00  0.00     0.034 C 
HETATM    9  C   UNK N   1      22.702  15.639   6.541  0.00  0.00    -0.075 C 
HETATM   10  C   UNK N   1      21.915  16.588   6.011  0.00  0.00     0.004 C 
HETATM   11  C   UNK N   1      22.367  12.268   8.300  0.00  0.00     0.016 C 
ENDROOT
BRANCH  10  12
HETATM   12  C   UNK N   1      22.392  17.700   5.177  0.00  0.00     0.008 C 
HETATM   13  C   UNK N   1      21.701  18.197   4.128  0.00  0.00    -0.048 C 
HETATM   14  C   UNK N   1      22.270  19.402   3.452  0.00  0.00     0.071 C 
HETATM   15  C   UNK N   1      20.353  17.694   3.664  0.00  0.00    -0.033 C 
HETATM   16  C   UNK N   1      21.157  20.405   3.204  0.00  0.00     0.125 C 
HETATM   17  C   UNK N   1      20.215  19.789   2.179  0.00  0.00     0.068 C 
HETATM   18  C   UNK N   1      19.526  18.525   2.702  0.00  0.00     0.153 C 
HETATM   19  C   UNK N   1      19.789  16.593   4.169  0.00  0.00     0.022 C 
BRANCH  16  20
HETATM   20  O   UNK N   1      21.696  21.581   2.689  0.00  0.00    -0.395 OA
HETATM   21  H   UNK N   1      21.129  22.318   2.414  0.00  0.00     0.210 HD
ENDBRANCH  16  20
BRANCH  18  22
HETATM   22  O   UNK N   1      19.112  17.754   1.615  0.00  0.00    -0.391 OA
HETATM   23  H   UNK N   1      19.395  16.884   1.290  0.00  0.00     0.210 HD
ENDBRANCH  18  22
ENDBRANCH  10  12
BRANCH   1  24
HETATM   24  C   UNK N   1      21.638  11.343   5.422  0.00  0.00    -0.014 C 
HETATM   25  C   UNK N   1      20.235  10.763   5.516  0.00  0.00     0.010 C 
BRANCH  24  26
HETATM   26  C   UNK N   1      22.379  10.963   4.131  0.00  0.00     0.005 C 
BRANCH  26  27
HETATM   27  C   UNK N   1      23.010  12.135   3.397  0.00  0.00     0.005 C 
BRANCH  27  28
HETATM   28  C   UNK N   1      22.197  12.492   2.150  0.00  0.00    -0.012 C 
BRANCH  28  29
HETATM   29  C   UNK N   1      21.321  11.300   1.782  0.00  0.00     0.000 C 
HETATM   30  C   UNK N   1      21.721  10.740   0.429  0.00  0.00     0.005 C 
ENDBRANCH  28  29
BRANCH  28  31
HETATM   31  C   UNK N   1      21.320  13.734   2.386  0.00  0.00    -0.019 C 
HETATM   32  C   UNK N   1      21.537  14.790   1.318  0.00  0.00     0.010 C 
HETATM   33  C   UNK N   1      19.844  13.374   2.372  0.00  0.00     0.010 C 
ENDBRANCH  28  31
ENDBRANCH  27  28
ENDBRANCH  26  27
ENDBRANCH  24  26
ENDBRANCH   1  24
TORSDOF 9
ENDMDL
MODEL 6
REMARK VINA RESULT:      -7.5     11.463     15.143
REMARK  9 active torsions:
REMARK  status: ('A' for Active; 'I' for Inactive)
REMARK    1  A    between atoms: C_3  and  C_2 
REMARK    2  A    between atoms: C_3  and  C_4 
REMARK    3  A    between atoms: C_3  and  C_29 
REMARK    4  A    between atoms: C_4  and  C_5 
REMARK    5  A    between atoms: C_5  and  C_6 
REMARK    6  A    between atoms: C_8  and  C_6 
REMARK    7  A    between atoms: C_17  and  C_18 
REMARK    8  A    between atoms: C_21  and  O_27 
REMARK    9  A    between atoms: C_23  and  O_26 
ROOT
HETATM    1  C   UNK N   1      29.787  24.823  -4.502  0.00  0.00    -0.002 C 
HETATM    2  C   UNK N   1      30.854  24.418  -3.488  0.00  0.00     0.006 C 
HETATM    3  C   UNK N   1      30.435  23.043  -2.969  0.00  0.00     0.010 C 
HETATM    4  C   UNK N   1      29.405  22.524  -3.975  0.00  0.00     0.023 C 
HETATM    5  C   UNK N   1      28.654  23.794  -4.377  0.00  0.00    -0.033 C 
HETATM    6  C   UNK N   1      27.842  23.605  -5.673  0.00  0.00     0.010 C 
HETATM    7  C   UNK N   1      28.681  23.017  -6.813  0.00  0.00     0.005 C 
HETATM    8  C   UNK N   1      29.253  21.664  -6.403  0.00  0.00     0.034 C 
HETATM    9  C   UNK N   1      30.076  21.860  -5.166  0.00  0.00    -0.075 C 
HETATM   10  C   UNK N   1      31.343  21.425  -5.083  0.00  0.00     0.004 C 
HETATM   11  C   UNK N   1      27.681  24.138  -3.258  0.00  0.00     0.016 C 
ENDROOT
BRANCH  10  12
HETATM   12  C   UNK N   1      32.051  20.702  -6.149  0.00  0.00     0.008 C 
HETATM   13  C   UNK N   1      33.306  20.218  -6.018  0.00  0.00    -0.048 C 
HETATM   14  C   UNK N   1      33.841  19.409  -7.155  0.00  0.00     0.071 C 
HETATM   15  C   UNK N   1      34.155  20.343  -4.773  0.00  0.00    -0.033 C 
HETATM   16  C   UNK N   1      34.524  18.169  -6.604  0.00  0.00     0.125 C 
HETATM   17  C   UNK N   1      35.755  18.634  -5.840  0.00  0.00     0.068 C 
HETATM   18  C   UNK N   1      35.399  19.489  -4.619  0.00  0.00     0.153 C 
HETATM   19  C   UNK N   1      33.787  21.090  -3.730  0.00  0.00     0.022 C 
BRANCH  16  20
HETATM   20  O   UNK N   1      34.916  17.346  -7.657  0.00  0.00    -0.395 OA
HETATM   21  H   UNK N   1      34.549  17.458  -8.548  0.00  0.00     0.210 HD
ENDBRANCH  16  20
BRANCH  18  22
HETATM   22  O   UNK N   1      36.500  20.279  -4.285  0.00  0.00    -0.391 OA
HETATM   23  H   UNK N   1      36.967  20.421  -3.446  0.00  0.00     0.210 HD
ENDBRANCH  18  22
ENDBRANCH  10  12
BRANCH   1  24
HETATM   24  C   UNK N   1      29.485  26.339  -4.512  0.00  0.00    -0.014 C 
HETATM   25  C   UNK N   1      30.303  27.157  -3.525  0.00  0.00     0.010 C 
BRANCH  24  26
HETATM   26  C   UNK N   1      29.328  27.007  -5.887  0.00  0.00     0.005 C 
BRANCH  26  27
HETATM   27  C   UNK N   1      28.021  27.757  -6.079  0.00  0.00     0.005 C 
BRANCH  27  28
HETATM   28  C   UNK N   1      26.959  27.252  -5.099  0.00  0.00    -0.012 C 
BRANCH  28  29
HETATM   29  C   UNK N   1      26.393  28.445  -4.338  0.00  0.00     0.000 C 
HETATM   30  C   UNK N   1      27.085  29.728  -4.763  0.00  0.00     0.005 C 
ENDBRANCH  28  29
BRANCH  28  31
HETATM   31  C   UNK N   1      25.826  26.510  -5.829  0.00  0.00    -0.019 C 
HETATM   32  C   UNK N   1      24.480  27.175  -5.609  0.00  0.00     0.010 C 
HETATM   33  C   UNK N   1      26.071  26.472  -7.328  0.00  0.00     0.010 C 
ENDBRANCH  28  31
ENDBRANCH  27  28
ENDBRANCH  26  27
ENDBRANCH  24  26
ENDBRANCH   1  24
TORSDOF 9
ENDMDL
MODEL 7
REMARK VINA RESULT:      -7.4      5.535     10.611
REMARK  9 active torsions:
REMARK  status: ('A' for Active; 'I' for Inactive)
REMARK    1  A    between atoms: C_3  and  C_2 
REMARK    2  A    between atoms: C_3  and  C_4 
REMARK    3  A    between atoms: C_3  and  C_29 
REMARK    4  A    between atoms: C_4  and  C_5 
REMARK    5  A    between atoms: C_5  and  C_6 
REMARK    6  A    between atoms: C_8  and  C_6 
REMARK    7  A    between atoms: C_17  and  C_18 
REMARK    8  A    between atoms: C_21  and  O_27 
REMARK    9  A    between atoms: C_23  and  O_26 
ROOT
HETATM    1  C   UNK N   1      32.044  15.503   5.422  0.00  0.00    -0.002 C 
HETATM    2  C   UNK N   1      33.528  15.306   5.120  0.00  0.00     0.006 C 
HETATM    3  C   UNK N   1      34.164  16.691   5.232  0.00  0.00     0.010 C 
HETATM    4  C   UNK N   1      33.145  17.548   5.987  0.00  0.00     0.023 C 
HETATM    5  C   UNK N   1      31.807  17.020   5.467  0.00  0.00    -0.033 C 
HETATM    6  C   UNK N   1      30.627  17.436   6.366  0.00  0.00     0.010 C 
HETATM    7  C   UNK N   1      30.869  17.108   7.845  0.00  0.00     0.005 C 
HETATM    8  C   UNK N   1      32.126  17.814   8.342  0.00  0.00     0.034 C 
HETATM    9  C   UNK N   1      33.278  17.374   7.491  0.00  0.00    -0.075 C 
HETATM   10  C   UNK N   1      34.410  16.891   8.026  0.00  0.00     0.004 C 
HETATM   11  C   UNK N   1      31.575  17.611   4.083  0.00  0.00     0.016 C 
ENDROOT
BRANCH  10  12
HETATM   12  C   UNK N   1      34.663  16.761   9.468  0.00  0.00     0.008 C 
HETATM   13  C   UNK N   1      34.708  15.576  10.115  0.00  0.00    -0.048 C 
HETATM   14  C   UNK N   1      35.088  15.607  11.560  0.00  0.00     0.071 C 
HETATM   15  C   UNK N   1      34.510  14.226   9.462  0.00  0.00    -0.033 C 
HETATM   16  C   UNK N   1      36.096  14.504  11.832  0.00  0.00     0.125 C 
HETATM   17  C   UNK N   1      35.374  13.177  11.646  0.00  0.00     0.068 C 
HETATM   18  C   UNK N   1      34.905  12.963  10.203  0.00  0.00     0.153 C 
HETATM   19  C   UNK N   1      34.115  14.098   8.193  0.00  0.00     0.022 C 
BRANCH  16  20
HETATM   20  O   UNK N   1      36.551  14.603  13.145  0.00  0.00    -0.395 OA
HETATM   21  H   UNK N   1      37.242  15.237  13.393  0.00  0.00     0.210 HD
ENDBRANCH  16  20
BRANCH  18  22
HETATM   22  O   UNK N   1      33.855  12.043  10.202  0.00  0.00    -0.391 OA
HETATM   23  H   UNK N   1      33.698  11.237   9.685  0.00  0.00     0.210 HD
ENDBRANCH  18  22
ENDBRANCH  10  12
BRANCH   1  24
HETATM   24  C   UNK N   1      31.116  14.579   4.600  0.00  0.00    -0.014 C 
HETATM   25  C   UNK N   1      31.839  13.567   3.725  0.00  0.00     0.010 C 
BRANCH  24  26
HETATM   26  C   UNK N   1      29.891  14.004   5.327  0.00  0.00     0.005 C 
BRANCH  26  27
HETATM   27  C   UNK N   1      28.566  14.250   4.623  0.00  0.00     0.005 C 
BRANCH  27  28
HETATM   28  C   UNK N   1      28.598  15.575   3.859  0.00  0.00    -0.012 C 
BRANCH  28  29
HETATM   29  C   UNK N   1      28.482  15.280   2.367  0.00  0.00     0.000 C 
HETATM   30  C   UNK N   1      27.467  14.179   2.118  0.00  0.00     0.005 C 
ENDBRANCH  28  29
BRANCH  28  31
HETATM   31  C   UNK N   1      27.457  16.508   4.300  0.00  0.00    -0.019 C 
HETATM   32  C   UNK N   1      27.171  16.389   5.786  0.00  0.00     0.010 C 
HETATM   33  C   UNK N   1      27.799  17.962   4.020  0.00  0.00     0.010 C 
ENDBRANCH  28  31
ENDBRANCH  27  28
ENDBRANCH  26  27
ENDBRANCH  24  26
ENDBRANCH   1  24
TORSDOF 9
ENDMDL
MODEL 8
REMARK VINA RESULT:      -7.4     11.356     14.070
REMARK  9 active torsions:
REMARK  status: ('A' for Active; 'I' for Inactive)
REMARK    1  A    between atoms: C_3  and  C_2 
REMARK    2  A    between atoms: C_3  and  C_4 
REMARK    3  A    between atoms: C_3  and  C_29 
REMARK    4  A    between atoms: C_4  and  C_5 
REMARK    5  A    between atoms: C_5  and  C_6 
REMARK    6  A    between atoms: C_8  and  C_6 
REMARK    7  A    between atoms: C_17  and  C_18 
REMARK    8  A    between atoms: C_21  and  O_27 
REMARK    9  A    between atoms: C_23  and  O_26 
ROOT
HETATM    1  C   UNK N   1      31.242  22.255  -5.661  0.00  0.00    -0.002 C 
HETATM    2  C   UNK N   1      30.038  21.922  -4.782  0.00  0.00     0.006 C 
HETATM    3  C   UNK N   1      30.395  22.417  -3.381  0.00  0.00     0.010 C 
HETATM    4  C   UNK N   1      31.577  23.372  -3.574  0.00  0.00     0.023 C 
HETATM    5  C   UNK N   1      32.359  22.716  -4.713  0.00  0.00    -0.033 C 
HETATM    6  C   UNK N   1      33.364  23.686  -5.364  0.00  0.00     0.010 C 
HETATM    7  C   UNK N   1      32.720  25.018  -5.767  0.00  0.00     0.005 C 
HETATM    8  C   UNK N   1      32.114  25.701  -4.545  0.00  0.00     0.034 C 
HETATM    9  C   UNK N   1      31.108  24.770  -3.940  0.00  0.00    -0.075 C 
HETATM   10  C   UNK N   1      29.851  25.161  -3.679  0.00  0.00     0.004 C 
HETATM   11  C   UNK N   1      33.143  21.547  -4.131  0.00  0.00     0.016 C 
ENDROOT
BRANCH  10  12
HETATM   12  C   UNK N   1      29.328  26.513  -3.921  0.00  0.00     0.008 C 
HETATM   13  C   UNK N   1      28.070  26.762  -4.348  0.00  0.00    -0.048 C 
HETATM   14  C   UNK N   1      27.657  28.195  -4.437  0.00  0.00     0.071 C 
HETATM   15  C   UNK N   1      27.028  25.704  -4.632  0.00  0.00    -0.033 C 
HETATM   16  C   UNK N   1      26.270  28.351  -3.839  0.00  0.00     0.125 C 
HETATM   17  C   UNK N   1      25.301  27.607  -4.747  0.00  0.00     0.068 C 
HETATM   18  C   UNK N   1      25.571  26.099  -4.782  0.00  0.00     0.153 C 
HETATM   19  C   UNK N   1      27.315  24.400  -4.631  0.00  0.00     0.022 C 
BRANCH  16  20
HETATM   20  O   UNK N   1      25.927  29.701  -3.804  0.00  0.00    -0.395 OA
HETATM   21  H   UNK N   1      25.591  30.114  -2.994  0.00  0.00     0.210 HD
ENDBRANCH  16  20
BRANCH  18  22
HETATM   22  O   UNK N   1      25.036  25.572  -5.958  0.00  0.00    -0.391 OA
HETATM   23  H   UNK N   1      24.181  25.155  -6.154  0.00  0.00     0.210 HD
ENDBRANCH  18  22
ENDBRANCH  10  12
BRANCH   1  24
HETATM   24  C   UNK N   1      31.517  21.203  -6.760  0.00  0.00    -0.014 C 
HETATM   25  C   UNK N   1      30.924  19.830  -6.488  0.00  0.00     0.010 C 
BRANCH  24  26
HETATM   26  C   UNK N   1      31.363  21.666  -8.217  0.00  0.00     0.005 C 
BRANCH  26  27
HETATM   27  C   UNK N   1      30.924  23.112  -8.377  0.00  0.00     0.005 C 
BRANCH  27  28
HETATM   28  C   UNK N   1      29.504  23.186  -8.943  0.00  0.00    -0.012 C 
BRANCH  28  29
HETATM   29  C   UNK N   1      28.845  21.821  -8.784  0.00  0.00     0.000 C 
HETATM   30  C   UNK N   1      27.775  21.865  -7.708  0.00  0.00     0.005 C 
ENDBRANCH  28  29
BRANCH  28  31
HETATM   31  C   UNK N   1      28.666  24.260  -8.226  0.00  0.00    -0.019 C 
HETATM   32  C   UNK N   1      29.534  25.215  -7.428  0.00  0.00     0.010 C 
HETATM   33  C   UNK N   1      27.874  25.092  -9.221  0.00  0.00     0.010 C 
ENDBRANCH  28  31
ENDBRANCH  27  28
ENDBRANCH  26  27
ENDBRANCH  24  26
ENDBRANCH   1  24
TORSDOF 9
ENDMDL
MODEL 9
REMARK VINA RESULT:      -7.2     13.988     17.737
REMARK  9 active torsions:
REMARK  status: ('A' for Active; 'I' for Inactive)
REMARK    1  A    between atoms: C_3  and  C_2 
REMARK    2  A    between atoms: C_3  and  C_4 
REMARK    3  A    between atoms: C_3  and  C_29 
REMARK    4  A    between atoms: C_4  and  C_5 
REMARK    5  A    between atoms: C_5  and  C_6 
REMARK    6  A    between atoms: C_8  and  C_6 
REMARK    7  A    between atoms: C_17  and  C_18 
REMARK    8  A    between atoms: C_21  and  O_27 
REMARK    9  A    between atoms: C_23  and  O_26 
ROOT
HETATM    1  C   UNK N   1      34.657  11.050  15.729  0.00  0.00    -0.002 C 
HETATM    2  C   UNK N   1      34.715   9.571  16.104  0.00  0.00     0.006 C 
HETATM    3  C   UNK N   1      35.960   9.412  16.977  0.00  0.00     0.010 C 
HETATM    4  C   UNK N   1      36.333  10.829  17.418  0.00  0.00     0.023 C 
HETATM    5  C   UNK N   1      35.986  11.669  16.188  0.00  0.00    -0.033 C 
HETATM    6  C   UNK N   1      35.890  13.171  16.516  0.00  0.00     0.010 C 
HETATM    7  C   UNK N   1      34.976  13.455  17.715  0.00  0.00     0.005 C 
HETATM    8  C   UNK N   1      35.487  12.724  18.952  0.00  0.00     0.034 C 
HETATM    9  C   UNK N   1      35.539  11.259  18.641  0.00  0.00    -0.075 C 
HETATM   10  C   UNK N   1      34.956  10.346  19.433  0.00  0.00     0.004 C 
HETATM   11  C   UNK N   1      37.096  11.482  15.163  0.00  0.00     0.016 C 
ENDROOT
BRANCH  10  12
HETATM   12  C   UNK N   1      34.237  10.656  20.677  0.00  0.00     0.008 C 
HETATM   13  C   UNK N   1      33.316   9.838  21.232  0.00  0.00    -0.048 C 
HETATM   14  C   UNK N   1      32.758  10.246  22.557  0.00  0.00     0.071 C 
HETATM   15  C   UNK N   1      32.896   8.500  20.666  0.00  0.00    -0.033 C 
HETATM   16  C   UNK N   1      32.726   9.037  23.476  0.00  0.00     0.125 C 
HETATM   17  C   UNK N   1      31.706   8.063  22.905  0.00  0.00     0.068 C 
HETATM   18  C   UNK N   1      32.114   7.527  21.528  0.00  0.00     0.153 C 
HETATM   19  C   UNK N   1      33.296   8.075  19.466  0.00  0.00     0.022 C 
BRANCH  16  20
HETATM   20  O   UNK N   1      32.326   9.432  24.750  0.00  0.00    -0.395 OA
HETATM   21  H   UNK N   1      31.889   8.813  25.355  0.00  0.00     0.210 HD
ENDBRANCH  16  20
BRANCH  18  22
HETATM   22  O   UNK N   1      30.971   7.085  20.859  0.00  0.00    -0.391 OA
HETATM   23  H   UNK N   1      30.761   6.247  20.417  0.00  0.00     0.210 HD
ENDBRANCH  18  22
ENDBRANCH  10  12
BRANCH   1  24
HETATM   24  C   UNK N   1      34.112  11.308  14.305  0.00  0.00    -0.014 C 
HETATM   25  C   UNK N   1      34.601  12.595  13.660  0.00  0.00     0.010 C 
BRANCH  24  26
HETATM   26  C   UNK N   1      34.086  10.108  13.346  0.00  0.00     0.005 C 
BRANCH  26  27
HETATM   27  C   UNK N   1      34.907  10.293  12.080  0.00  0.00     0.005 C 
BRANCH  27  28
HETATM   28  C   UNK N   1      35.913   9.152  11.917  0.00  0.00    -0.012 C 
BRANCH  28  29
HETATM   29  C   UNK N   1      37.317   9.744  11.866  0.00  0.00     0.000 C 
HETATM   30  C   UNK N   1      37.269  11.194  11.416  0.00  0.00     0.005 C 
ENDBRANCH  28  29
BRANCH  28  31
HETATM   31  C   UNK N   1      35.812   8.142  13.074  0.00  0.00    -0.019 C 
HETATM   32  C   UNK N   1      35.359   6.775  12.594  0.00  0.00     0.010 C 
HETATM   33  C   UNK N   1      37.156   7.958  13.760  0.00  0.00     0.010 C 
ENDBRANCH  28  31
ENDBRANCH  27  28
ENDBRANCH  26  27
ENDBRANCH  24  26
ENDBRANCH   1  24
TORSDOF 9
ENDMDL
