MODEL 1
REMARK VINA RESULT:      -2.8      0.000      0.000
REMARK  0 active torsions:
REMARK  status: ('A' for Active; 'I' for Inactive)
ROOT
HETATM    1  C   UNK N   1      31.261  22.300  -2.830  0.00  0.00     0.199 C 
HETATM    2  F   UNK N   1      27.953  23.420  -2.357  0.00  0.00    -0.105 F 
HETATM    3  O   UNK N   1      30.468  23.054  -1.361  0.00  0.00    -0.195 OA
HETATM    4  O   UNK N   1      29.837  22.297  -3.982  0.00  0.00    -0.195 OA
HETATM    5  S   UNK N   1      29.558  22.876  -2.587  0.00  0.00     0.296 S 
ENDROOT
TORSDOF 0
ENDMDL
MODEL 2
REMARK VINA RESULT:      -2.8     10.397     10.543
REMARK  0 active torsions:
REMARK  status: ('A' for Active; 'I' for Inactive)
ROOT
HETATM    1  C   UNK N   1      21.001  19.845   3.479  0.00  0.00     0.199 C 
HETATM    2  F   UNK N   1      20.910  20.893   0.115  0.00  0.00    -0.105 F 
HETATM    3  O   UNK N   1      20.140  19.114   2.038  0.00  0.00    -0.195 OA
HETATM    4  O   UNK N   1      21.802  21.278   2.667  0.00  0.00    -0.195 OA
HETATM    5  S   UNK N   1      20.954  20.384   1.748  0.00  0.00     0.296 S 
ENDROOT
TORSDOF 0
ENDMDL
MODEL 3
REMARK VINA RESULT:      -2.8     19.001     19.096
REMARK  0 active torsions:
REMARK  status: ('A' for Active; 'I' for Inactive)
ROOT
HETATM    1  C   UNK N   1      23.720  12.408  10.171  0.00  0.00     0.199 C 
HETATM    2  F   UNK N   1      22.874  11.518  13.475  0.00  0.00    -0.105 F 
HETATM    3  O   UNK N   1      22.077  12.191  10.951  0.00  0.00    -0.195 OA
HETATM    4  O   UNK N   1      24.796  12.029  11.604  0.00  0.00    -0.195 OA
HETATM    5  S   UNK N   1      23.285  11.950  11.871  0.00  0.00     0.296 S 
ENDROOT
TORSDOF 0
ENDMDL
MODEL 4
REMARK VINA RESULT:      -2.7     11.865     12.200
REMARK  0 active torsions:
REMARK  status: ('A' for Active; 'I' for Inactive)
ROOT
HETATM    1  C   UNK N   1      32.634  17.251   6.810  0.00  0.00     0.199 C 
HETATM    2  F   UNK N   1      35.220  18.926   8.522  0.00  0.00    -0.105 F 
HETATM    3  O   UNK N   1      34.289  17.777   6.227  0.00  0.00    -0.195 OA
HETATM    4  O   UNK N   1      32.712  17.847   8.540  0.00  0.00    -0.195 OA
HETATM    5  S   UNK N   1      33.965  18.113   7.691  0.00  0.00     0.296 S 
ENDROOT
TORSDOF 0
ENDMDL
MODEL 5
REMARK VINA RESULT:      -2.7     11.883     12.171
REMARK  0 active torsions:
REMARK  status: ('A' for Active; 'I' for Inactive)
ROOT
HETATM    1  C   UNK N   1      32.686  17.152   6.885  0.00  0.00     0.199 C 
HETATM    2  F   UNK N   1      35.237  18.966   8.507  0.00  0.00    -0.105 F 
HETATM    3  O   UNK N   1      32.821  17.701   8.628  0.00  0.00    -0.195 OA
HETATM    4  O   UNK N   1      34.261  17.819   6.230  0.00  0.00    -0.195 OA
HETATM    5  S   UNK N   1      33.999  18.086   7.720  0.00  0.00     0.296 S 
ENDROOT
TORSDOF 0
ENDMDL
MODEL 6
REMARK VINA RESULT:      -2.6     11.224     11.395
REMARK  0 active torsions:
REMARK  status: ('A' for Active; 'I' for Inactive)
ROOT
HETATM    1  C   UNK N   1      21.718  20.558   2.629  0.00  0.00     0.199 C 
HETATM    2  F   UNK N   1      18.617  18.881   2.674  0.00  0.00    -0.105 F 
HETATM    3  O   UNK N   1      20.812  19.714   1.279  0.00  0.00    -0.195 OA
HETATM    4  O   UNK N   1      20.547  20.278   4.009  0.00  0.00    -0.195 OA
HETATM    5  S   UNK N   1      20.122  19.695   2.652  0.00  0.00     0.296 S 
ENDROOT
TORSDOF 0
ENDMDL
MODEL 7
REMARK VINA RESULT:      -2.6     10.037     10.093
REMARK  0 active torsions:
REMARK  status: ('A' for Active; 'I' for Inactive)
ROOT
HETATM    1  C   UNK N   1      20.291  20.059   2.114  0.00  0.00     0.199 C 
HETATM    2  F   UNK N   1      23.584  20.984   2.968  0.00  0.00    -0.105 F 
HETATM    3  O   UNK N   1      21.099  20.171   3.754  0.00  0.00    -0.195 OA
HETATM    4  O   UNK N   1      21.690  20.567   1.046  0.00  0.00    -0.195 OA
HETATM    5  S   UNK N   1      21.986  20.535   2.553  0.00  0.00     0.296 S 
ENDROOT
TORSDOF 0
ENDMDL
MODEL 8
REMARK VINA RESULT:      -2.6     15.919     16.138
REMARK  0 active torsions:
REMARK  status: ('A' for Active; 'I' for Inactive)
ROOT
HETATM    1  C   UNK N   1      20.406  17.112   7.496  0.00  0.00     0.199 C 
HETATM    2  F   UNK N   1      18.440  18.398  10.124  0.00  0.00    -0.105 F 
HETATM    3  O   UNK N   1      20.359  18.793   8.222  0.00  0.00    -0.195 OA
HETATM    4  O   UNK N   1      19.136  16.293   8.531  0.00  0.00    -0.195 OA
HETATM    5  S   UNK N   1      19.394  17.774   8.848  0.00  0.00     0.296 S 
ENDROOT
TORSDOF 0
ENDMDL
MODEL 9
REMARK VINA RESULT:      -2.5     16.809     16.910
REMARK  0 active torsions:
REMARK  status: ('A' for Active; 'I' for Inactive)
ROOT
HETATM    1  C   UNK N   1      34.802  16.008  10.080  0.00  0.00     0.199 C 
HETATM    2  F   UNK N   1      36.341  15.054  13.105  0.00  0.00    -0.105 F 
HETATM    3  O   UNK N   1      34.182  14.945  11.437  0.00  0.00    -0.195 OA
HETATM    4  O   UNK N   1      36.453  16.432  10.750  0.00  0.00    -0.195 OA
HETATM    5  S   UNK N   1      35.594  15.517  11.637  0.00  0.00     0.296 S 
ENDROOT
TORSDOF 0
ENDMDL
