MODEL 1
REMARK VINA RESULT:      -7.3      0.000      0.000
REMARK  11 active torsions:
REMARK  status: ('A' for Active; 'I' for Inactive)
REMARK    1  A    between atoms: C_13  and  C_5 
REMARK    2  A    between atoms: O_21  and  C_5 
REMARK    3  A    between atoms: C_14  and  C_6 
REMARK    4  A    between atoms: O_22  and  C_6 
REMARK    5  A    between atoms: C_11  and  C_7 
REMARK    6  A    between atoms: S_25  and  C_7 
REMARK    7  A    between atoms: C_12  and  C_8 
REMARK    8  A    between atoms: S_26  and  C_8 
REMARK    9  A    between atoms: O_23  and  C_15 
REMARK   10  A    between atoms: O_24  and  C_16 
REMARK   11  A    between atoms: S_26  and  S_25 
ROOT
HETATM    1  S   UNK N   1      32.486  15.370   6.136  0.00  0.00    -0.093 SA
ENDROOT
BRANCH   1   2
HETATM    2  C   UNK N   1      32.200  16.564   7.481  0.00  0.00     0.127 C 
BRANCH   2   3
HETATM    3  C   UNK N   1      33.051  16.258   8.664  0.00  0.00    -0.021 A 
HETATM    4  C   UNK N   1      32.720  15.162   9.461  0.00  0.00     0.096 A 
HETATM    5  N   UNK N   1      33.480  14.845  10.539  0.00  0.00    -0.367 N 
HETATM    6  C   UNK N   1      34.577  15.570  10.875  0.00  0.00     0.039 A 
ATOM      7  HN  UNK N   1      33.219  14.043  11.113  1.00  0.00     0.165 HD
HETATM    8  C   UNK N   1      35.376  15.169  12.067  0.00  0.00     0.071 C 
HETATM    9  C   UNK N   1      34.958  16.679  10.103  0.00  0.00     0.096 A 
HETATM   10  C   UNK N   1      34.184  17.036   8.974  0.00  0.00     0.009 A 
BRANCH   9  11
HETATM   11  O   UNK N   1      36.053  17.381  10.444  0.00  0.00    -0.358 OA
HETATM   12  H   UNK N   1      36.899  17.105  10.153  0.00  0.00     0.217 HD
ENDBRANCH   9  11
BRANCH  10  13
HETATM   13  C   UNK N   1      34.523  18.210   8.076  0.00  0.00     0.206 C 
BRANCH  13  14
HETATM   14  O   UNK N   1      35.310  19.188   8.685  0.00  0.00    -0.396 OA
HETATM   15  H   UNK N   1      36.264  19.233   8.515  0.00  0.00     0.209 HD
ENDBRANCH  13  14
ENDBRANCH  10  13
ENDBRANCH   2   3
ENDBRANCH   1   2
BRANCH   1  16
HETATM   16  S   UNK N   1      30.416  15.347   5.694  0.00  0.00    -0.093 SA
BRANCH  16  17
HETATM   17  C   UNK N   1      30.135  16.705   6.873  0.00  0.00     0.127 C 
BRANCH  17  18
HETATM   18  C   UNK N   1      29.217  17.731   6.305  0.00  0.00    -0.021 A 
HETATM   19  C   UNK N   1      29.109  17.838   4.920  0.00  0.00     0.096 A 
HETATM   20  N   UNK N   1      28.272  18.752   4.365  0.00  0.00    -0.367 N 
HETATM   21  C   UNK N   1      27.517  19.581   5.130  0.00  0.00     0.039 A 
ATOM     22  HN  UNK N   1      28.211  18.819   3.350  1.00  0.00     0.165 HD
HETATM   23  C   UNK N   1      26.612  20.561   4.466  0.00  0.00     0.071 C 
HETATM   24  C   UNK N   1      27.584  19.510   6.531  0.00  0.00     0.096 A 
HETATM   25  C   UNK N   1      28.449  18.569   7.137  0.00  0.00     0.009 A 
BRANCH  24  26
HETATM   26  O   UNK N   1      26.821  20.333   7.273  0.00  0.00    -0.358 OA
HETATM   27  H   UNK N   1      26.701  21.226   7.014  0.00  0.00     0.217 HD
ENDBRANCH  24  26
BRANCH  25  28
HETATM   28  C   UNK N   1      28.579  18.414   8.640  0.00  0.00     0.206 C 
BRANCH  28  29
HETATM   29  O   UNK N   1      27.373  18.180   9.298  0.00  0.00    -0.396 OA
HETATM   30  H   UNK N   1      26.635  18.806   9.222  0.00  0.00     0.209 HD
ENDBRANCH  28  29
ENDBRANCH  25  28
ENDBRANCH  17  18
ENDBRANCH  16  17
ENDBRANCH   1  16
TORSDOF 11
ENDMDL
MODEL 2
REMARK VINA RESULT:      -7.0      0.695      7.753
REMARK  11 active torsions:
REMARK  status: ('A' for Active; 'I' for Inactive)
REMARK    1  A    between atoms: C_13  and  C_5 
REMARK    2  A    between atoms: O_21  and  C_5 
REMARK    3  A    between atoms: C_14  and  C_6 
REMARK    4  A    between atoms: O_22  and  C_6 
REMARK    5  A    between atoms: C_11  and  C_7 
REMARK    6  A    between atoms: S_25  and  C_7 
REMARK    7  A    between atoms: C_12  and  C_8 
REMARK    8  A    between atoms: S_26  and  C_8 
REMARK    9  A    between atoms: O_23  and  C_15 
REMARK   10  A    between atoms: O_24  and  C_16 
REMARK   11  A    between atoms: S_26  and  S_25 
ROOT
HETATM    1  S   UNK N   1      30.876  16.178   5.047  0.00  0.00    -0.093 SA
ENDROOT
BRANCH   1   2
HETATM    2  C   UNK N   1      29.979  16.717   6.537  0.00  0.00     0.127 C 
BRANCH   2   3
HETATM    3  C   UNK N   1      29.095  17.879   6.244  0.00  0.00    -0.021 A 
HETATM    4  C   UNK N   1      28.938  18.282   4.918  0.00  0.00     0.096 A 
HETATM    5  N   UNK N   1      28.131  19.328   4.611  0.00  0.00    -0.367 N 
HETATM    6  C   UNK N   1      27.452  20.009   5.570  0.00  0.00     0.039 A 
ATOM      7  HN  UNK N   1      28.032  19.612   3.636  1.00  0.00     0.165 HD
HETATM    8  C   UNK N   1      26.575  21.146   5.171  0.00  0.00     0.071 C 
HETATM    9  C   UNK N   1      27.570  19.641   6.919  0.00  0.00     0.096 A 
HETATM   10  C   UNK N   1      28.407  18.555   7.270  0.00  0.00     0.009 A 
BRANCH   9  11
HETATM   11  O   UNK N   1      26.883  20.320   7.855  0.00  0.00    -0.358 OA
HETATM   12  H   UNK N   1      26.682  21.225   7.728  0.00  0.00     0.217 HD
ENDBRANCH   9  11
BRANCH  10  13
HETATM   13  C   UNK N   1      28.589  18.080   8.699  0.00  0.00     0.206 C 
BRANCH  13  14
HETATM   14  O   UNK N   1      27.398  17.939   9.412  0.00  0.00    -0.396 OA
HETATM   15  H   UNK N   1      27.321  17.284  10.123  0.00  0.00     0.209 HD
ENDBRANCH  13  14
ENDBRANCH  10  13
ENDBRANCH   2   3
ENDBRANCH   1   2
BRANCH   1  16
HETATM   16  S   UNK N   1      32.216  15.055   6.240  0.00  0.00    -0.093 SA
BRANCH  16  17
HETATM   17  C   UNK N   1      31.789  16.065   7.693  0.00  0.00     0.127 C 
BRANCH  17  18
HETATM   18  C   UNK N   1      32.821  15.940   8.760  0.00  0.00    -0.021 A 
HETATM   19  C   UNK N   1      32.816  14.801   9.564  0.00  0.00     0.096 A 
HETATM   20  N   UNK N   1      33.748  14.645  10.539  0.00  0.00    -0.367 N 
HETATM   21  C   UNK N   1      34.710  15.578  10.758  0.00  0.00     0.039 A 
ATOM     22  HN  UNK N   1      33.725  13.808  11.120  1.00  0.00     0.165 HD
HETATM   23  C   UNK N   1      35.711  15.350  11.838  0.00  0.00     0.071 C 
HETATM   24  C   UNK N   1      34.764  16.740   9.972  0.00  0.00     0.096 A 
HETATM   25  C   UNK N   1      33.803  16.930   8.951  0.00  0.00     0.009 A 
BRANCH  24  26
HETATM   26  O   UNK N   1      35.729  17.649  10.198  0.00  0.00    -0.358 OA
HETATM   27  H   UNK N   1      35.706  18.178  10.971  0.00  0.00     0.217 HD
ENDBRANCH  24  26
BRANCH  25  28
HETATM   28  C   UNK N   1      33.789  18.149   8.047  0.00  0.00     0.206 C 
BRANCH  28  29
HETATM   29  O   UNK N   1      34.542  18.006   6.882  0.00  0.00    -0.396 OA
HETATM   30  H   UNK N   1      34.530  17.174   6.382  0.00  0.00     0.209 HD
ENDBRANCH  28  29
ENDBRANCH  25  28
ENDBRANCH  17  18
ENDBRANCH  16  17
ENDBRANCH   1  16
TORSDOF 11
ENDMDL
MODEL 3
REMARK VINA RESULT:      -6.7      2.048      8.360
REMARK  11 active torsions:
REMARK  status: ('A' for Active; 'I' for Inactive)
REMARK    1  A    between atoms: C_13  and  C_5 
REMARK    2  A    between atoms: O_21  and  C_5 
REMARK    3  A    between atoms: C_14  and  C_6 
REMARK    4  A    between atoms: O_22  and  C_6 
REMARK    5  A    between atoms: C_11  and  C_7 
REMARK    6  A    between atoms: S_25  and  C_7 
REMARK    7  A    between atoms: C_12  and  C_8 
REMARK    8  A    between atoms: S_26  and  C_8 
REMARK    9  A    between atoms: O_23  and  C_15 
REMARK   10  A    between atoms: O_24  and  C_16 
REMARK   11  A    between atoms: S_26  and  S_25 
ROOT
HETATM    1  S   UNK N   1      32.177  16.823   6.538  0.00  0.00    -0.093 SA
ENDROOT
BRANCH   1   2
HETATM    2  C   UNK N   1      30.476  16.650   7.165  0.00  0.00     0.127 C 
BRANCH   2   3
HETATM    3  C   UNK N   1      29.558  17.623   6.509  0.00  0.00    -0.021 A 
HETATM    4  C   UNK N   1      29.571  17.721   5.118  0.00  0.00     0.096 A 
HETATM    5  N   UNK N   1      28.740  18.586   4.485  0.00  0.00    -0.367 N 
HETATM    6  C   UNK N   1      27.874  19.374   5.172  0.00  0.00     0.039 A 
ATOM      7  HN  UNK N   1      28.766  18.647   3.466  1.00  0.00     0.165 HD
HETATM    8  C   UNK N   1      26.981  20.300   4.421  0.00  0.00     0.071 C 
HETATM    9  C   UNK N   1      27.817  19.311   6.574  0.00  0.00     0.096 A 
HETATM   10  C   UNK N   1      28.674  18.419   7.262  0.00  0.00     0.009 A 
BRANCH   9  11
HETATM   11  O   UNK N   1      26.948  20.091   7.238  0.00  0.00    -0.358 OA
HETATM   12  H   UNK N   1      26.097  20.258   6.884  0.00  0.00     0.217 HD
ENDBRANCH   9  11
BRANCH  10  13
HETATM   13  C   UNK N   1      28.676  18.276   8.772  0.00  0.00     0.206 C 
BRANCH  13  14
HETATM   14  O   UNK N   1      27.407  18.160   9.338  0.00  0.00    -0.396 OA
HETATM   15  H   UNK N   1      26.827  17.418   9.108  0.00  0.00     0.209 HD
ENDBRANCH  13  14
ENDBRANCH  10  13
ENDBRANCH   2   3
ENDBRANCH   1   2
BRANCH   1  16
HETATM   16  S   UNK N   1      32.821  17.517   8.432  0.00  0.00    -0.093 SA
BRANCH  16  17
HETATM   17  C   UNK N   1      34.378  16.590   8.257  0.00  0.00     0.127 C 
BRANCH  17  18
HETATM   18  C   UNK N   1      34.738  15.896   9.525  0.00  0.00    -0.021 A 
HETATM   19  C   UNK N   1      35.455  16.600  10.491  0.00  0.00     0.096 A 
HETATM   20  N   UNK N   1      35.791  16.006  11.665  0.00  0.00    -0.367 N 
HETATM   21  C   UNK N   1      35.441  14.723  11.938  0.00  0.00     0.039 A 
ATOM     22  HN  UNK N   1      36.320  16.535  12.357  1.00  0.00     0.165 HD
HETATM   23  C   UNK N   1      35.832  14.125  13.246  0.00  0.00     0.071 C 
HETATM   24  C   UNK N   1      34.713  13.972  11.001  0.00  0.00     0.096 A 
HETATM   25  C   UNK N   1      34.351  14.565   9.768  0.00  0.00     0.009 A 
BRANCH  24  26
HETATM   26  O   UNK N   1      34.366  12.705  11.293  0.00  0.00    -0.358 OA
HETATM   27  H   UNK N   1      35.002  12.112  11.642  0.00  0.00     0.217 HD
ENDBRANCH  24  26
BRANCH  25  28
HETATM   28  C   UNK N   1      33.557  13.834   8.701  0.00  0.00     0.206 C 
BRANCH  28  29
HETATM   29  O   UNK N   1      32.321  13.358   9.134  0.00  0.00    -0.396 OA
HETATM   30  H   UNK N   1      31.500  13.643   8.702  0.00  0.00     0.209 HD
ENDBRANCH  28  29
ENDBRANCH  25  28
ENDBRANCH  17  18
ENDBRANCH  16  17
ENDBRANCH   1  16
TORSDOF 11
ENDMDL
MODEL 4
REMARK VINA RESULT:      -6.4      9.143     12.313
REMARK  11 active torsions:
REMARK  status: ('A' for Active; 'I' for Inactive)
REMARK    1  A    between atoms: C_13  and  C_5 
REMARK    2  A    between atoms: O_21  and  C_5 
REMARK    3  A    between atoms: C_14  and  C_6 
REMARK    4  A    between atoms: O_22  and  C_6 
REMARK    5  A    between atoms: C_11  and  C_7 
REMARK    6  A    between atoms: S_25  and  C_7 
REMARK    7  A    between atoms: C_12  and  C_8 
REMARK    8  A    between atoms: S_26  and  C_8 
REMARK    9  A    between atoms: O_23  and  C_15 
REMARK   10  A    between atoms: O_24  and  C_16 
REMARK   11  A    between atoms: S_26  and  S_25 
ROOT
HETATM    1  S   UNK N   1      20.366  14.164   5.845  0.00  0.00    -0.093 SA
ENDROOT
BRANCH   1   2
HETATM    2  C   UNK N   1      21.835  15.143   5.395  0.00  0.00     0.127 C 
BRANCH   2   3
HETATM    3  C   UNK N   1      21.475  16.274   4.495  0.00  0.00    -0.021 A 
HETATM    4  C   UNK N   1      21.200  16.001   3.155  0.00  0.00     0.096 A 
HETATM    5  N   UNK N   1      20.856  17.004   2.309  0.00  0.00    -0.367 N 
HETATM    6  C   UNK N   1      20.764  18.291   2.730  0.00  0.00     0.039 A 
ATOM      7  HN  UNK N   1      20.663  16.786   1.330  1.00  0.00     0.165 HD
HETATM    8  C   UNK N   1      20.375  19.349   1.755  0.00  0.00     0.071 C 
HETATM    9  C   UNK N   1      21.025  18.619   4.070  0.00  0.00     0.096 A 
HETATM   10  C   UNK N   1      21.388  17.595   4.976  0.00  0.00     0.009 A 
BRANCH   9  11
HETATM   11  O   UNK N   1      20.920  19.898   4.473  0.00  0.00    -0.358 OA
HETATM   12  H   UNK N   1      20.324  20.129   5.156  0.00  0.00     0.217 HD
ENDBRANCH   9  11
BRANCH  10  13
HETATM   13  C   UNK N   1      21.679  17.852   6.441  0.00  0.00     0.206 C 
BRANCH  13  14
HETATM   14  O   UNK N   1      20.849  18.806   7.031  0.00  0.00    -0.396 OA
HETATM   15  H   UNK N   1      21.137  19.728   7.119  0.00  0.00     0.209 HD
ENDBRANCH  13  14
ENDBRANCH  10  13
ENDBRANCH   2   3
ENDBRANCH   1   2
BRANCH   1  16
HETATM   16  S   UNK N   1      20.760  14.489   7.899  0.00  0.00    -0.093 SA
BRANCH  16  17
HETATM   17  C   UNK N   1      21.551  12.854   8.020  0.00  0.00     0.127 C 
BRANCH  17  18
HETATM   18  C   UNK N   1      22.067  12.603   9.394  0.00  0.00    -0.021 A 
HETATM   19  C   UNK N   1      21.151  12.373  10.420  0.00  0.00     0.096 A 
HETATM   20  N   UNK N   1      21.584  12.128  11.683  0.00  0.00    -0.367 N 
HETATM   21  C   UNK N   1      22.906  12.093  11.988  0.00  0.00     0.039 A 
ATOM     22  HN  UNK N   1      20.899  11.966  12.421  1.00  0.00     0.165 HD
HETATM   23  C   UNK N   1      23.322  11.813  13.391  0.00  0.00     0.071 C 
HETATM   24  C   UNK N   1      23.870  12.312  10.990  0.00  0.00     0.096 A 
HETATM   25  C   UNK N   1      23.448  12.573   9.665  0.00  0.00     0.009 A 
BRANCH  24  26
HETATM   26  O   UNK N   1      25.176  12.265  11.309  0.00  0.00    -0.358 OA
HETATM   27  H   UNK N   1      25.485  11.642  11.936  0.00  0.00     0.217 HD
ENDBRANCH  24  26
BRANCH  25  28
HETATM   28  C   UNK N   1      24.416  12.811   8.521  0.00  0.00     0.206 C 
BRANCH  28  29
HETATM   29  O   UNK N   1      25.314  13.855   8.741  0.00  0.00    -0.396 OA
HETATM   30  H   UNK N   1      25.093  14.582   9.344  0.00  0.00     0.209 HD
ENDBRANCH  28  29
ENDBRANCH  25  28
ENDBRANCH  17  18
ENDBRANCH  16  17
ENDBRANCH   1  16
TORSDOF 11
ENDMDL
MODEL 5
REMARK VINA RESULT:      -6.4     12.723     16.320
REMARK  11 active torsions:
REMARK  status: ('A' for Active; 'I' for Inactive)
REMARK    1  A    between atoms: C_13  and  C_5 
REMARK    2  A    between atoms: O_21  and  C_5 
REMARK    3  A    between atoms: C_14  and  C_6 
REMARK    4  A    between atoms: O_22  and  C_6 
REMARK    5  A    between atoms: C_11  and  C_7 
REMARK    6  A    between atoms: S_25  and  C_7 
REMARK    7  A    between atoms: C_12  and  C_8 
REMARK    8  A    between atoms: S_26  and  C_8 
REMARK    9  A    between atoms: O_23  and  C_15 
REMARK   10  A    between atoms: O_24  and  C_16 
REMARK   11  A    between atoms: S_26  and  S_25 
ROOT
HETATM    1  S   UNK N   1      28.797  24.954  -7.303  0.00  0.00    -0.093 SA
ENDROOT
BRANCH   1   2
HETATM    2  C   UNK N   1      27.066  25.517  -7.239  0.00  0.00     0.127 C 
BRANCH   2   3
HETATM    3  C   UNK N   1      26.911  26.684  -6.326  0.00  0.00    -0.021 A 
HETATM    4  C   UNK N   1      27.422  27.919  -6.726  0.00  0.00     0.096 A 
HETATM    5  N   UNK N   1      27.289  29.007  -5.927  0.00  0.00    -0.367 N 
HETATM    6  C   UNK N   1      26.658  28.935  -4.727  0.00  0.00     0.039 A 
ATOM      7  HN  UNK N   1      27.673  29.901  -6.235  1.00  0.00     0.165 HD
HETATM    8  C   UNK N   1      26.537  30.166  -3.896  0.00  0.00     0.071 C 
HETATM    9  C   UNK N   1      26.121  27.718  -4.279  0.00  0.00     0.096 A 
HETATM   10  C   UNK N   1      26.247  26.566  -5.090  0.00  0.00     0.009 A 
BRANCH   9  11
HETATM   11  O   UNK N   1      25.492  27.667  -3.092  0.00  0.00    -0.358 OA
HETATM   12  H   UNK N   1      25.810  28.167  -2.368  0.00  0.00     0.217 HD
ENDBRANCH   9  11
BRANCH  10  13
HETATM   13  C   UNK N   1      25.691  25.212  -4.694  0.00  0.00     0.206 C 
BRANCH  13  14
HETATM   14  O   UNK N   1      26.129  24.754  -3.452  0.00  0.00    -0.396 OA
HETATM   15  H   UNK N   1      25.562  24.824  -2.668  0.00  0.00     0.209 HD
ENDBRANCH  13  14
ENDBRANCH  10  13
ENDBRANCH   2   3
ENDBRANCH   1   2
BRANCH   1  16
HETATM   16  S   UNK N   1      28.195  22.994  -6.776  0.00  0.00    -0.093 SA
BRANCH  16  17
HETATM   17  C   UNK N   1      28.857  23.227  -5.097  0.00  0.00     0.127 C 
BRANCH  17  18
HETATM   18  C   UNK N   1      29.960  22.268  -4.813  0.00  0.00    -0.021 A 
HETATM   19  C   UNK N   1      30.299  21.333  -5.789  0.00  0.00     0.096 A 
HETATM   20  N   UNK N   1      31.308  20.450  -5.573  0.00  0.00    -0.367 N 
HETATM   21  C   UNK N   1      32.016  20.450  -4.414  0.00  0.00     0.039 A 
ATOM     22  HN  UNK N   1      31.538  19.770  -6.297  1.00  0.00     0.165 HD
HETATM   23  C   UNK N   1      33.117  19.461  -4.235  0.00  0.00     0.071 C 
HETATM   24  C   UNK N   1      31.719  21.375  -3.401  0.00  0.00     0.096 A 
HETATM   25  C   UNK N   1      30.671  22.305  -3.598  0.00  0.00     0.009 A 
BRANCH  24  26
HETATM   26  O   UNK N   1      32.437  21.367  -2.264  0.00  0.00    -0.358 OA
HETATM   27  H   UNK N   1      32.285  22.017  -1.607  0.00  0.00     0.217 HD
ENDBRANCH  24  26
BRANCH  25  28
HETATM   28  C   UNK N   1      30.285  23.347  -2.565  0.00  0.00     0.206 C 
BRANCH  28  29
HETATM   29  O   UNK N   1      30.484  22.945  -1.245  0.00  0.00    -0.396 OA
HETATM   30  H   UNK N   1      30.969  22.129  -1.042  0.00  0.00     0.209 HD
ENDBRANCH  28  29
ENDBRANCH  25  28
ENDBRANCH  17  18
ENDBRANCH  16  17
ENDBRANCH   1  16
TORSDOF 11
ENDMDL
MODEL 6
REMARK VINA RESULT:      -6.3      2.325      2.888
REMARK  11 active torsions:
REMARK  status: ('A' for Active; 'I' for Inactive)
REMARK    1  A    between atoms: C_13  and  C_5 
REMARK    2  A    between atoms: O_21  and  C_5 
REMARK    3  A    between atoms: C_14  and  C_6 
REMARK    4  A    between atoms: O_22  and  C_6 
REMARK    5  A    between atoms: C_11  and  C_7 
REMARK    6  A    between atoms: S_25  and  C_7 
REMARK    7  A    between atoms: C_12  and  C_8 
REMARK    8  A    between atoms: S_26  and  C_8 
REMARK    9  A    between atoms: O_23  and  C_15 
REMARK   10  A    between atoms: O_24  and  C_16 
REMARK   11  A    between atoms: S_26  and  S_25 
ROOT
HETATM    1  S   UNK N   1      33.586  17.161   8.346  0.00  0.00    -0.093 SA
ENDROOT
BRANCH   1   2
HETATM    2  C   UNK N   1      34.771  15.778   8.330  0.00  0.00     0.127 C 
BRANCH   2   3
HETATM    3  C   UNK N   1      35.110  15.342   9.713  0.00  0.00    -0.021 A 
HETATM    4  C   UNK N   1      36.037  16.088  10.441  0.00  0.00     0.096 A 
HETATM    5  N   UNK N   1      36.362  15.730  11.708  0.00  0.00    -0.367 N 
HETATM    6  C   UNK N   1      35.801  14.648  12.308  0.00  0.00     0.039 A 
ATOM      7  HN  UNK N   1      37.045  16.286  12.224  1.00  0.00     0.165 HD
HETATM    8  C   UNK N   1      36.193  14.308  13.705  0.00  0.00     0.071 C 
HETATM    9  C   UNK N   1      34.859  13.866  11.622  0.00  0.00     0.096 A 
HETATM   10  C   UNK N   1      34.502  14.214  10.298  0.00  0.00     0.009 A 
BRANCH   9  11
HETATM   11  O   UNK N   1      34.307  12.804  12.234  0.00  0.00    -0.358 OA
HETATM   12  H   UNK N   1      34.485  11.937  11.927  0.00  0.00     0.217 HD
ENDBRANCH   9  11
BRANCH  10  13
HETATM   13  C   UNK N   1      33.488  13.435   9.483  0.00  0.00     0.206 C 
BRANCH  13  14
HETATM   14  O   UNK N   1      33.518  12.057   9.698  0.00  0.00    -0.396 OA
HETATM   15  H   UNK N   1      32.696  11.555   9.810  0.00  0.00     0.209 HD
ENDBRANCH  13  14
ENDBRANCH  10  13
ENDBRANCH   2   3
ENDBRANCH   1   2
BRANCH   1  16
HETATM   16  S   UNK N   1      32.372  16.158   6.931  0.00  0.00    -0.093 SA
BRANCH  16  17
HETATM   17  C   UNK N   1      30.875  16.697   7.814  0.00  0.00     0.127 C 
BRANCH  17  18
HETATM   18  C   UNK N   1      29.961  17.455   6.914  0.00  0.00    -0.021 A 
HETATM   19  C   UNK N   1      30.149  17.359   5.537  0.00  0.00     0.096 A 
HETATM   20  N   UNK N   1      29.328  18.025   4.684  0.00  0.00    -0.367 N 
HETATM   21  C   UNK N   1      28.304  18.794   5.137  0.00  0.00     0.039 A 
ATOM     22  HN  UNK N   1      29.484  17.946   3.680  1.00  0.00     0.165 HD
HETATM   23  C   UNK N   1      27.432  19.497   4.155  0.00  0.00     0.071 C 
HETATM   24  C   UNK N   1      28.069  18.919   6.516  0.00  0.00     0.096 A 
HETATM   25  C   UNK N   1      28.910  18.239   7.428  0.00  0.00     0.009 A 
BRANCH  24  26
HETATM   26  O   UNK N   1      27.045  19.678   6.946  0.00  0.00    -0.358 OA
HETATM   27  H   UNK N   1      26.195  19.584   6.563  0.00  0.00     0.217 HD
ENDBRANCH  24  26
BRANCH  25  28
HETATM   28  C   UNK N   1      28.725  18.308   8.932  0.00  0.00     0.206 C 
BRANCH  28  29
HETATM   29  O   UNK N   1      27.409  18.125   9.356  0.00  0.00    -0.396 OA
HETATM   30  H   UNK N   1      27.067  18.598  10.131  0.00  0.00     0.209 HD
ENDBRANCH  28  29
ENDBRANCH  25  28
ENDBRANCH  17  18
ENDBRANCH  16  17
ENDBRANCH   1  16
TORSDOF 11
ENDMDL
MODEL 7
REMARK VINA RESULT:      -6.3      1.972      7.972
REMARK  11 active torsions:
REMARK  status: ('A' for Active; 'I' for Inactive)
REMARK    1  A    between atoms: C_13  and  C_5 
REMARK    2  A    between atoms: O_21  and  C_5 
REMARK    3  A    between atoms: C_14  and  C_6 
REMARK    4  A    between atoms: O_22  and  C_6 
REMARK    5  A    between atoms: C_11  and  C_7 
REMARK    6  A    between atoms: S_25  and  C_7 
REMARK    7  A    between atoms: C_12  and  C_8 
REMARK    8  A    between atoms: S_26  and  C_8 
REMARK    9  A    between atoms: O_23  and  C_15 
REMARK   10  A    between atoms: O_24  and  C_16 
REMARK   11  A    between atoms: S_26  and  S_25 
ROOT
HETATM    1  S   UNK N   1      31.125  16.484   7.360  0.00  0.00    -0.093 SA
ENDROOT
BRANCH   1   2
HETATM    2  C   UNK N   1      29.512  16.217   6.558  0.00  0.00     0.127 C 
BRANCH   2   3
HETATM    3  C   UNK N   1      28.808  17.507   6.318  0.00  0.00    -0.021 A 
HETATM    4  C   UNK N   1      28.352  18.234   7.418  0.00  0.00     0.096 A 
HETATM    5  N   UNK N   1      27.718  19.420   7.239  0.00  0.00    -0.367 N 
HETATM    6  C   UNK N   1      27.510  19.937   6.001  0.00  0.00     0.039 A 
ATOM      7  HN  UNK N   1      27.388  19.937   8.056  1.00  0.00     0.165 HD
HETATM    8  C   UNK N   1      26.813  21.247   5.869  0.00  0.00     0.071 C 
HETATM    9  C   UNK N   1      27.953  19.248   4.861  0.00  0.00     0.096 A 
HETATM   10  C   UNK N   1      28.616  18.007   5.016  0.00  0.00     0.009 A 
BRANCH   9  11
HETATM   11  O   UNK N   1      27.747  19.778   3.643  0.00  0.00    -0.358 OA
HETATM   12  H   UNK N   1      27.940  20.680   3.483  0.00  0.00     0.217 HD
ENDBRANCH   9  11
BRANCH  10  13
HETATM   13  C   UNK N   1      29.137  17.197   3.845  0.00  0.00     0.206 C 
BRANCH  13  14
HETATM   14  O   UNK N   1      28.141  16.681   3.016  0.00  0.00    -0.396 OA
HETATM   15  H   UNK N   1      27.258  16.485   3.366  0.00  0.00     0.209 HD
ENDBRANCH  13  14
ENDBRANCH  10  13
ENDBRANCH   2   3
ENDBRANCH   1   2
BRANCH   1  16
HETATM   16  S   UNK N   1      32.107  15.555   5.731  0.00  0.00    -0.093 SA
BRANCH  16  17
HETATM   17  C   UNK N   1      33.627  16.487   6.098  0.00  0.00     0.127 C 
BRANCH  17  18
HETATM   18  C   UNK N   1      34.239  16.038   7.379  0.00  0.00    -0.021 A 
HETATM   19  C   UNK N   1      34.495  14.680   7.558  0.00  0.00     0.096 A 
HETATM   20  N   UNK N   1      35.064  14.234   8.707  0.00  0.00    -0.367 N 
HETATM   21  C   UNK N   1      35.404  15.085   9.709  0.00  0.00     0.039 A 
ATOM     22  HN  UNK N   1      35.239  13.236   8.822  1.00  0.00     0.165 HD
HETATM   23  C   UNK N   1      36.032  14.540  10.945  0.00  0.00     0.071 C 
HETATM   24  C   UNK N   1      35.174  16.464   9.577  0.00  0.00     0.096 A 
HETATM   25  C   UNK N   1      34.579  16.957   8.391  0.00  0.00     0.009 A 
BRANCH  24  26
HETATM   26  O   UNK N   1      35.526  17.294  10.575  0.00  0.00    -0.358 OA
HETATM   27  H   UNK N   1      36.281  17.108  11.097  0.00  0.00     0.217 HD
ENDBRANCH  24  26
BRANCH  25  28
HETATM   28  C   UNK N   1      34.301  18.430   8.156  0.00  0.00     0.206 C 
BRANCH  28  29
HETATM   29  O   UNK N   1      35.350  19.274   8.516  0.00  0.00    -0.396 OA
HETATM   30  H   UNK N   1      35.743  19.229   9.403  0.00  0.00     0.209 HD
ENDBRANCH  28  29
ENDBRANCH  25  28
ENDBRANCH  17  18
ENDBRANCH  16  17
ENDBRANCH   1  16
TORSDOF 11
ENDMDL
MODEL 8
REMARK VINA RESULT:      -6.2      3.793      9.506
REMARK  11 active torsions:
REMARK  status: ('A' for Active; 'I' for Inactive)
REMARK    1  A    between atoms: C_13  and  C_5 
REMARK    2  A    between atoms: O_21  and  C_5 
REMARK    3  A    between atoms: C_14  and  C_6 
REMARK    4  A    between atoms: O_22  and  C_6 
REMARK    5  A    between atoms: C_11  and  C_7 
REMARK    6  A    between atoms: S_25  and  C_7 
REMARK    7  A    between atoms: C_12  and  C_8 
REMARK    8  A    between atoms: S_26  and  C_8 
REMARK    9  A    between atoms: O_23  and  C_15 
REMARK   10  A    between atoms: O_24  and  C_16 
REMARK   11  A    between atoms: S_26  and  S_25 
ROOT
HETATM    1  S   UNK N   1      25.241  16.294   5.527  0.00  0.00    -0.093 SA
ENDROOT
BRANCH   1   2
HETATM    2  C   UNK N   1      25.361  17.852   4.593  0.00  0.00     0.127 C 
BRANCH   2   3
HETATM    3  C   UNK N   1      24.018  18.326   4.158  0.00  0.00    -0.021 A 
HETATM    4  C   UNK N   1      22.914  17.503   4.380  0.00  0.00     0.096 A 
HETATM    5  N   UNK N   1      21.673  17.906   4.010  0.00  0.00    -0.367 N 
HETATM    6  C   UNK N   1      21.463  19.111   3.421  0.00  0.00     0.039 A 
ATOM      7  HN  UNK N   1      20.878  17.288   4.176  1.00  0.00     0.165 HD
HETATM    8  C   UNK N   1      20.075  19.502   3.042  0.00  0.00     0.071 C 
HETATM    9  C   UNK N   1      22.538  19.981   3.180  0.00  0.00     0.096 A 
HETATM   10  C   UNK N   1      23.845  19.586   3.554  0.00  0.00     0.009 A 
BRANCH   9  11
HETATM   11  O   UNK N   1      22.310  21.174   2.605  0.00  0.00    -0.358 OA
HETATM   12  H   UNK N   1      21.558  21.677   2.844  0.00  0.00     0.217 HD
ENDBRANCH   9  11
BRANCH  10  13
HETATM   13  C   UNK N   1      25.064  20.462   3.342  0.00  0.00     0.206 C 
BRANCH  13  14
HETATM   14  O   UNK N   1      25.236  20.896   2.028  0.00  0.00    -0.396 OA
HETATM   15  H   UNK N   1      25.289  21.842   1.821  0.00  0.00     0.209 HD
ENDBRANCH  13  14
ENDBRANCH  10  13
ENDBRANCH   2   3
ENDBRANCH   1   2
BRANCH   1  16
HETATM   16  S   UNK N   1      27.243  15.821   5.026  0.00  0.00    -0.093 SA
BRANCH  16  17
HETATM   17  C   UNK N   1      27.785  17.466   5.584  0.00  0.00     0.127 C 
BRANCH  17  18
HETATM   18  C   UNK N   1      29.041  17.380   6.380  0.00  0.00    -0.021 A 
HETATM   19  C   UNK N   1      30.137  16.718   5.828  0.00  0.00     0.096 A 
HETATM   20  N   UNK N   1      31.304  16.630   6.517  0.00  0.00    -0.367 N 
HETATM   21  C   UNK N   1      31.444  17.181   7.751  0.00  0.00     0.039 A 
ATOM     22  HN  UNK N   1      32.093  16.138   6.100  1.00  0.00     0.165 HD
HETATM   23  C   UNK N   1      32.750  17.058   8.457  0.00  0.00     0.071 C 
HETATM   24  C   UNK N   1      30.373  17.863   8.349  0.00  0.00     0.096 A 
HETATM   25  C   UNK N   1      29.144  17.968   7.654  0.00  0.00     0.009 A 
BRANCH  24  26
HETATM   26  O   UNK N   1      30.533  18.410   9.567  0.00  0.00    -0.358 OA
HETATM   27  H   UNK N   1      31.148  19.105   9.694  0.00  0.00     0.217 HD
ENDBRANCH  24  26
BRANCH  25  28
HETATM   28  C   UNK N   1      27.937  18.694   8.217  0.00  0.00     0.206 C 
BRANCH  28  29
HETATM   29  O   UNK N   1      27.478  18.186   9.431  0.00  0.00    -0.396 OA
HETATM   30  H   UNK N   1      27.353  17.232   9.556  0.00  0.00     0.209 HD
ENDBRANCH  28  29
ENDBRANCH  25  28
ENDBRANCH  17  18
ENDBRANCH  16  17
ENDBRANCH   1  16
TORSDOF 11
ENDMDL
MODEL 9
REMARK VINA RESULT:      -6.2      3.470      5.626
REMARK  11 active torsions:
REMARK  status: ('A' for Active; 'I' for Inactive)
REMARK    1  A    between atoms: C_13  and  C_5 
REMARK    2  A    between atoms: O_21  and  C_5 
REMARK    3  A    between atoms: C_14  and  C_6 
REMARK    4  A    between atoms: O_22  and  C_6 
REMARK    5  A    between atoms: C_11  and  C_7 
REMARK    6  A    between atoms: S_25  and  C_7 
REMARK    7  A    between atoms: C_12  and  C_8 
REMARK    8  A    between atoms: S_26  and  C_8 
REMARK    9  A    between atoms: O_23  and  C_15 
REMARK   10  A    between atoms: O_24  and  C_16 
REMARK   11  A    between atoms: S_26  and  S_25 
ROOT
HETATM    1  S   UNK N   1      27.606  15.428   5.009  0.00  0.00    -0.093 SA
ENDROOT
BRANCH   1   2
HETATM    2  C   UNK N   1      28.000  17.144   5.472  0.00  0.00     0.127 C 
BRANCH   2   3
HETATM    3  C   UNK N   1      29.228  17.209   6.311  0.00  0.00    -0.021 A 
HETATM    4  C   UNK N   1      30.470  17.233   5.677  0.00  0.00     0.096 A 
HETATM    5  N   UNK N   1      31.611  17.305   6.408  0.00  0.00    -0.367 N 
HETATM    6  C   UNK N   1      31.585  17.360   7.764  0.00  0.00     0.039 A 
ATOM      7  HN  UNK N   1      32.511  17.317   5.926  1.00  0.00     0.165 HD
HETATM    8  C   UNK N   1      32.871  17.444   8.512  0.00  0.00     0.071 C 
HETATM    9  C   UNK N   1      30.361  17.344   8.452  0.00  0.00     0.096 A 
HETATM   10  C   UNK N   1      29.155  17.267   7.716  0.00  0.00     0.009 A 
BRANCH   9  11
HETATM   11  O   UNK N   1      30.354  17.408   9.794  0.00  0.00    -0.358 OA
HETATM   12  H   UNK N   1      31.092  17.107  10.285  0.00  0.00     0.217 HD
ENDBRANCH   9  11
BRANCH  10  13
HETATM   13  C   UNK N   1      27.787  17.254   8.371  0.00  0.00     0.206 C 
BRANCH  13  14
HETATM   14  O   UNK N   1      27.561  18.316   9.245  0.00  0.00    -0.396 OA
HETATM   15  H   UNK N   1      26.757  18.854   9.175  0.00  0.00     0.209 HD
ENDBRANCH  13  14
ENDBRANCH  10  13
ENDBRANCH   2   3
ENDBRANCH   1   2
BRANCH   1  16
HETATM   16  S   UNK N   1      26.206  16.118   3.579  0.00  0.00    -0.093 SA
BRANCH  16  17
HETATM   17  C   UNK N   1      25.824  17.556   4.626  0.00  0.00     0.127 C 
BRANCH  17  18
HETATM   18  C   UNK N   1      24.536  18.189   4.227  0.00  0.00    -0.021 A 
HETATM   19  C   UNK N   1      23.352  17.486   4.443  0.00  0.00     0.096 A 
HETATM   20  N   UNK N   1      22.157  18.035   4.105  0.00  0.00    -0.367 N 
HETATM   21  C   UNK N   1      22.074  19.274   3.555  0.00  0.00     0.039 A 
ATOM     22  HN  UNK N   1      21.302  17.504   4.266  1.00  0.00     0.165 HD
HETATM   23  C   UNK N   1      20.734  19.828   3.209  0.00  0.00     0.071 C 
HETATM   24  C   UNK N   1      23.236  20.026   3.322  0.00  0.00     0.096 A 
HETATM   25  C   UNK N   1      24.496  19.478   3.663  0.00  0.00     0.009 A 
BRANCH  24  26
HETATM   26  O   UNK N   1      23.134  21.255   2.786  0.00  0.00    -0.358 OA
HETATM   27  H   UNK N   1      23.752  21.921   3.014  0.00  0.00     0.217 HD
ENDBRANCH  24  26
BRANCH  25  28
HETATM   28  C   UNK N   1      25.803  20.220   3.457  0.00  0.00     0.206 C 
BRANCH  28  29
HETATM   29  O   UNK N   1      25.865  20.952   2.272  0.00  0.00    -0.396 OA
HETATM   30  H   UNK N   1      26.611  20.846   1.661  0.00  0.00     0.209 HD
ENDBRANCH  28  29
ENDBRANCH  25  28
ENDBRANCH  17  18
ENDBRANCH  16  17
ENDBRANCH   1  16
TORSDOF 11
ENDMDL
