MODEL 1
REMARK VINA RESULT:      -4.8      0.000      0.000
REMARK  14 active torsions:
REMARK  status: ('A' for Active; 'I' for Inactive)
REMARK    1  A    between atoms: C_2  and  C_26 
REMARK    2  A    between atoms: C_5  and  C_8 
REMARK    3  A    between atoms: C_12  and  O_15 
REMARK    4  A    between atoms: C_13  and  O_14 
REMARK    5  A    between atoms: O_15  and  C_16 
REMARK    6  A    between atoms: C_16  and  C_17 
REMARK    7  A    between atoms: C_17  and  O_18 
REMARK    8  A    between atoms: O_18  and  C_19 
REMARK    9  A    between atoms: C_19  and  C_20 
REMARK   10  A    between atoms: C_20  and  O_21 
REMARK   11  A    between atoms: O_21  and  C_22 
REMARK   12  A    between atoms: C_22  and  C_23 
REMARK   13  A    between atoms: C_23  and  O_24 
REMARK   14  A    between atoms: C_26  and  O_28 
ROOT
HETATM    1  C   UNK N   1      28.066  23.148  -6.064  0.00  0.00     0.033 A 
HETATM    2  C   UNK N   1      27.816  22.720  -7.378  0.00  0.00     0.017 A 
HETATM    3  C   UNK N   1      26.661  23.118  -8.049  0.00  0.00     0.004 A 
HETATM    4  C   UNK N   1      25.756  23.979  -7.432  0.00  0.00     0.040 A 
HETATM    5  C   UNK N   1      25.991  24.449  -6.135  0.00  0.00     0.102 A 
HETATM    6  C   UNK N   1      27.141  24.010  -5.437  0.00  0.00     0.112 A 
ENDROOT
BRANCH   1   7
HETATM    7  C   UNK N   1      29.333  22.735  -5.402  0.00  0.00     0.080 C 
HETATM    8  S   UNK N   1      30.055  21.121  -5.647  0.00  0.00    -0.109 SA
HETATM    9  C   UNK N   1      31.634  21.882  -5.140  0.00  0.00     0.122 C 
HETATM   10  C   UNK N   1      31.301  23.077  -4.248  0.00  0.00     0.121 C 
HETATM   11  C   UNK N   1      32.333  24.165  -4.483  0.00  0.00     0.051 C 
HETATM   12  N   UNK N   1      30.014  23.545  -4.681  0.00  0.00    -0.365 N 
ATOM     13  HN  UNK N   1      29.664  24.470  -4.429  1.00  0.00     0.161 HD
BRANCH  10  14
HETATM   14  C   UNK N   1      31.276  22.700  -2.786  0.00  0.00     0.169 C 
HETATM   15  O   UNK N   1      31.960  21.776  -2.378  0.00  0.00    -0.648 OA
BRANCH  14  16
HETATM   16  O   UNK N   1      30.485  23.370  -1.922  0.00  0.00    -0.775 OA
HETATM   17  H   UNK N   1      30.813  23.898  -1.221  0.00  0.00     0.167 HD
ENDBRANCH  14  16
ENDBRANCH  10  14
ENDBRANCH   1   7
BRANCH   6  18
HETATM   18  O   UNK N   1      27.363  24.431  -4.175  0.00  0.00    -0.357 OA
HETATM   19  H   UNK N   1      26.886  24.061  -3.458  0.00  0.00     0.217 HD
ENDBRANCH   6  18
BRANCH   5  20
HETATM   20  O   UNK N   1      25.110  25.331  -5.607  0.00  0.00    -0.346 OA
BRANCH  20  21
HETATM   21  C   UNK N   1      25.090  26.674  -5.927  0.00  0.00     0.201 C 
BRANCH  21  22
HETATM   22  C   UNK N   1      25.233  27.548  -4.685  0.00  0.00     0.194 C 
BRANCH  22  23
HETATM   23  O   UNK N   1      26.017  26.924  -3.706  0.00  0.00    -0.387 OA
BRANCH  23  24
HETATM   24  C   UNK N   1      26.819  27.931  -3.163  0.00  0.00     0.193 C 
BRANCH  24  25
HETATM   25  C   UNK N   1      28.031  28.134  -4.056  0.00  0.00     0.193 C 
BRANCH  25  26
HETATM   26  O   UNK N   1      28.786  26.961  -4.089  0.00  0.00    -0.387 OA
BRANCH  26  27
HETATM   27  C   UNK N   1      29.523  27.022  -5.275  0.00  0.00     0.193 C 
BRANCH  27  28
HETATM   28  C   UNK N   1      28.670  27.622  -6.378  0.00  0.00     0.193 C 
BRANCH  28  29
HETATM   29  O   UNK N   1      28.392  26.656  -7.342  0.00  0.00    -0.394 OA
HETATM   30  C   UNK N   1      29.633  26.091  -7.626  0.00  0.00     0.201 C 
ENDBRANCH  28  29
ENDBRANCH  27  28
ENDBRANCH  26  27
ENDBRANCH  25  26
ENDBRANCH  24  25
ENDBRANCH  23  24
ENDBRANCH  22  23
ENDBRANCH  21  22
ENDBRANCH  20  21
ENDBRANCH   5  20
TORSDOF 14
ENDMDL
MODEL 2
REMARK VINA RESULT:      -4.8     11.911     14.566
REMARK  14 active torsions:
REMARK  status: ('A' for Active; 'I' for Inactive)
REMARK    1  A    between atoms: C_2  and  C_26 
REMARK    2  A    between atoms: C_5  and  C_8 
REMARK    3  A    between atoms: C_12  and  O_15 
REMARK    4  A    between atoms: C_13  and  O_14 
REMARK    5  A    between atoms: O_15  and  C_16 
REMARK    6  A    between atoms: C_16  and  C_17 
REMARK    7  A    between atoms: C_17  and  O_18 
REMARK    8  A    between atoms: O_18  and  C_19 
REMARK    9  A    between atoms: C_19  and  C_20 
REMARK   10  A    between atoms: C_20  and  O_21 
REMARK   11  A    between atoms: O_21  and  C_22 
REMARK   12  A    between atoms: C_22  and  C_23 
REMARK   13  A    between atoms: C_23  and  O_24 
REMARK   14  A    between atoms: C_26  and  O_28 
ROOT
HETATM    1  C   UNK N   1      23.793  18.880   4.210  0.00  0.00     0.033 A 
HETATM    2  C   UNK N   1      23.552  19.952   3.336  0.00  0.00     0.017 A 
HETATM    3  C   UNK N   1      24.610  20.634   2.737  0.00  0.00     0.004 A 
HETATM    4  C   UNK N   1      25.923  20.234   2.974  0.00  0.00     0.040 A 
HETATM    5  C   UNK N   1      26.197  19.150   3.816  0.00  0.00     0.102 A 
HETATM    6  C   UNK N   1      25.126  18.484   4.458  0.00  0.00     0.112 A 
ENDROOT
BRANCH   1   7
HETATM    7  C   UNK N   1      22.635  18.151   4.792  0.00  0.00     0.080 C 
HETATM    8  S   UNK N   1      21.163  17.790   3.847  0.00  0.00    -0.109 SA
HETATM    9  C   UNK N   1      20.866  16.448   5.047  0.00  0.00     0.122 C 
HETATM   10  C   UNK N   1      21.553  16.841   6.354  0.00  0.00     0.121 C 
HETATM   11  C   UNK N   1      22.076  15.586   7.028  0.00  0.00     0.051 C 
HETATM   12  N   UNK N   1      22.663  17.674   5.980  0.00  0.00    -0.365 N 
ATOM     13  HN  UNK N   1      23.429  17.872   6.624  1.00  0.00     0.161 HD
BRANCH  10  14
HETATM   14  C   UNK N   1      20.617  17.573   7.286  0.00  0.00     0.169 C 
HETATM   15  O   UNK N   1      19.695  16.980   7.820  0.00  0.00    -0.648 OA
BRANCH  14  16
HETATM   16  O   UNK N   1      20.783  18.891   7.522  0.00  0.00    -0.775 OA
HETATM   17  H   UNK N   1      21.520  19.248   7.978  0.00  0.00     0.167 HD
ENDBRANCH  14  16
ENDBRANCH  10  14
ENDBRANCH   1   7
BRANCH   6  18
HETATM   18  O   UNK N   1      25.378  17.458   5.295  0.00  0.00    -0.357 OA
HETATM   19  H   UNK N   1      25.100  16.589   5.083  0.00  0.00     0.217 HD
ENDBRANCH   6  18
BRANCH   5  20
HETATM   20  O   UNK N   1      27.487  18.766   3.962  0.00  0.00    -0.346 OA
BRANCH  20  21
HETATM   21  C   UNK N   1      28.289  19.174   5.010  0.00  0.00     0.201 C 
BRANCH  21  22
HETATM   22  C   UNK N   1      28.997  17.994   5.666  0.00  0.00     0.194 C 
BRANCH  22  23
HETATM   23  O   UNK N   1      28.542  17.784   6.974  0.00  0.00    -0.387 OA
BRANCH  23  24
HETATM   24  C   UNK N   1      29.670  17.431   7.718  0.00  0.00     0.193 C 
BRANCH  24  25
HETATM   25  C   UNK N   1      30.677  16.758   6.800  0.00  0.00     0.193 C 
BRANCH  25  26
HETATM   26  O   UNK N   1      31.601  16.047   7.566  0.00  0.00    -0.387 OA
BRANCH  26  27
HETATM   27  C   UNK N   1      32.809  16.128   6.869  0.00  0.00     0.193 C 
BRANCH  27  28
HETATM   28  C   UNK N   1      33.150  17.584   6.604  0.00  0.00     0.193 C 
BRANCH  28  29
HETATM   29  O   UNK N   1      34.497  17.812   6.876  0.00  0.00    -0.394 OA
HETATM   30  C   UNK N   1      34.498  18.362   8.157  0.00  0.00     0.201 C 
ENDBRANCH  28  29
ENDBRANCH  27  28
ENDBRANCH  26  27
ENDBRANCH  25  26
ENDBRANCH  24  25
ENDBRANCH  23  24
ENDBRANCH  22  23
ENDBRANCH  21  22
ENDBRANCH  20  21
ENDBRANCH   5  20
TORSDOF 14
ENDMDL
MODEL 3
REMARK VINA RESULT:      -4.8     13.979     15.876
REMARK  14 active torsions:
REMARK  status: ('A' for Active; 'I' for Inactive)
REMARK    1  A    between atoms: C_2  and  C_26 
REMARK    2  A    between atoms: C_5  and  C_8 
REMARK    3  A    between atoms: C_12  and  O_15 
REMARK    4  A    between atoms: C_13  and  O_14 
REMARK    5  A    between atoms: O_15  and  C_16 
REMARK    6  A    between atoms: C_16  and  C_17 
REMARK    7  A    between atoms: C_17  and  O_18 
REMARK    8  A    between atoms: O_18  and  C_19 
REMARK    9  A    between atoms: C_19  and  C_20 
REMARK   10  A    between atoms: C_20  and  O_21 
REMARK   11  A    between atoms: O_21  and  C_22 
REMARK   12  A    between atoms: C_22  and  C_23 
REMARK   13  A    between atoms: C_23  and  O_24 
REMARK   14  A    between atoms: C_26  and  O_28 
ROOT
HETATM    1  C   UNK N   1      24.129  18.936   4.440  0.00  0.00     0.033 A 
HETATM    2  C   UNK N   1      23.538  19.815   3.519  0.00  0.00     0.017 A 
HETATM    3  C   UNK N   1      22.193  19.688   3.174  0.00  0.00     0.004 A 
HETATM    4  C   UNK N   1      21.409  18.703   3.771  0.00  0.00     0.040 A 
HETATM    5  C   UNK N   1      21.959  17.830   4.717  0.00  0.00     0.102 A 
HETATM    6  C   UNK N   1      23.335  17.931   5.035  0.00  0.00     0.112 A 
ENDROOT
BRANCH   1   7
HETATM    7  C   UNK N   1      25.555  19.136   4.814  0.00  0.00     0.080 C 
HETATM    8  S   UNK N   1      26.898  18.554   3.791  0.00  0.00    -0.109 SA
HETATM    9  C   UNK N   1      27.921  19.814   4.627  0.00  0.00     0.122 C 
HETATM   10  C   UNK N   1      27.299  20.073   5.998  0.00  0.00     0.121 C 
HETATM   11  C   UNK N   1      27.493  21.536   6.354  0.00  0.00     0.051 C 
HETATM   12  N   UNK N   1      25.895  19.805   5.851  0.00  0.00    -0.365 N 
ATOM     13  HN  UNK N   1      25.210  20.130   6.533  1.00  0.00     0.161 HD
BRANCH  10  14
HETATM   14  C   UNK N   1      27.907  19.198   7.068  0.00  0.00     0.169 C 
HETATM   15  O   UNK N   1      28.766  18.381   6.777  0.00  0.00    -0.648 OA
BRANCH  14  16
HETATM   16  O   UNK N   1      27.495  19.300   8.348  0.00  0.00    -0.775 OA
HETATM   17  H   UNK N   1      27.410  18.567   8.925  0.00  0.00     0.167 HD
ENDBRANCH  14  16
ENDBRANCH  10  14
ENDBRANCH   1   7
BRANCH   6  18
HETATM   18  O   UNK N   1      23.884  17.076   5.920  0.00  0.00    -0.357 OA
HETATM   19  H   UNK N   1      23.530  16.217   6.037  0.00  0.00     0.217 HD
ENDBRANCH   6  18
BRANCH   5  20
HETATM   20  O   UNK N   1      21.138  16.932   5.310  0.00  0.00    -0.346 OA
BRANCH  20  21
HETATM   21  C   UNK N   1      20.634  17.086   6.586  0.00  0.00     0.201 C 
BRANCH  21  22
HETATM   22  C   UNK N   1      20.664  15.774   7.362  0.00  0.00     0.194 C 
BRANCH  22  23
HETATM   23  O   UNK N   1      20.684  15.995   8.746  0.00  0.00    -0.387 OA
BRANCH  23  24
HETATM   24  C   UNK N   1      20.430  14.755   9.334  0.00  0.00     0.193 C 
BRANCH  24  25
HETATM   25  C   UNK N   1      21.102  13.669   8.510  0.00  0.00     0.193 C 
BRANCH  25  26
HETATM   26  O   UNK N   1      21.141  12.484   9.245  0.00  0.00    -0.387 OA
BRANCH  26  27
HETATM   27  C   UNK N   1      21.849  12.787  10.411  0.00  0.00     0.193 C 
BRANCH  27  28
HETATM   28  C   UNK N   1      23.340  12.748  10.128  0.00  0.00     0.193 C 
BRANCH  28  29
HETATM   29  O   UNK N   1      23.984  11.966  11.084  0.00  0.00    -0.394 OA
HETATM   30  C   UNK N   1      23.099  11.946  12.161  0.00  0.00     0.201 C 
ENDBRANCH  28  29
ENDBRANCH  27  28
ENDBRANCH  26  27
ENDBRANCH  25  26
ENDBRANCH  24  25
ENDBRANCH  23  24
ENDBRANCH  22  23
ENDBRANCH  21  22
ENDBRANCH  20  21
ENDBRANCH   5  20
TORSDOF 14
ENDMDL
MODEL 4
REMARK VINA RESULT:      -4.8     11.708     14.581
REMARK  14 active torsions:
REMARK  status: ('A' for Active; 'I' for Inactive)
REMARK    1  A    between atoms: C_2  and  C_26 
REMARK    2  A    between atoms: C_5  and  C_8 
REMARK    3  A    between atoms: C_12  and  O_15 
REMARK    4  A    between atoms: C_13  and  O_14 
REMARK    5  A    between atoms: O_15  and  C_16 
REMARK    6  A    between atoms: C_16  and  C_17 
REMARK    7  A    between atoms: C_17  and  O_18 
REMARK    8  A    between atoms: O_18  and  C_19 
REMARK    9  A    between atoms: C_19  and  C_20 
REMARK   10  A    between atoms: C_20  and  O_21 
REMARK   11  A    between atoms: O_21  and  C_22 
REMARK   12  A    between atoms: C_22  and  C_23 
REMARK   13  A    between atoms: C_23  and  O_24 
REMARK   14  A    between atoms: C_26  and  O_28 
ROOT
HETATM    1  C   UNK N   1      24.108  19.213   3.802  0.00  0.00     0.033 A 
HETATM    2  C   UNK N   1      24.637  20.215   2.972  0.00  0.00     0.017 A 
HETATM    3  C   UNK N   1      25.965  20.618   3.099  0.00  0.00     0.004 A 
HETATM    4  C   UNK N   1      26.795  20.002   4.033  0.00  0.00     0.040 A 
HETATM    5  C   UNK N   1      26.309  18.978   4.854  0.00  0.00     0.102 A 
HETATM    6  C   UNK N   1      24.949  18.599   4.755  0.00  0.00     0.112 A 
ENDROOT
BRANCH   1   7
HETATM    7  C   UNK N   1      22.698  18.782   3.602  0.00  0.00     0.080 C 
HETATM    8  S   UNK N   1      21.389  19.941   3.240  0.00  0.00    -0.109 SA
HETATM    9  C   UNK N   1      20.490  18.521   2.531  0.00  0.00     0.122 C 
HETATM   10  C   UNK N   1      21.007  17.260   3.221  0.00  0.00     0.121 C 
HETATM   11  C   UNK N   1      21.000  16.118   2.221  0.00  0.00     0.051 C 
HETATM   12  N   UNK N   1      22.362  17.547   3.601  0.00  0.00    -0.365 N 
ATOM     13  HN  UNK N   1      23.019  16.808   3.855  1.00  0.00     0.161 HD
BRANCH  10  14
HETATM   14  C   UNK N   1      20.173  16.894   4.426  0.00  0.00     0.169 C 
HETATM   15  O   UNK N   1      20.693  16.803   5.526  0.00  0.00    -0.648 OA
BRANCH  14  16
HETATM   16  O   UNK N   1      18.853  16.650   4.294  0.00  0.00    -0.775 OA
HETATM   17  H   UNK N   1      18.370  16.821   3.509  0.00  0.00     0.167 HD
ENDBRANCH  14  16
ENDBRANCH  10  14
ENDBRANCH   1   7
BRANCH   6  18
HETATM   18  O   UNK N   1      24.459  17.637   5.563  0.00  0.00    -0.357 OA
HETATM   19  H   UNK N   1      23.763  17.824   6.161  0.00  0.00     0.217 HD
ENDBRANCH   6  18
BRANCH   5  20
HETATM   20  O   UNK N   1      27.175  18.374   5.701  0.00  0.00    -0.346 OA
BRANCH  20  21
HETATM   21  C   UNK N   1      27.867  19.045   6.690  0.00  0.00     0.201 C 
BRANCH  21  22
HETATM   22  C   UNK N   1      28.681  18.086   7.552  0.00  0.00     0.194 C 
BRANCH  22  23
HETATM   23  O   UNK N   1      29.253  18.741   8.651  0.00  0.00    -0.387 OA
BRANCH  23  24
HETATM   24  C   UNK N   1      30.554  18.246   8.756  0.00  0.00     0.193 C 
BRANCH  24  25
HETATM   25  C   UNK N   1      30.760  17.170   7.703  0.00  0.00     0.193 C 
BRANCH  25  26
HETATM   26  O   UNK N   1      32.115  17.088   7.380  0.00  0.00    -0.387 OA
BRANCH  26  27
HETATM   27  C   UNK N   1      32.763  17.967   8.252  0.00  0.00     0.193 C 
BRANCH  27  28
HETATM   28  C   UNK N   1      34.238  18.042   7.901  0.00  0.00     0.193 C 
BRANCH  28  29
HETATM   29  O   UNK N   1      34.997  18.152   9.064  0.00  0.00    -0.394 OA
HETATM   30  C   UNK N   1      34.855  16.911   9.682  0.00  0.00     0.201 C 
ENDBRANCH  28  29
ENDBRANCH  27  28
ENDBRANCH  26  27
ENDBRANCH  25  26
ENDBRANCH  24  25
ENDBRANCH  23  24
ENDBRANCH  22  23
ENDBRANCH  21  22
ENDBRANCH  20  21
ENDBRANCH   5  20
TORSDOF 14
ENDMDL
MODEL 5
REMARK VINA RESULT:      -4.7     18.977     23.181
REMARK  14 active torsions:
REMARK  status: ('A' for Active; 'I' for Inactive)
REMARK    1  A    between atoms: C_2  and  C_26 
REMARK    2  A    between atoms: C_5  and  C_8 
REMARK    3  A    between atoms: C_12  and  O_15 
REMARK    4  A    between atoms: C_13  and  O_14 
REMARK    5  A    between atoms: O_15  and  C_16 
REMARK    6  A    between atoms: C_16  and  C_17 
REMARK    7  A    between atoms: C_17  and  O_18 
REMARK    8  A    between atoms: O_18  and  C_19 
REMARK    9  A    between atoms: C_19  and  C_20 
REMARK   10  A    between atoms: C_20  and  O_21 
REMARK   11  A    between atoms: O_21  and  C_22 
REMARK   12  A    between atoms: C_22  and  C_23 
REMARK   13  A    between atoms: C_23  and  O_24 
REMARK   14  A    between atoms: C_26  and  O_28 
ROOT
HETATM    1  C   UNK N   1      35.565  14.461  10.095  0.00  0.00     0.033 A 
HETATM    2  C   UNK N   1      36.855  13.939   9.910  0.00  0.00     0.017 A 
HETATM    3  C   UNK N   1      37.510  13.275  10.946  0.00  0.00     0.004 A 
HETATM    4  C   UNK N   1      36.872  13.092  12.171  0.00  0.00     0.040 A 
HETATM    5  C   UNK N   1      35.574  13.572  12.378  0.00  0.00     0.102 A 
HETATM    6  C   UNK N   1      34.925  14.284  11.341  0.00  0.00     0.112 A 
ENDROOT
BRANCH   1   7
HETATM    7  C   UNK N   1      34.884  15.122   8.949  0.00  0.00     0.080 C 
HETATM    8  S   UNK N   1      34.842  14.397   7.318  0.00  0.00    -0.109 SA
HETATM    9  C   UNK N   1      33.368  15.432   7.025  0.00  0.00     0.122 C 
HETATM   10  C   UNK N   1      33.471  16.646   7.946  0.00  0.00     0.121 C 
HETATM   11  C   UNK N   1      32.075  17.043   8.391  0.00  0.00     0.051 C 
HETATM   12  N   UNK N   1      34.225  16.211   9.089  0.00  0.00    -0.365 N 
ATOM     13  HN  UNK N   1      34.234  16.738   9.962  1.00  0.00     0.161 HD
BRANCH  10  14
HETATM   14  C   UNK N   1      34.146  17.814   7.267  0.00  0.00     0.169 C 
HETATM   15  O   UNK N   1      34.692  18.679   7.933  0.00  0.00    -0.648 OA
BRANCH  14  16
HETATM   16  O   UNK N   1      34.136  17.920   5.923  0.00  0.00    -0.775 OA
HETATM   17  H   UNK N   1      34.884  17.752   5.383  0.00  0.00     0.167 HD
ENDBRANCH  14  16
ENDBRANCH  10  14
ENDBRANCH   1   7
BRANCH   6  18
HETATM   18  O   UNK N   1      33.687  14.779  11.538  0.00  0.00    -0.357 OA
HETATM   19  H   UNK N   1      33.554  15.700  11.648  0.00  0.00     0.217 HD
ENDBRANCH   6  18
BRANCH   5  20
HETATM   20  O   UNK N   1      34.980  13.313  13.567  0.00  0.00    -0.346 OA
BRANCH  20  21
HETATM   21  C   UNK N   1      35.631  13.408  14.781  0.00  0.00     0.201 C 
BRANCH  21  22
HETATM   22  C   UNK N   1      34.946  12.564  15.851  0.00  0.00     0.194 C 
BRANCH  22  23
HETATM   23  O   UNK N   1      34.377  13.364  16.850  0.00  0.00    -0.387 OA
BRANCH  23  24
HETATM   24  C   UNK N   1      35.137  13.136  18.000  0.00  0.00     0.193 C 
BRANCH  24  25
HETATM   25  C   UNK N   1      35.226  11.639  18.246  0.00  0.00     0.193 C 
BRANCH  25  26
HETATM   26  O   UNK N   1      35.936  11.402  19.423  0.00  0.00    -0.387 OA
BRANCH  26  27
HETATM   27  C   UNK N   1      35.090  10.629  20.223  0.00  0.00     0.193 C 
BRANCH  27  28
HETATM   28  C   UNK N   1      34.879   9.270  19.580  0.00  0.00     0.193 C 
BRANCH  28  29
HETATM   29  O   UNK N   1      33.984   8.521  20.339  0.00  0.00    -0.394 OA
HETATM   30  C   UNK N   1      32.771   8.652  19.665  0.00  0.00     0.201 C 
ENDBRANCH  28  29
ENDBRANCH  27  28
ENDBRANCH  26  27
ENDBRANCH  25  26
ENDBRANCH  24  25
ENDBRANCH  23  24
ENDBRANCH  22  23
ENDBRANCH  21  22
ENDBRANCH  20  21
ENDBRANCH   5  20
TORSDOF 14
ENDMDL
MODEL 6
REMARK VINA RESULT:      -4.7     11.372     14.984
REMARK  14 active torsions:
REMARK  status: ('A' for Active; 'I' for Inactive)
REMARK    1  A    between atoms: C_2  and  C_26 
REMARK    2  A    between atoms: C_5  and  C_8 
REMARK    3  A    between atoms: C_12  and  O_15 
REMARK    4  A    between atoms: C_13  and  O_14 
REMARK    5  A    between atoms: O_15  and  C_16 
REMARK    6  A    between atoms: C_16  and  C_17 
REMARK    7  A    between atoms: C_17  and  O_18 
REMARK    8  A    between atoms: O_18  and  C_19 
REMARK    9  A    between atoms: C_19  and  C_20 
REMARK   10  A    between atoms: C_20  and  O_21 
REMARK   11  A    between atoms: O_21  and  C_22 
REMARK   12  A    between atoms: C_22  and  C_23 
REMARK   13  A    between atoms: C_23  and  O_24 
REMARK   14  A    between atoms: C_26  and  O_28 
ROOT
HETATM    1  C   UNK N   1      28.431  18.247   7.125  0.00  0.00     0.033 A 
HETATM    2  C   UNK N   1      28.154  18.741   8.410  0.00  0.00     0.017 A 
HETATM    3  C   UNK N   1      29.005  18.465   9.478  0.00  0.00     0.004 A 
HETATM    4  C   UNK N   1      30.165  17.720   9.273  0.00  0.00     0.040 A 
HETATM    5  C   UNK N   1      30.487  17.239   7.999  0.00  0.00     0.102 A 
HETATM    6  C   UNK N   1      29.601  17.482   6.923  0.00  0.00     0.112 A 
ENDROOT
BRANCH   1   7
HETATM    7  C   UNK N   1      27.521  18.603   6.004  0.00  0.00     0.080 C 
HETATM    8  S   UNK N   1      27.605  20.181   5.173  0.00  0.00    -0.109 SA
HETATM    9  C   UNK N   1      26.788  19.350   3.769  0.00  0.00     0.122 C 
HETATM   10  C   UNK N   1      25.989  18.177   4.333  0.00  0.00     0.121 C 
HETATM   11  C   UNK N   1      26.011  17.041   3.327  0.00  0.00     0.051 C 
HETATM   12  N   UNK N   1      26.679  17.767   5.524  0.00  0.00    -0.365 N 
ATOM     13  HN  UNK N   1      26.508  16.861   5.961  1.00  0.00     0.161 HD
BRANCH  10  14
HETATM   14  C   UNK N   1      24.561  18.563   4.641  0.00  0.00     0.169 C 
HETATM   15  O   UNK N   1      24.016  19.452   4.008  0.00  0.00    -0.648 OA
BRANCH  14  16
HETATM   16  O   UNK N   1      23.884  17.940   5.627  0.00  0.00    -0.775 OA
HETATM   17  H   UNK N   1      24.040  17.052   5.883  0.00  0.00     0.167 HD
ENDBRANCH  14  16
ENDBRANCH  10  14
ENDBRANCH   1   7
BRANCH   6  18
HETATM   18  O   UNK N   1      29.884  16.997   5.697  0.00  0.00    -0.357 OA
HETATM   19  H   UNK N   1      30.741  17.095   5.331  0.00  0.00     0.217 HD
ENDBRANCH   6  18
BRANCH   5  20
HETATM   20  O   UNK N   1      31.656  16.574   7.846  0.00  0.00    -0.346 OA
BRANCH  20  21
HETATM   21  C   UNK N   1      32.894  17.150   8.050  0.00  0.00     0.201 C 
BRANCH  21  22
HETATM   22  C   UNK N   1      33.888  16.740   6.969  0.00  0.00     0.194 C 
BRANCH  22  23
HETATM   23  O   UNK N   1      34.142  17.793   6.080  0.00  0.00    -0.387 OA
BRANCH  23  24
HETATM   24  C   UNK N   1      33.303  17.577   4.984  0.00  0.00     0.193 C 
BRANCH  24  25
HETATM   25  C   UNK N   1      33.322  16.100   4.630  0.00  0.00     0.193 C 
BRANCH  25  26
HETATM   26  O   UNK N   1      32.018  15.658   4.407  0.00  0.00    -0.387 OA
BRANCH  26  27
HETATM   27  C   UNK N   1      32.132  14.312   4.049  0.00  0.00     0.193 C 
BRANCH  27  28
HETATM   28  C   UNK N   1      31.427  13.447   5.079  0.00  0.00     0.193 C 
BRANCH  28  29
HETATM   29  O   UNK N   1      30.268  14.082   5.517  0.00  0.00    -0.394 OA
HETATM   30  C   UNK N   1      29.255  13.514   4.744  0.00  0.00     0.201 C 
ENDBRANCH  28  29
ENDBRANCH  27  28
ENDBRANCH  26  27
ENDBRANCH  25  26
ENDBRANCH  24  25
ENDBRANCH  23  24
ENDBRANCH  22  23
ENDBRANCH  21  22
ENDBRANCH  20  21
ENDBRANCH   5  20
TORSDOF 14
ENDMDL
MODEL 7
REMARK VINA RESULT:      -4.6     17.153     21.480
REMARK  14 active torsions:
REMARK  status: ('A' for Active; 'I' for Inactive)
REMARK    1  A    between atoms: C_2  and  C_26 
REMARK    2  A    between atoms: C_5  and  C_8 
REMARK    3  A    between atoms: C_12  and  O_15 
REMARK    4  A    between atoms: C_13  and  O_14 
REMARK    5  A    between atoms: O_15  and  C_16 
REMARK    6  A    between atoms: C_16  and  C_17 
REMARK    7  A    between atoms: C_17  and  O_18 
REMARK    8  A    between atoms: O_18  and  C_19 
REMARK    9  A    between atoms: C_19  and  C_20 
REMARK   10  A    between atoms: C_20  and  O_21 
REMARK   11  A    between atoms: O_21  and  C_22 
REMARK   12  A    between atoms: C_22  and  C_23 
REMARK   13  A    between atoms: C_23  and  O_24 
REMARK   14  A    between atoms: C_26  and  O_28 
ROOT
HETATM    1  C   UNK N   1      35.518  14.557  10.066  0.00  0.00     0.033 A 
HETATM    2  C   UNK N   1      36.818  14.066   9.868  0.00  0.00     0.017 A 
HETATM    3  C   UNK N   1      37.489  13.395  10.889  0.00  0.00     0.004 A 
HETATM    4  C   UNK N   1      36.858  13.173  12.112  0.00  0.00     0.040 A 
HETATM    5  C   UNK N   1      35.550  13.622  12.330  0.00  0.00     0.102 A 
HETATM    6  C   UNK N   1      34.885  14.341  11.309  0.00  0.00     0.112 A 
ENDROOT
BRANCH   1   7
HETATM    7  C   UNK N   1      34.821  15.227   8.934  0.00  0.00     0.080 C 
HETATM    8  S   UNK N   1      34.631  14.450   7.338  0.00  0.00    -0.109 SA
HETATM    9  C   UNK N   1      33.222  15.582   7.088  0.00  0.00     0.122 C 
HETATM   10  C   UNK N   1      33.467  16.817   7.954  0.00  0.00     0.121 C 
HETATM   11  C   UNK N   1      32.132  17.332   8.460  0.00  0.00     0.051 C 
HETATM   12  N   UNK N   1      34.253  16.366   9.069  0.00  0.00    -0.365 N 
ATOM     13  HN  UNK N   1      34.351  16.922   9.919  1.00  0.00     0.161 HD
BRANCH  10  14
HETATM   14  C   UNK N   1      34.184  17.906   7.193  0.00  0.00     0.169 C 
HETATM   15  O   UNK N   1      34.091  17.969   5.977  0.00  0.00    -0.648 OA
BRANCH  14  16
HETATM   16  O   UNK N   1      34.945  18.808   7.846  0.00  0.00    -0.775 OA
HETATM   17  H   UNK N   1      35.435  18.610   8.620  0.00  0.00     0.167 HD
ENDBRANCH  14  16
ENDBRANCH  10  14
ENDBRANCH   1   7
BRANCH   6  18
HETATM   18  O   UNK N   1      33.637  14.805  11.518  0.00  0.00    -0.357 OA
HETATM   19  H   UNK N   1      33.007  14.812  10.824  0.00  0.00     0.217 HD
ENDBRANCH   6  18
BRANCH   5  20
HETATM   20  O   UNK N   1      34.964  13.325  13.514  0.00  0.00    -0.346 OA
BRANCH  20  21
HETATM   21  C   UNK N   1      35.536  13.606  14.739  0.00  0.00     0.201 C 
BRANCH  21  22
HETATM   22  C   UNK N   1      35.216  12.527  15.768  0.00  0.00     0.194 C 
BRANCH  22  23
HETATM   23  O   UNK N   1      35.750  11.286  15.394  0.00  0.00    -0.387 OA
BRANCH  23  24
HETATM   24  C   UNK N   1      34.675  10.395  15.386  0.00  0.00     0.193 C 
BRANCH  24  25
HETATM   25  C   UNK N   1      34.543   9.790  13.998  0.00  0.00     0.193 C 
BRANCH  25  26
HETATM   26  O   UNK N   1      35.710  10.032  13.273  0.00  0.00    -0.387 OA
BRANCH  26  27
HETATM   27  C   UNK N   1      35.360   9.863  11.931  0.00  0.00     0.193 C 
BRANCH  27  28
HETATM   28  C   UNK N   1      33.873  10.113  11.754  0.00  0.00     0.193 C 
BRANCH  28  29
HETATM   29  O   UNK N   1      33.559  10.167  10.399  0.00  0.00    -0.394 OA
HETATM   30  C   UNK N   1      34.558   9.411   9.786  0.00  0.00     0.201 C 
ENDBRANCH  28  29
ENDBRANCH  27  28
ENDBRANCH  26  27
ENDBRANCH  25  26
ENDBRANCH  24  25
ENDBRANCH  23  24
ENDBRANCH  22  23
ENDBRANCH  21  22
ENDBRANCH  20  21
ENDBRANCH   5  20
TORSDOF 14
ENDMDL
MODEL 8
REMARK VINA RESULT:      -4.6     12.909     14.505
REMARK  14 active torsions:
REMARK  status: ('A' for Active; 'I' for Inactive)
REMARK    1  A    between atoms: C_2  and  C_26 
REMARK    2  A    between atoms: C_5  and  C_8 
REMARK    3  A    between atoms: C_12  and  O_15 
REMARK    4  A    between atoms: C_13  and  O_14 
REMARK    5  A    between atoms: O_15  and  C_16 
REMARK    6  A    between atoms: C_16  and  C_17 
REMARK    7  A    between atoms: C_17  and  O_18 
REMARK    8  A    between atoms: O_18  and  C_19 
REMARK    9  A    between atoms: C_19  and  C_20 
REMARK   10  A    between atoms: C_20  and  O_21 
REMARK   11  A    between atoms: O_21  and  C_22 
REMARK   12  A    between atoms: C_22  and  C_23 
REMARK   13  A    between atoms: C_23  and  O_24 
REMARK   14  A    between atoms: C_26  and  O_28 
ROOT
HETATM    1  C   UNK N   1      23.930  19.453   3.995  0.00  0.00     0.033 A 
HETATM    2  C   UNK N   1      23.481  20.366   3.028  0.00  0.00     0.017 A 
HETATM    3  C   UNK N   1      22.155  20.353   2.598  0.00  0.00     0.004 A 
HETATM    4  C   UNK N   1      21.249  19.452   3.153  0.00  0.00     0.040 A 
HETATM    5  C   UNK N   1      21.657  18.549   4.142  0.00  0.00     0.102 A 
HETATM    6  C   UNK N   1      23.013  18.533   4.548  0.00  0.00     0.112 A 
ENDROOT
BRANCH   1   7
HETATM    7  C   UNK N   1      25.342  19.532   4.459  0.00  0.00     0.080 C 
HETATM    8  S   UNK N   1      26.691  19.899   3.348  0.00  0.00    -0.109 SA
HETATM    9  C   UNK N   1      27.607  20.440   4.830  0.00  0.00     0.122 C 
HETATM   10  C   UNK N   1      27.027  19.689   6.027  0.00  0.00     0.121 C 
HETATM   11  C   UNK N   1      27.074  20.595   7.244  0.00  0.00     0.051 C 
HETATM   12  N   UNK N   1      25.656  19.416   5.695  0.00  0.00    -0.365 N 
ATOM     13  HN  UNK N   1      24.972  19.148   6.403  1.00  0.00     0.161 HD
BRANCH  10  14
HETATM   14  C   UNK N   1      27.779  18.410   6.309  0.00  0.00     0.169 C 
HETATM   15  O   UNK N   1      28.890  18.234   5.834  0.00  0.00    -0.648 OA
BRANCH  14  16
HETATM   16  O   UNK N   1      27.224  17.446   7.071  0.00  0.00    -0.775 OA
HETATM   17  H   UNK N   1      27.490  17.262   7.951  0.00  0.00     0.167 HD
ENDBRANCH  14  16
ENDBRANCH  10  14
ENDBRANCH   1   7
BRANCH   6  18
HETATM   18  O   UNK N   1      23.426  17.648   5.476  0.00  0.00    -0.357 OA
HETATM   19  H   UNK N   1      23.667  17.934   6.335  0.00  0.00     0.217 HD
ENDBRANCH   6  18
BRANCH   5  20
HETATM   20  O   UNK N   1      20.722  17.738   4.690  0.00  0.00    -0.346 OA
BRANCH  20  21
HETATM   21  C   UNK N   1      19.970  16.840   3.959  0.00  0.00     0.201 C 
BRANCH  21  22
HETATM   22  C   UNK N   1      20.253  15.401   4.378  0.00  0.00     0.194 C 
BRANCH  22  23
HETATM   23  O   UNK N   1      21.564  15.251   4.848  0.00  0.00    -0.387 OA
BRANCH  23  24
HETATM   24  C   UNK N   1      21.497  14.298   5.867  0.00  0.00     0.193 C 
BRANCH  24  25
HETATM   25  C   UNK N   1      22.224  14.831   7.091  0.00  0.00     0.193 C 
BRANCH  25  26
HETATM   26  O   UNK N   1      21.705  16.080   7.433  0.00  0.00    -0.387 OA
BRANCH  26  27
HETATM   27  C   UNK N   1      20.579  15.818   8.217  0.00  0.00     0.193 C 
BRANCH  27  28
HETATM   28  C   UNK N   1      19.457  16.767   7.834  0.00  0.00     0.193 C 
BRANCH  28  29
HETATM   29  O   UNK N   1      19.239  17.682   8.861  0.00  0.00    -0.394 OA
HETATM   30  C   UNK N   1      18.004  17.313   9.391  0.00  0.00     0.201 C 
ENDBRANCH  28  29
ENDBRANCH  27  28
ENDBRANCH  26  27
ENDBRANCH  25  26
ENDBRANCH  24  25
ENDBRANCH  23  24
ENDBRANCH  22  23
ENDBRANCH  21  22
ENDBRANCH  20  21
ENDBRANCH   5  20
TORSDOF 14
ENDMDL
MODEL 9
REMARK VINA RESULT:      -4.6     18.531     22.823
REMARK  14 active torsions:
REMARK  status: ('A' for Active; 'I' for Inactive)
REMARK    1  A    between atoms: C_2  and  C_26 
REMARK    2  A    between atoms: C_5  and  C_8 
REMARK    3  A    between atoms: C_12  and  O_15 
REMARK    4  A    between atoms: C_13  and  O_14 
REMARK    5  A    between atoms: O_15  and  C_16 
REMARK    6  A    between atoms: C_16  and  C_17 
REMARK    7  A    between atoms: C_17  and  O_18 
REMARK    8  A    between atoms: O_18  and  C_19 
REMARK    9  A    between atoms: C_19  and  C_20 
REMARK   10  A    between atoms: C_20  and  O_21 
REMARK   11  A    between atoms: O_21  and  C_22 
REMARK   12  A    between atoms: C_22  and  C_23 
REMARK   13  A    between atoms: C_23  and  O_24 
REMARK   14  A    between atoms: C_26  and  O_28 
ROOT
HETATM    1  C   UNK N   1      35.457  14.564  10.094  0.00  0.00     0.033 A 
HETATM    2  C   UNK N   1      36.772  14.084   9.986  0.00  0.00     0.017 A 
HETATM    3  C   UNK N   1      37.401  13.477  11.072  0.00  0.00     0.004 A 
HETATM    4  C   UNK N   1      36.714  13.310  12.272  0.00  0.00     0.040 A 
HETATM    5  C   UNK N   1      35.392  13.749  12.405  0.00  0.00     0.102 A 
HETATM    6  C   UNK N   1      34.768  14.403  11.316  0.00  0.00     0.112 A 
ENDROOT
BRANCH   1   7
HETATM    7  C   UNK N   1      34.808  15.163   8.897  0.00  0.00     0.080 C 
HETATM    8  S   UNK N   1      34.809  14.352   7.306  0.00  0.00    -0.109 SA
HETATM    9  C   UNK N   1      33.344  15.368   6.920  0.00  0.00     0.122 C 
HETATM   10  C   UNK N   1      33.422  16.630   7.778  0.00  0.00     0.121 C 
HETATM   11  C   UNK N   1      32.015  17.047   8.164  0.00  0.00     0.051 C 
HETATM   12  N   UNK N   1      34.145  16.256   8.963  0.00  0.00    -0.365 N 
ATOM     13  HN  UNK N   1      34.130  16.829   9.806  1.00  0.00     0.161 HD
BRANCH  10  14
HETATM   14  C   UNK N   1      34.115  17.761   7.057  0.00  0.00     0.169 C 
HETATM   15  O   UNK N   1      34.051  17.843   5.841  0.00  0.00    -0.648 OA
BRANCH  14  16
HETATM   16  O   UNK N   1      34.821  18.679   7.747  0.00  0.00    -0.775 OA
HETATM   17  H   UNK N   1      35.596  19.092   7.419  0.00  0.00     0.167 HD
ENDBRANCH  14  16
ENDBRANCH  10  14
ENDBRANCH   1   7
BRANCH   6  18
HETATM   18  O   UNK N   1      33.505  14.859  11.440  0.00  0.00    -0.357 OA
HETATM   19  H   UNK N   1      33.092  15.320  10.737  0.00  0.00     0.217 HD
ENDBRANCH   6  18
BRANCH   5  20
HETATM   20  O   UNK N   1      34.753  13.506  13.573  0.00  0.00    -0.346 OA
BRANCH  20  21
HETATM   21  C   UNK N   1      35.001  12.400  14.362  0.00  0.00     0.201 C 
BRANCH  21  22
HETATM   22  C   UNK N   1      34.175  11.198  13.918  0.00  0.00     0.194 C 
BRANCH  22  23
HETATM   23  O   UNK N   1      33.994  10.284  14.965  0.00  0.00    -0.387 OA
BRANCH  23  24
HETATM   24  C   UNK N   1      35.192   9.573  15.061  0.00  0.00     0.193 C 
BRANCH  24  25
HETATM   25  C   UNK N   1      35.357   9.074  16.487  0.00  0.00     0.193 C 
BRANCH  25  26
HETATM   26  O   UNK N   1      35.110  10.118  17.378  0.00  0.00    -0.387 OA
BRANCH  26  27
HETATM   27  C   UNK N   1      35.482   9.636  18.635  0.00  0.00     0.193 C 
BRANCH  27  28
HETATM   28  C   UNK N   1      36.086  10.761  19.457  0.00  0.00     0.193 C 
BRANCH  28  29
HETATM   29  O   UNK N   1      35.074  11.506  20.056  0.00  0.00    -0.394 OA
HETATM   30  C   UNK N   1      35.205  12.775  19.493  0.00  0.00     0.201 C 
ENDBRANCH  28  29
ENDBRANCH  27  28
ENDBRANCH  26  27
ENDBRANCH  25  26
ENDBRANCH  24  25
ENDBRANCH  23  24
ENDBRANCH  22  23
ENDBRANCH  21  22
ENDBRANCH  20  21
ENDBRANCH   5  20
TORSDOF 14
ENDMDL
