MODEL 1
REMARK VINA RESULT:      -6.9      0.000      0.000
REMARK WARNING: 32 MAX_TORS EXCEEDED!!!
REMARK  47 active torsions:
REMARK  status: ('A' for Active; 'I' for Inactive)
REMARK    1  A    between atoms: C_2  and  C_3 
REMARK    2  A    between atoms: C_2  and  N_34 
REMARK       I    between atoms: C_3  and  N_5 
REMARK    3  A    between atoms: C_6  and  N_5 
REMARK    4  A    between atoms: C_6  and  C_7 
REMARK    5  A    between atoms: C_6  and  C_11 
REMARK    6  A    between atoms: C_7  and  C_8 
REMARK       I    between atoms: C_11  and  N_13 
REMARK    7  A    between atoms: C_14  and  N_13 
REMARK    8  A    between atoms: C_14  and  C_15 
REMARK    9  A    between atoms: C_14  and  C_19 
REMARK   10  A    between atoms: C_15  and  C_16 
REMARK       I    between atoms: C_16  and  N_18 
REMARK       I    between atoms: C_19  and  N_21 
REMARK   11  A    between atoms: C_22  and  N_21 
REMARK   12  A    between atoms: C_22  and  C_23 
REMARK   13  A    between atoms: C_22  and  C_25 
REMARK   14  A    between atoms: C_23  and  O_24 
REMARK       I    between atoms: C_25  and  N_27 
REMARK   15  A    between atoms: C_28  and  N_27 
REMARK   16  A    between atoms: C_28  and  C_29 
REMARK   17  A    between atoms: C_28  and  C_31 
REMARK   18  A    between atoms: C_29  and  O_30 
REMARK   19  A    between atoms: C_31  and  O_33 
REMARK       I    between atoms: N_34  and  C_35 
REMARK   20  A    between atoms: C_35  and  C_37 
REMARK   21  A    between atoms: C_37  and  C_38 
REMARK   22  A    between atoms: C_37  and  N_46 
REMARK   23  A    between atoms: C_38  and  C_39 
REMARK   24  A    between atoms: C_39  and  C_40 
REMARK   25  A    between atoms: C_40  and  N_41 
REMARK       I    between atoms: N_41  and  C_42 
REMARK       I    between atoms: C_42  and  N_45 
REMARK       I    between atoms: N_46  and  C_47 
REMARK   26  A    between atoms: C_47  and  C_49 
REMARK   27  A    between atoms: C_49  and  C_50 
REMARK   28  A    between atoms: C_49  and  N_55 
REMARK   29  A    between atoms: C_50  and  C_51 
REMARK   30  A    between atoms: C_51  and  C_52 
REMARK   31  A    between atoms: C_52  and  O_54 
REMARK       I    between atoms: N_55  and  C_56 
REMARK   32  A    between atoms: C_56  and  C_58 
REMARK   33  A    between atoms: C_58  and  C_59 
REMARK   34  A    between atoms: C_58  and  N_63 
REMARK   35  A    between atoms: C_59  and  C_60 
REMARK       I    between atoms: N_63  and  C_64 
REMARK   36  A    between atoms: C_64  and  C_66 
REMARK   37  A    between atoms: C_66  and  C_67 
REMARK   38  A    between atoms: C_66  and  N_72 
REMARK   39  A    between atoms: C_67  and  C_68 
REMARK   40  A    between atoms: C_68  and  C_69 
REMARK       I    between atoms: C_69  and  N_71 
REMARK       I    between atoms: N_72  and  C_73 
REMARK   41  A    between atoms: C_73  and  C_75 
REMARK   42  A    between atoms: C_75  and  C_76 
REMARK   43  A    between atoms: C_75  and  N_81 
REMARK   44  A    between atoms: C_76  and  C_77 
REMARK   45  A    between atoms: C_77  and  C_78 
REMARK   46  A    between atoms: C_78  and  O_80 
REMARK       I    between atoms: N_81  and  C_82 
REMARK   47  A    between atoms: C_84  and  C_82 
ROOT
HETATM    1  C   UNK N   1      23.902  15.491   5.881  0.00  0.00     0.176 C 
ENDROOT
BRANCH   1   2
HETATM    2  C   UNK N   1      23.812  14.930   4.479  0.00  0.00     0.241 C 
HETATM    3  N   UNK N   1      24.678  15.312   3.504  0.00  0.00    -0.346 N 
HETATM    4  H   UNK N   1      24.657  14.825   2.648  0.00  0.00     0.163 HD
HETATM    5  O   UNK N   1      23.001  14.051   4.235  0.00  0.00    -0.271 OA
BRANCH   3   6
HETATM    6  C   UNK N   1      25.634  16.391   3.646  0.00  0.00     0.172 C 
HETATM    7  C   UNK N   1      25.075  17.687   3.085  0.00  0.00     0.042 C 
BRANCH   6   8
HETATM    8  C   UNK N   1      27.058  16.133   3.179  0.00  0.00     0.240 C 
HETATM    9  O   UNK N   1      27.200  15.471   2.165  0.00  0.00    -0.271 OA
HETATM   10  N   UNK N   1      28.176  16.625   3.786  0.00  0.00    -0.346 N 
HETATM   11  H   UNK N   1      29.018  16.542   3.282  0.00  0.00     0.163 HD
BRANCH  10  12
HETATM   12  C   UNK N   1      28.268  17.259   5.091  0.00  0.00     0.177 C 
BRANCH  12  13
HETATM   13  C   UNK N   1      28.539  18.771   4.940  0.00  0.00     0.038 C 
BRANCH  13  14
HETATM   14  C   UNK N   1      27.349  19.711   5.179  0.00  0.00    -0.020 C 
HETATM   15  C   UNK N   1      27.654  20.611   6.357  0.00  0.00     0.009 C 
HETATM   16  C   UNK N   1      27.014  20.573   3.976  0.00  0.00     0.009 C 
ENDBRANCH  13  14
ENDBRANCH  12  13
BRANCH  12  17
HETATM   17  C   UNK N   1      29.373  16.575   5.831  0.00  0.00     0.241 C 
HETATM   18  O   UNK N   1      29.641  15.420   5.534  0.00  0.00    -0.271 OA
HETATM   19  N   UNK N   1      30.174  17.269   6.688  0.00  0.00    -0.346 N 
HETATM   20  H   UNK N   1      29.819  18.075   7.126  0.00  0.00     0.163 HD
BRANCH  19  21
HETATM   21  C   UNK N   1      31.533  16.854   6.970  0.00  0.00     0.185 C 
BRANCH  21  22
HETATM   22  C   UNK N   1      32.471  17.354   5.849  0.00  0.00     0.137 C 
BRANCH  22  23
HETATM   23  C   UNK N   1      33.152  16.326   5.019  0.00  0.00     0.217 C 
HETATM   24  O   UNK N   1      34.300  16.007   5.266  0.00  0.00    -0.274 OA
HETATM   25  N   UNK N   1      32.451  15.653   4.086  0.00  0.00    -0.370 N 
HETATM   26  H   UNK N   1      31.740  15.636   3.405  0.00  0.00     0.159 HD
HETATM   27  H   UNK N   1      32.832  14.744   4.082  0.00  0.00     0.159 HD
ENDBRANCH  22  23
ENDBRANCH  21  22
BRANCH  21  28
HETATM   28  C   UNK N   1      31.831  17.402   8.360  0.00  0.00     0.241 C 
HETATM   29  O   UNK N   1      31.290  18.429   8.730  0.00  0.00    -0.271 OA
HETATM   30  N   UNK N   1      32.600  16.718   9.243  0.00  0.00    -0.344 N 
HETATM   31  H   UNK N   1      32.631  17.031  10.176  0.00  0.00     0.163 HD
BRANCH  30  32
HETATM   32  C   UNK N   1      33.373  15.558   8.882  0.00  0.00     0.200 C 
BRANCH  32  33
HETATM   33  C   UNK N   1      32.501  14.303   8.941  0.00  0.00     0.199 C 
BRANCH  33  34
HETATM   34  O   UNK N   1      32.892  13.371   7.980  0.00  0.00    -0.398 OA
HETATM   35  H   UNK N   1      33.208  12.482   8.208  0.00  0.00     0.209 HD
ENDBRANCH  33  34
ENDBRANCH  32  33
BRANCH  32  36
HETATM   36  C   UNK N   1      34.471  15.422   9.895  0.00  0.00     0.243 C 
HETATM   37  O   UNK N   1      34.920  16.430  10.436  0.00  0.00    -0.271 OA
HETATM   38  N   UNK N   1      34.958  14.207  10.223  0.00  0.00    -0.343 N 
HETATM   39  H   UNK N   1      34.582  13.410   9.785  0.00  0.00     0.163 HD
BRANCH  38  40
HETATM   40  C   UNK N   1      36.015  14.034  11.200  0.00  0.00     0.206 C 
BRANCH  40  41
HETATM   41  C   UNK N   1      35.587  13.001  12.227  0.00  0.00     0.200 C 
BRANCH  41  42
HETATM   42  O   UNK N   1      34.409  13.419  12.844  0.00  0.00    -0.398 OA
HETATM   43  H   UNK N   1      34.175  14.353  12.962  0.00  0.00     0.209 HD
ENDBRANCH  41  42
ENDBRANCH  40  41
BRANCH  40  44
HETATM   44  C   UNK N   1      37.329  13.682  10.538  0.00  0.00     0.165 C 
HETATM   45  O   UNK N   1      37.882  14.473   9.790  0.00  0.00    -0.648 OA
BRANCH  44  46
HETATM   46  O   UNK N   1      37.871  12.467  10.726  0.00  0.00    -0.775 OA
HETATM   47  H   UNK N   1      38.760  12.171  10.688  0.00  0.00     0.167 HD
ENDBRANCH  44  46
ENDBRANCH  40  44
ENDBRANCH  38  40
ENDBRANCH  32  36
ENDBRANCH  30  32
ENDBRANCH  21  28
ENDBRANCH  19  21
ENDBRANCH  12  17
ENDBRANCH  10  12
ENDBRANCH   6   8
ENDBRANCH   3   6
ENDBRANCH   1   2
BRANCH   1  48
HETATM   48  C   UNK N   1      23.673  14.532   7.036  0.00  0.00     0.036 C 
BRANCH  48  49
HETATM   49  C   UNK N   1      25.003  13.911   7.439  0.00  0.00     0.023 C 
BRANCH  49  50
HETATM   50  C   UNK N   1      25.089  13.659   8.939  0.00  0.00     0.138 C 
BRANCH  50  51
HETATM   51  N   UNK N   1      23.980  12.836   9.345  0.00  0.00    -0.227 N 
HETATM   52  C   UNK N   1      23.980  12.152  10.585  0.00  0.00     0.665 C 
HETATM   53  N   UNK N   1      24.983  12.239  11.378  0.00  0.00    -0.235 N 
HETATM   54  N   UNK N   1      22.836  11.425  10.980  0.00  0.00    -0.235 N 
HETATM   55  H   UNK N   1      24.997  11.884  12.296  0.00  0.00     0.174 HD
ATOM     56  HN  UNK N   1      25.823  12.707  11.036  1.00  0.00     0.174 HD
HETATM   57  H   UNK N   1      21.975  11.572  10.526  0.00  0.00     0.174 HD
HETATM   58  H   UNK N   1      22.900  10.770  11.713  0.00  0.00     0.174 HD
HETATM   59  H   UNK N   1      23.204  12.748   8.747  0.00  0.00     0.177 HD
ENDBRANCH  50  51
ENDBRANCH  49  50
ENDBRANCH  48  49
ENDBRANCH   1  48
BRANCH   1  60
HETATM   60  N   UNK N   1      23.376  16.814   6.165  0.00  0.00    -0.346 N 
HETATM   61  C   UNK N   1      22.111  17.284   5.992  0.00  0.00     0.241 C 
HETATM   62  O   UNK N   1      21.834  18.382   6.444  0.00  0.00    -0.271 OA
HETATM   63  H   UNK N   1      24.022  17.460   6.533  0.00  0.00     0.163 HD
BRANCH  61  64
HETATM   64  C   UNK N   1      21.043  16.556   5.221  0.00  0.00     0.177 C 
BRANCH  64  65
HETATM   65  C   UNK N   1      19.836  16.388   6.123  0.00  0.00     0.045 C 
BRANCH  65  66
HETATM   66  C   UNK N   1      20.190  15.679   7.406  0.00  0.00     0.112 C 
BRANCH  66  67
HETATM   67  C   UNK N   1      19.640  16.430   8.569  0.00  0.00     0.139 C 
HETATM   68  O   UNK N   1      18.728  15.950   9.220  0.00  0.00    -0.650 OA
BRANCH  67  69
HETATM   69  O   UNK N   1      20.147  17.632   8.905  0.00  0.00    -0.776 OA
HETATM   70  H   UNK N   1      21.059  17.755   9.076  0.00  0.00     0.167 HD
ENDBRANCH  67  69
ENDBRANCH  66  67
ENDBRANCH  65  66
ENDBRANCH  64  65
BRANCH  64  71
HETATM   71  N   UNK N   1      20.651  17.225   3.997  0.00  0.00    -0.346 N 
HETATM   72  C   UNK N   1      20.307  16.613   2.834  0.00  0.00     0.241 C 
HETATM   73  O   UNK N   1      20.057  17.306   1.859  0.00  0.00    -0.271 OA
HETATM   74  H   UNK N   1      20.633  18.210   4.009  0.00  0.00     0.163 HD
BRANCH  72  75
HETATM   75  C   UNK N   1      20.265  15.112   2.694  0.00  0.00     0.177 C 
BRANCH  75  76
HETATM   76  C   UNK N   1      20.177  14.851   1.192  0.00  0.00     0.038 C 
BRANCH  76  77
HETATM   77  C   UNK N   1      18.767  14.593   0.710  0.00  0.00    -0.020 C 
HETATM   78  C   UNK N   1      18.452  15.581  -0.392  0.00  0.00     0.009 C 
HETATM   79  C   UNK N   1      18.693  13.192   0.133  0.00  0.00     0.009 C 
ENDBRANCH  76  77
ENDBRANCH  75  76
BRANCH  75  80
HETATM   80  N   UNK N   1      19.060  14.610   3.343  0.00  0.00    -0.346 N 
HETATM   81  C   UNK N   1      18.892  13.359   3.864  0.00  0.00     0.241 C 
HETATM   82  O   UNK N   1      17.850  13.102   4.442  0.00  0.00    -0.271 OA
HETATM   83  H   UNK N   1      18.298  15.229   3.412  0.00  0.00     0.163 HD
BRANCH  81  84
HETATM   84  C   UNK N   1      19.964  12.295   3.738  0.00  0.00     0.177 C 
BRANCH  84  85
HETATM   85  C   UNK N   1      20.167  11.607   5.083  0.00  0.00     0.044 C 
BRANCH  85  86
HETATM   86  C   UNK N   1      20.623  12.619   6.128  0.00  0.00     0.105 C 
BRANCH  86  87
HETATM   87  C   UNK N   1      21.452  11.975   7.197  0.00  0.00     0.215 C 
HETATM   88  O   UNK N   1      21.255  12.235   8.372  0.00  0.00    -0.274 OA
HETATM   89  N   UNK N   1      22.393  11.072   6.862  0.00  0.00    -0.370 N 
HETATM   90  H   UNK N   1      22.775  10.481   7.550  0.00  0.00     0.159 HD
HETATM   91  H   UNK N   1      22.698  11.003   5.929  0.00  0.00     0.159 HD
ENDBRANCH  86  87
ENDBRANCH  85  86
ENDBRANCH  84  85
BRANCH  84  92
HETATM   92  N   UNK N   1      19.729  11.233   2.771  0.00  0.00    -0.346 N 
HETATM   93  C   UNK N   1      20.575  10.575   1.933  0.00  0.00     0.241 C 
HETATM   94  O   UNK N   1      20.181   9.535   1.435  0.00  0.00    -0.271 OA
HETATM   95  H   UNK N   1      18.792  10.939   2.713  0.00  0.00     0.163 HD
BRANCH  93  96
HETATM   96  C   UNK N   1      21.974  11.018   1.596  0.00  0.00     0.177 C 
BRANCH  96  97
HETATM   97  C   UNK N   1      22.066  12.022   0.458  0.00  0.00     0.045 C 
BRANCH  97  98
HETATM   98  C   UNK N   1      23.515  12.201   0.042  0.00  0.00     0.112 C 
BRANCH  98  99
HETATM   99  C   UNK N   1      24.074  13.425   0.682  0.00  0.00     0.139 C 
HETATM  100  O   UNK N   1      23.498  14.495   0.566  0.00  0.00    -0.650 OA
BRANCH  99 101
HETATM  101  O   UNK N   1      25.221  13.353   1.378  0.00  0.00    -0.776 OA
HETATM  102  H   UNK N   1      25.309  12.741   2.083  0.00  0.00     0.167 HD
ENDBRANCH  99 101
ENDBRANCH  98  99
ENDBRANCH  97  98
ENDBRANCH  96  97
BRANCH  96 103
HETATM  103  N   UNK N   1      22.883   9.897   1.438  0.00  0.00    -0.346 N 
HETATM  104  C   UNK N   1      23.784   9.519   2.387  0.00  0.00     0.241 C 
HETATM  105  O   UNK N   1      24.511   8.562   2.166  0.00  0.00    -0.271 OA
HETATM  106  H   UNK N   1      22.848   9.384   0.599  0.00  0.00     0.163 HD
BRANCH 104 107
HETATM  107  C   UNK N   1      23.901  10.255   3.703  0.00  0.00     0.177 A 
HETATM  108  C   UNK N   1      24.836   9.488   4.660  0.00  0.00     0.044 A 
HETATM  109  C   UNK N   1      25.929  10.459   5.118  0.00  0.00     0.105 A 
HETATM  110  C   UNK N   1      25.623  11.648   4.305  0.00  0.00     0.218 A 
HETATM  111  O   UNK N   1      26.302  12.661   4.324  0.00  0.00    -0.274 OA
HETATM  112  N   UNK N   1      24.534  11.533   3.542  0.00  0.00    -0.348 N 
HETATM  113  H   UNK N   1      24.204  12.241   2.942  0.00  0.00     0.163 HD
ENDBRANCH 104 107
ENDBRANCH  96 103
ENDBRANCH  93  96
ENDBRANCH  84  92
ENDBRANCH  81  84
ENDBRANCH  75  80
ENDBRANCH  72  75
ENDBRANCH  64  71
ENDBRANCH  61  64
ENDBRANCH   1  60
TORSDOF 47
ENDMDL
MODEL 2
REMARK VINA RESULT:      -6.9      2.255      6.298
REMARK WARNING: 32 MAX_TORS EXCEEDED!!!
REMARK  47 active torsions:
REMARK  status: ('A' for Active; 'I' for Inactive)
REMARK    1  A    between atoms: C_2  and  C_3 
REMARK    2  A    between atoms: C_2  and  N_34 
REMARK       I    between atoms: C_3  and  N_5 
REMARK    3  A    between atoms: C_6  and  N_5 
REMARK    4  A    between atoms: C_6  and  C_7 
REMARK    5  A    between atoms: C_6  and  C_11 
REMARK    6  A    between atoms: C_7  and  C_8 
REMARK       I    between atoms: C_11  and  N_13 
REMARK    7  A    between atoms: C_14  and  N_13 
REMARK    8  A    between atoms: C_14  and  C_15 
REMARK    9  A    between atoms: C_14  and  C_19 
REMARK   10  A    between atoms: C_15  and  C_16 
REMARK       I    between atoms: C_16  and  N_18 
REMARK       I    between atoms: C_19  and  N_21 
REMARK   11  A    between atoms: C_22  and  N_21 
REMARK   12  A    between atoms: C_22  and  C_23 
REMARK   13  A    between atoms: C_22  and  C_25 
REMARK   14  A    between atoms: C_23  and  O_24 
REMARK       I    between atoms: C_25  and  N_27 
REMARK   15  A    between atoms: C_28  and  N_27 
REMARK   16  A    between atoms: C_28  and  C_29 
REMARK   17  A    between atoms: C_28  and  C_31 
REMARK   18  A    between atoms: C_29  and  O_30 
REMARK   19  A    between atoms: C_31  and  O_33 
REMARK       I    between atoms: N_34  and  C_35 
REMARK   20  A    between atoms: C_35  and  C_37 
REMARK   21  A    between atoms: C_37  and  C_38 
REMARK   22  A    between atoms: C_37  and  N_46 
REMARK   23  A    between atoms: C_38  and  C_39 
REMARK   24  A    between atoms: C_39  and  C_40 
REMARK   25  A    between atoms: C_40  and  N_41 
REMARK       I    between atoms: N_41  and  C_42 
REMARK       I    between atoms: C_42  and  N_45 
REMARK       I    between atoms: N_46  and  C_47 
REMARK   26  A    between atoms: C_47  and  C_49 
REMARK   27  A    between atoms: C_49  and  C_50 
REMARK   28  A    between atoms: C_49  and  N_55 
REMARK   29  A    between atoms: C_50  and  C_51 
REMARK   30  A    between atoms: C_51  and  C_52 
REMARK   31  A    between atoms: C_52  and  O_54 
REMARK       I    between atoms: N_55  and  C_56 
REMARK   32  A    between atoms: C_56  and  C_58 
REMARK   33  A    between atoms: C_58  and  C_59 
REMARK   34  A    between atoms: C_58  and  N_63 
REMARK   35  A    between atoms: C_59  and  C_60 
REMARK       I    between atoms: N_63  and  C_64 
REMARK   36  A    between atoms: C_64  and  C_66 
REMARK   37  A    between atoms: C_66  and  C_67 
REMARK   38  A    between atoms: C_66  and  N_72 
REMARK   39  A    between atoms: C_67  and  C_68 
REMARK   40  A    between atoms: C_68  and  C_69 
REMARK       I    between atoms: C_69  and  N_71 
REMARK       I    between atoms: N_72  and  C_73 
REMARK   41  A    between atoms: C_73  and  C_75 
REMARK   42  A    between atoms: C_75  and  C_76 
REMARK   43  A    between atoms: C_75  and  N_81 
REMARK   44  A    between atoms: C_76  and  C_77 
REMARK   45  A    between atoms: C_77  and  C_78 
REMARK   46  A    between atoms: C_78  and  O_80 
REMARK       I    between atoms: N_81  and  C_82 
REMARK   47  A    between atoms: C_84  and  C_82 
ROOT
HETATM    1  C   UNK N   1      25.524  13.445   3.918  0.00  0.00     0.176 C 
ENDROOT
BRANCH   1   2
HETATM    2  C   UNK N   1      26.232  13.658   5.239  0.00  0.00     0.241 C 
HETATM    3  N   UNK N   1      27.500  14.143   5.296  0.00  0.00    -0.346 N 
HETATM    4  H   UNK N   1      27.866  14.381   6.179  0.00  0.00     0.163 HD
HETATM    5  O   UNK N   1      25.624  13.473   6.281  0.00  0.00    -0.271 OA
BRANCH   3   6
HETATM    6  C   UNK N   1      28.348  14.332   4.137  0.00  0.00     0.172 C 
HETATM    7  C   UNK N   1      29.434  13.273   4.082  0.00  0.00     0.042 C 
BRANCH   6   8
HETATM    8  C   UNK N   1      28.898  15.728   3.891  0.00  0.00     0.240 C 
HETATM    9  O   UNK N   1      28.994  16.092   2.731  0.00  0.00    -0.271 OA
HETATM   10  N   UNK N   1      29.246  16.611   4.871  0.00  0.00    -0.346 N 
HETATM   11  H   UNK N   1      29.409  17.539   4.584  0.00  0.00     0.163 HD
BRANCH  10  12
HETATM   12  C   UNK N   1      29.404  16.339   6.290  0.00  0.00     0.177 C 
BRANCH  12  13
HETATM   13  C   UNK N   1      29.158  17.620   7.116  0.00  0.00     0.038 C 
BRANCH  13  14
HETATM   14  C   UNK N   1      29.335  17.502   8.637  0.00  0.00    -0.020 C 
HETATM   15  C   UNK N   1      30.282  18.583   9.113  0.00  0.00     0.009 C 
HETATM   16  C   UNK N   1      28.031  17.619   9.405  0.00  0.00     0.009 C 
ENDBRANCH  13  14
ENDBRANCH  12  13
BRANCH  12  17
HETATM   17  C   UNK N   1      30.793  15.822   6.483  0.00  0.00     0.241 C 
HETATM   18  O   UNK N   1      30.938  14.638   6.754  0.00  0.00    -0.271 OA
HETATM   19  N   UNK N   1      31.874  16.599   6.195  0.00  0.00    -0.346 N 
HETATM   20  H   UNK N   1      31.786  17.578   6.247  0.00  0.00     0.163 HD
BRANCH  19  21
HETATM   21  C   UNK N   1      33.149  16.026   5.814  0.00  0.00     0.185 C 
BRANCH  21  22
HETATM   22  C   UNK N   1      33.389  16.251   4.304  0.00  0.00     0.137 C 
BRANCH  22  23
HETATM   23  C   UNK N   1      32.496  17.215   3.608  0.00  0.00     0.217 C 
HETATM   24  O   UNK N   1      32.346  18.337   4.053  0.00  0.00    -0.274 OA
HETATM   25  N   UNK N   1      31.967  16.887   2.413  0.00  0.00    -0.370 N 
HETATM   26  H   UNK N   1      31.598  16.206   1.804  0.00  0.00     0.159 HD
HETATM   27  H   UNK N   1      31.933  17.731   1.905  0.00  0.00     0.159 HD
ENDBRANCH  22  23
ENDBRANCH  21  22
BRANCH  21  28
HETATM   28  C   UNK N   1      34.167  16.680   6.739  0.00  0.00     0.241 C 
HETATM   29  O   UNK N   1      34.618  17.777   6.458  0.00  0.00    -0.271 OA
HETATM   30  N   UNK N   1      34.508  16.123   7.928  0.00  0.00    -0.344 N 
HETATM   31  H   UNK N   1      35.042  16.658   8.559  0.00  0.00     0.163 HD
BRANCH  30  32
HETATM   32  C   UNK N   1      34.126  14.789   8.311  0.00  0.00     0.200 C 
BRANCH  32  33
HETATM   33  C   UNK N   1      33.326  14.822   9.614  0.00  0.00     0.199 C 
BRANCH  33  34
HETATM   34  O   UNK N   1      32.199  15.635   9.494  0.00  0.00    -0.398 OA
HETATM   35  H   UNK N   1      31.760  15.802   8.646  0.00  0.00     0.209 HD
ENDBRANCH  33  34
ENDBRANCH  32  33
BRANCH  32  36
HETATM   36  C   UNK N   1      35.389  14.015   8.549  0.00  0.00     0.243 C 
HETATM   37  O   UNK N   1      35.797  13.246   7.680  0.00  0.00    -0.271 OA
HETATM   38  N   UNK N   1      36.084  14.165   9.695  0.00  0.00    -0.343 N 
HETATM   39  H   UNK N   1      35.746  14.789  10.377  0.00  0.00     0.163 HD
BRANCH  38  40
HETATM   40  C   UNK N   1      37.310  13.439   9.959  0.00  0.00     0.206 C 
BRANCH  40  41
HETATM   41  C   UNK N   1      38.496  14.275   9.514  0.00  0.00     0.200 C 
BRANCH  41  42
HETATM   42  O   UNK N   1      38.817  13.960   8.194  0.00  0.00    -0.398 OA
HETATM   43  H   UNK N   1      39.300  13.158   7.943  0.00  0.00     0.209 HD
ENDBRANCH  41  42
ENDBRANCH  40  41
BRANCH  40  44
HETATM   44  C   UNK N   1      37.408  13.025  11.411  0.00  0.00     0.165 C 
HETATM   45  O   UNK N   1      37.735  11.889  11.716  0.00  0.00    -0.648 OA
BRANCH  44  46
HETATM   46  O   UNK N   1      37.077  13.895  12.381  0.00  0.00    -0.775 OA
HETATM   47  H   UNK N   1      36.557  14.675  12.364  0.00  0.00     0.167 HD
ENDBRANCH  44  46
ENDBRANCH  40  44
ENDBRANCH  38  40
ENDBRANCH  32  36
ENDBRANCH  30  32
ENDBRANCH  21  28
ENDBRANCH  19  21
ENDBRANCH  12  17
ENDBRANCH  10  12
ENDBRANCH   6   8
ENDBRANCH   3   6
ENDBRANCH   1   2
BRANCH   1  48
HETATM   48  C   UNK N   1      24.399  14.400   3.564  0.00  0.00     0.036 C 
BRANCH  48  49
HETATM   49  C   UNK N   1      24.871  15.339   2.462  0.00  0.00     0.023 C 
BRANCH  49  50
HETATM   50  C   UNK N   1      24.900  14.657   1.100  0.00  0.00     0.138 C 
BRANCH  50  51
HETATM   51  N   UNK N   1      23.560  14.288   0.726  0.00  0.00    -0.227 N 
HETATM   52  C   UNK N   1      23.250  12.985   0.267  0.00  0.00     0.665 C 
HETATM   53  N   UNK N   1      24.168  12.097   0.158  0.00  0.00    -0.235 N 
HETATM   54  N   UNK N   1      21.908  12.643  -0.007  0.00  0.00    -0.235 N 
HETATM   55  H   UNK N   1      24.000  11.148  -0.045  0.00  0.00     0.174 HD
ATOM     56  HN  UNK N   1      25.135  12.391   0.290  1.00  0.00     0.174 HD
HETATM   57  H   UNK N   1      21.175  13.208   0.328  0.00  0.00     0.174 HD
HETATM   58  H   UNK N   1      21.705  11.836  -0.534  0.00  0.00     0.174 HD
HETATM   59  H   UNK N   1      22.842  14.958   0.793  0.00  0.00     0.177 HD
ENDBRANCH  50  51
ENDBRANCH  49  50
ENDBRANCH  48  49
ENDBRANCH   1  48
BRANCH   1  60
HETATM   60  N   UNK N   1      25.256  12.096   3.452  0.00  0.00    -0.346 N 
HETATM   61  C   UNK N   1      24.089  11.398   3.491  0.00  0.00     0.241 C 
HETATM   62  O   UNK N   1      24.032  10.333   2.899  0.00  0.00    -0.271 OA
HETATM   63  H   UNK N   1      26.021  11.623   3.054  0.00  0.00     0.163 HD
BRANCH  61  64
HETATM   64  C   UNK N   1      22.877  11.829   4.272  0.00  0.00     0.177 C 
BRANCH  64  65
HETATM   65  C   UNK N   1      21.643  11.316   3.556  0.00  0.00     0.045 C 
BRANCH  65  66
HETATM   66  C   UNK N   1      20.851  12.436   2.930  0.00  0.00     0.112 C 
BRANCH  66  67
HETATM   67  C   UNK N   1      19.467  11.975   2.632  0.00  0.00     0.139 C 
HETATM   68  O   UNK N   1      19.140  11.753   1.479  0.00  0.00    -0.650 OA
BRANCH  67  69
HETATM   69  O   UNK N   1      18.579  11.799   3.629  0.00  0.00    -0.776 OA
HETATM   70  H   UNK N   1      17.657  11.886   3.492  0.00  0.00     0.167 HD
ENDBRANCH  67  69
ENDBRANCH  66  67
ENDBRANCH  65  66
ENDBRANCH  64  65
BRANCH  64  71
HETATM   71  N   UNK N   1      22.875  11.367   5.644  0.00  0.00    -0.346 N 
HETATM   72  C   UNK N   1      22.534  12.110   6.730  0.00  0.00     0.241 C 
HETATM   73  O   UNK N   1      22.639  11.607   7.839  0.00  0.00    -0.271 OA
HETATM   74  H   UNK N   1      23.146  10.434   5.806  0.00  0.00     0.163 HD
BRANCH  72  75
HETATM   75  C   UNK N   1      22.073  13.541   6.617  0.00  0.00     0.177 C 
BRANCH  75  76
HETATM   76  C   UNK N   1      22.240  14.130   8.015  0.00  0.00     0.038 C 
BRANCH  76  77
HETATM   77  C   UNK N   1      20.938  14.247   8.776  0.00  0.00    -0.020 C 
HETATM   78  C   UNK N   1      21.087  13.514  10.091  0.00  0.00     0.009 C 
HETATM   79  C   UNK N   1      20.672  15.711   9.072  0.00  0.00     0.009 C 
ENDBRANCH  76  77
ENDBRANCH  75  76
BRANCH  75  80
HETATM   80  N   UNK N   1      20.662  13.556   6.252  0.00  0.00    -0.346 N 
HETATM   81  C   UNK N   1      20.032  14.522   5.520  0.00  0.00     0.241 C 
HETATM   82  O   UNK N   1      18.858  14.365   5.232  0.00  0.00    -0.271 OA
HETATM   83  H   UNK N   1      20.112  12.800   6.561  0.00  0.00     0.163 HD
BRANCH  81  84
HETATM   84  C   UNK N   1      20.757  15.772   5.065  0.00  0.00     0.177 C 
BRANCH  84  85
HETATM   85  C   UNK N   1      20.130  16.291   3.777  0.00  0.00     0.044 C 
BRANCH  85  86
HETATM   86  C   UNK N   1      21.036  15.985   2.590  0.00  0.00     0.105 C 
BRANCH  86  87
HETATM   87  C   UNK N   1      20.313  16.133   1.288  0.00  0.00     0.215 C 
HETATM   88  O   UNK N   1      20.544  15.374   0.362  0.00  0.00    -0.274 OA
HETATM   89  N   UNK N   1      19.370  17.084   1.150  0.00  0.00    -0.370 N 
HETATM   90  H   UNK N   1      18.736  17.044   0.398  0.00  0.00     0.159 HD
HETATM   91  H   UNK N   1      19.314  17.820   1.801  0.00  0.00     0.159 HD
ENDBRANCH  86  87
ENDBRANCH  85  86
ENDBRANCH  84  85
BRANCH  84  92
HETATM   92  N   UNK N   1      20.775  16.898   5.989  0.00  0.00    -0.346 N 
HETATM   93  C   UNK N   1      21.506  18.044   5.997  0.00  0.00     0.241 C 
HETATM   94  O   UNK N   1      21.128  18.951   6.718  0.00  0.00    -0.271 OA
HETATM   95  H   UNK N   1      20.146  16.813   6.741  0.00  0.00     0.163 HD
BRANCH  93  96
HETATM   96  C   UNK N   1      22.733  18.292   5.159  0.00  0.00     0.177 C 
BRANCH  96  97
HETATM   97  C   UNK N   1      22.471  18.407   3.666  0.00  0.00     0.045 C 
BRANCH  97  98
HETATM   98  C   UNK N   1      22.356  19.868   3.272  0.00  0.00     0.112 C 
BRANCH  98  99
HETATM   99  C   UNK N   1      20.935  20.195   2.961  0.00  0.00     0.139 C 
HETATM  100  O   UNK N   1      20.419  19.772   1.939  0.00  0.00    -0.650 OA
BRANCH  99 101
HETATM  101  O   UNK N   1      20.227  20.965   3.802  0.00  0.00    -0.776 OA
HETATM  102  H   UNK N   1      19.912  20.616   4.613  0.00  0.00     0.167 HD
ENDBRANCH  99 101
ENDBRANCH  98  99
ENDBRANCH  97  98
ENDBRANCH  96  97
BRANCH  96 103
HETATM  103  N   UNK N   1      23.812  17.374   5.476  0.00  0.00    -0.346 N 
HETATM  104  C   UNK N   1      25.129  17.669   5.294  0.00  0.00     0.241 C 
HETATM  105  O   UNK N   1      25.969  16.832   5.588  0.00  0.00    -0.271 OA
HETATM  106  H   UNK N   1      23.579  16.491   5.842  0.00  0.00     0.163 HD
BRANCH 104 107
HETATM  107  C   UNK N   1      25.570  19.003   4.737  0.00  0.00     0.177 A 
HETATM  108  C   UNK N   1      25.826  20.001   5.885  0.00  0.00     0.044 A 
HETATM  109  C   UNK N   1      27.249  20.544   5.719  0.00  0.00     0.105 A 
HETATM  110  C   UNK N   1      27.740  19.737   4.590  0.00  0.00     0.218 A 
HETATM  111  O   UNK N   1      28.878  19.817   4.159  0.00  0.00    -0.274 OA
HETATM  112  N   UNK N   1      26.836  18.907   4.066  0.00  0.00    -0.348 N 
HETATM  113  H   UNK N   1      27.015  18.302   3.310  0.00  0.00     0.163 HD
ENDBRANCH 104 107
ENDBRANCH  96 103
ENDBRANCH  93  96
ENDBRANCH  84  92
ENDBRANCH  81  84
ENDBRANCH  75  80
ENDBRANCH  72  75
ENDBRANCH  64  71
ENDBRANCH  61  64
ENDBRANCH   1  60
TORSDOF 47
ENDMDL
MODEL 3
REMARK VINA RESULT:      -6.8      2.206      4.749
REMARK WARNING: 32 MAX_TORS EXCEEDED!!!
REMARK  47 active torsions:
REMARK  status: ('A' for Active; 'I' for Inactive)
REMARK    1  A    between atoms: C_2  and  C_3 
REMARK    2  A    between atoms: C_2  and  N_34 
REMARK       I    between atoms: C_3  and  N_5 
REMARK    3  A    between atoms: C_6  and  N_5 
REMARK    4  A    between atoms: C_6  and  C_7 
REMARK    5  A    between atoms: C_6  and  C_11 
REMARK    6  A    between atoms: C_7  and  C_8 
REMARK       I    between atoms: C_11  and  N_13 
REMARK    7  A    between atoms: C_14  and  N_13 
REMARK    8  A    between atoms: C_14  and  C_15 
REMARK    9  A    between atoms: C_14  and  C_19 
REMARK   10  A    between atoms: C_15  and  C_16 
REMARK       I    between atoms: C_16  and  N_18 
REMARK       I    between atoms: C_19  and  N_21 
REMARK   11  A    between atoms: C_22  and  N_21 
REMARK   12  A    between atoms: C_22  and  C_23 
REMARK   13  A    between atoms: C_22  and  C_25 
REMARK   14  A    between atoms: C_23  and  O_24 
REMARK       I    between atoms: C_25  and  N_27 
REMARK   15  A    between atoms: C_28  and  N_27 
REMARK   16  A    between atoms: C_28  and  C_29 
REMARK   17  A    between atoms: C_28  and  C_31 
REMARK   18  A    between atoms: C_29  and  O_30 
REMARK   19  A    between atoms: C_31  and  O_33 
REMARK       I    between atoms: N_34  and  C_35 
REMARK   20  A    between atoms: C_35  and  C_37 
REMARK   21  A    between atoms: C_37  and  C_38 
REMARK   22  A    between atoms: C_37  and  N_46 
REMARK   23  A    between atoms: C_38  and  C_39 
REMARK   24  A    between atoms: C_39  and  C_40 
REMARK   25  A    between atoms: C_40  and  N_41 
REMARK       I    between atoms: N_41  and  C_42 
REMARK       I    between atoms: C_42  and  N_45 
REMARK       I    between atoms: N_46  and  C_47 
REMARK   26  A    between atoms: C_47  and  C_49 
REMARK   27  A    between atoms: C_49  and  C_50 
REMARK   28  A    between atoms: C_49  and  N_55 
REMARK   29  A    between atoms: C_50  and  C_51 
REMARK   30  A    between atoms: C_51  and  C_52 
REMARK   31  A    between atoms: C_52  and  O_54 
REMARK       I    between atoms: N_55  and  C_56 
REMARK   32  A    between atoms: C_56  and  C_58 
REMARK   33  A    between atoms: C_58  and  C_59 
REMARK   34  A    between atoms: C_58  and  N_63 
REMARK   35  A    between atoms: C_59  and  C_60 
REMARK       I    between atoms: N_63  and  C_64 
REMARK   36  A    between atoms: C_64  and  C_66 
REMARK   37  A    between atoms: C_66  and  C_67 
REMARK   38  A    between atoms: C_66  and  N_72 
REMARK   39  A    between atoms: C_67  and  C_68 
REMARK   40  A    between atoms: C_68  and  C_69 
REMARK       I    between atoms: C_69  and  N_71 
REMARK       I    between atoms: N_72  and  C_73 
REMARK   41  A    between atoms: C_73  and  C_75 
REMARK   42  A    between atoms: C_75  and  C_76 
REMARK   43  A    between atoms: C_75  and  N_81 
REMARK   44  A    between atoms: C_76  and  C_77 
REMARK   45  A    between atoms: C_77  and  C_78 
REMARK   46  A    between atoms: C_78  and  O_80 
REMARK       I    between atoms: N_81  and  C_82 
REMARK   47  A    between atoms: C_84  and  C_82 
ROOT
HETATM    1  C   UNK N   1      25.638  14.350   4.594  0.00  0.00     0.176 C 
ENDROOT
BRANCH   1   2
HETATM    2  C   UNK N   1      26.243  14.784   5.912  0.00  0.00     0.241 C 
HETATM    3  N   UNK N   1      27.528  15.218   5.997  0.00  0.00    -0.346 N 
HETATM    4  H   UNK N   1      27.831  15.606   6.849  0.00  0.00     0.163 HD
HETATM    5  O   UNK N   1      25.539  14.829   6.908  0.00  0.00    -0.271 OA
BRANCH   3   6
HETATM    6  C   UNK N   1      28.480  15.145   4.908  0.00  0.00     0.172 C 
HETATM    7  C   UNK N   1      29.381  13.931   5.056  0.00  0.00     0.042 C 
BRANCH   6   8
HETATM    8  C   UNK N   1      29.267  16.404   4.579  0.00  0.00     0.240 C 
HETATM    9  O   UNK N   1      29.496  16.625   3.402  0.00  0.00    -0.271 OA
HETATM   10  N   UNK N   1      29.693  17.317   5.498  0.00  0.00    -0.346 N 
HETATM   11  H   UNK N   1      30.025  18.173   5.141  0.00  0.00     0.163 HD
BRANCH  10  12
HETATM   12  C   UNK N   1      29.713  17.173   6.944  0.00  0.00     0.177 C 
BRANCH  12  13
HETATM   13  C   UNK N   1      29.402  18.522   7.627  0.00  0.00     0.038 C 
BRANCH  13  14
HETATM   14  C   UNK N   1      28.673  18.457   8.978  0.00  0.00    -0.020 C 
HETATM   15  C   UNK N   1      27.822  17.207   9.025  0.00  0.00     0.009 C 
HETATM   16  C   UNK N   1      29.615  18.456  10.168  0.00  0.00     0.009 C 
ENDBRANCH  13  14
ENDBRANCH  12  13
BRANCH  12  17
HETATM   17  C   UNK N   1      31.074  16.674   7.313  0.00  0.00     0.241 C 
HETATM   18  O   UNK N   1      31.260  15.466   7.340  0.00  0.00    -0.271 OA
HETATM   19  N   UNK N   1      32.122  17.535   7.445  0.00  0.00    -0.346 N 
HETATM   20  H   UNK N   1      31.943  18.471   7.692  0.00  0.00     0.163 HD
BRANCH  19  21
HETATM   21  C   UNK N   1      33.491  17.112   7.231  0.00  0.00     0.185 C 
BRANCH  21  22
HETATM   22  C   UNK N   1      33.919  17.453   5.786  0.00  0.00     0.137 C 
BRANCH  22  23
HETATM   23  C   UNK N   1      33.056  16.955   4.682  0.00  0.00     0.217 C 
HETATM   24  O   UNK N   1      32.524  17.742   3.923  0.00  0.00    -0.274 OA
HETATM   25  N   UNK N   1      32.978  15.631   4.444  0.00  0.00    -0.370 N 
HETATM   26  H   UNK N   1      32.968  14.706   4.782  0.00  0.00     0.159 HD
HETATM   27  H   UNK N   1      32.889  15.549   3.467  0.00  0.00     0.159 HD
ENDBRANCH  22  23
ENDBRANCH  21  22
BRANCH  21  28
HETATM   28  C   UNK N   1      34.292  17.804   8.326  0.00  0.00     0.241 C 
HETATM   29  O   UNK N   1      34.487  19.005   8.262  0.00  0.00    -0.271 OA
HETATM   30  N   UNK N   1      34.704  17.137   9.433  0.00  0.00    -0.344 N 
HETATM   31  H   UNK N   1      35.074  17.658  10.182  0.00  0.00     0.163 HD
BRANCH  30  32
HETATM   32  C   UNK N   1      34.626  15.706   9.566  0.00  0.00     0.200 C 
BRANCH  32  33
HETATM   33  C   UNK N   1      33.294  15.306  10.201  0.00  0.00     0.199 C 
BRANCH  33  34
HETATM   34  O   UNK N   1      32.767  14.165   9.594  0.00  0.00    -0.398 OA
HETATM   35  H   UNK N   1      32.210  13.527  10.068  0.00  0.00     0.209 HD
ENDBRANCH  33  34
ENDBRANCH  32  33
BRANCH  32  36
HETATM   36  C   UNK N   1      35.735  15.282  10.482  0.00  0.00     0.243 C 
HETATM   37  O   UNK N   1      36.863  15.744  10.316  0.00  0.00    -0.271 OA
HETATM   38  N   UNK N   1      35.504  14.414  11.488  0.00  0.00    -0.343 N 
HETATM   39  H   UNK N   1      34.594  14.059  11.610  0.00  0.00     0.163 HD
BRANCH  38  40
HETATM   40  C   UNK N   1      36.549  13.984  12.397  0.00  0.00     0.206 C 
BRANCH  40  41
HETATM   41  C   UNK N   1      36.042  14.076  13.825  0.00  0.00     0.200 C 
BRANCH  41  42
HETATM   42  O   UNK N   1      37.113  13.934  14.707  0.00  0.00    -0.398 OA
HETATM   43  H   UNK N   1      37.840  13.309  14.562  0.00  0.00     0.209 HD
ENDBRANCH  41  42
ENDBRANCH  40  41
BRANCH  40  44
HETATM   44  C   UNK N   1      37.051  12.600  12.050  0.00  0.00     0.165 C 
HETATM   45  O   UNK N   1      37.378  12.324  10.906  0.00  0.00    -0.648 OA
BRANCH  44  46
HETATM   46  O   UNK N   1      37.086  11.642  12.992  0.00  0.00    -0.775 OA
HETATM   47  H   UNK N   1      36.400  11.203  13.457  0.00  0.00     0.167 HD
ENDBRANCH  44  46
ENDBRANCH  40  44
ENDBRANCH  38  40
ENDBRANCH  32  36
ENDBRANCH  30  32
ENDBRANCH  21  28
ENDBRANCH  19  21
ENDBRANCH  12  17
ENDBRANCH  10  12
ENDBRANCH   6   8
ENDBRANCH   3   6
ENDBRANCH   1   2
BRANCH   1  48
HETATM   48  C   UNK N   1      25.816  12.899   4.185  0.00  0.00     0.036 C 
BRANCH  48  49
HETATM   49  C   UNK N   1      26.596  12.843   2.878  0.00  0.00     0.023 C 
BRANCH  49  50
HETATM   50  C   UNK N   1      26.038  11.797   1.921  0.00  0.00     0.138 C 
BRANCH  50  51
HETATM   51  N   UNK N   1      25.031  12.403   1.091  0.00  0.00    -0.227 N 
HETATM   52  C   UNK N   1      24.205  11.628   0.242  0.00  0.00     0.665 C 
HETATM   53  N   UNK N   1      24.346  10.355   0.180  0.00  0.00    -0.235 N 
HETATM   54  N   UNK N   1      23.174  12.255  -0.490  0.00  0.00    -0.235 N 
HETATM   55  H   UNK N   1      23.733   9.752  -0.301  0.00  0.00     0.174 HD
ATOM     56  HN  UNK N   1      25.144   9.939   0.659  1.00  0.00     0.174 HD
HETATM   57  H   UNK N   1      22.877  13.162  -0.249  0.00  0.00     0.174 HD
HETATM   58  H   UNK N   1      22.749  11.783  -1.243  0.00  0.00     0.174 HD
HETATM   59  H   UNK N   1      24.913  13.380   1.117  0.00  0.00     0.177 HD
ENDBRANCH  50  51
ENDBRANCH  49  50
ENDBRANCH  48  49
ENDBRANCH   1  48
BRANCH   1  60
HETATM   60  N   UNK N   1      25.683  15.244   3.451  0.00  0.00    -0.346 N 
HETATM   61  C   UNK N   1      25.318  16.553   3.377  0.00  0.00     0.241 C 
HETATM   62  O   UNK N   1      25.585  17.172   2.360  0.00  0.00    -0.271 OA
HETATM   63  H   UNK N   1      26.023  14.850   2.615  0.00  0.00     0.163 HD
BRANCH  61  64
HETATM   64  C   UNK N   1      24.548  17.272   4.452  0.00  0.00     0.177 C 
BRANCH  64  65
HETATM   65  C   UNK N   1      25.532  18.065   5.291  0.00  0.00     0.045 C 
BRANCH  65  66
HETATM   66  C   UNK N   1      25.474  19.539   4.979  0.00  0.00     0.112 C 
BRANCH  66  67
HETATM   67  C   UNK N   1      26.695  19.947   4.230  0.00  0.00     0.139 C 
HETATM   68  O   UNK N   1      26.583  20.499   3.149  0.00  0.00    -0.650 OA
BRANCH  67  69
HETATM   69  O   UNK N   1      27.919  19.712   4.742  0.00  0.00    -0.776 OA
HETATM   70  H   UNK N   1      28.532  19.145   4.318  0.00  0.00     0.167 HD
ENDBRANCH  67  69
ENDBRANCH  66  67
ENDBRANCH  65  66
ENDBRANCH  64  65
BRANCH  64  71
HETATM   71  N   UNK N   1      23.519  18.152   3.940  0.00  0.00    -0.346 N 
HETATM   72  C   UNK N   1      22.233  17.801   3.679  0.00  0.00     0.241 C 
HETATM   73  O   UNK N   1      21.486  18.635   3.188  0.00  0.00    -0.271 OA
HETATM   74  H   UNK N   1      23.773  19.088   3.765  0.00  0.00     0.163 HD
BRANCH  72  75
HETATM   75  C   UNK N   1      21.709  16.409   3.931  0.00  0.00     0.177 C 
BRANCH  75  76
HETATM   76  C   UNK N   1      21.839  15.682   2.596  0.00  0.00     0.038 C 
BRANCH  76  77
HETATM   77  C   UNK N   1      20.510  15.418   1.924  0.00  0.00    -0.020 C 
HETATM   78  C   UNK N   1      20.377  16.358   0.745  0.00  0.00     0.009 C 
HETATM   79  C   UNK N   1      20.496  13.994   1.404  0.00  0.00     0.009 C 
ENDBRANCH  76  77
ENDBRANCH  75  76
BRANCH  75  80
HETATM   80  N   UNK N   1      20.301  16.494   4.300  0.00  0.00    -0.346 N 
HETATM   81  C   UNK N   1      19.684  15.772   5.281  0.00  0.00     0.241 C 
HETATM   82  O   UNK N   1      18.512  16.001   5.525  0.00  0.00    -0.271 OA
HETATM   83  H   UNK N   1      19.744  17.130   3.795  0.00  0.00     0.163 HD
BRANCH  81  84
HETATM   84  C   UNK N   1      20.420  14.703   6.063  0.00  0.00     0.177 C 
BRANCH  84  85
HETATM   85  C   UNK N   1      20.331  15.003   7.554  0.00  0.00     0.044 C 
BRANCH  85  86
HETATM   86  C   UNK N   1      20.839  16.411   7.839  0.00  0.00     0.105 C 
BRANCH  86  87
HETATM   87  C   UNK N   1      19.815  17.235   8.557  0.00  0.00     0.215 C 
HETATM   88  O   UNK N   1      20.138  18.263   9.128  0.00  0.00    -0.274 OA
HETATM   89  N   UNK N   1      18.522  16.861   8.539  0.00  0.00    -0.370 N 
HETATM   90  H   UNK N   1      17.820  17.500   8.800  0.00  0.00     0.159 HD
HETATM   91  H   UNK N   1      18.277  15.948   8.264  0.00  0.00     0.159 HD
ENDBRANCH  86  87
ENDBRANCH  85  86
ENDBRANCH  84  85
BRANCH  84  92
HETATM   92  N   UNK N   1      19.962  13.331   5.897  0.00  0.00    -0.346 N 
HETATM   93  C   UNK N   1      20.646  12.165   5.748  0.00  0.00     0.241 C 
HETATM   94  O   UNK N   1      20.033  11.125   5.917  0.00  0.00    -0.271 OA
HETATM   95  H   UNK N   1      18.983  13.230   5.892  0.00  0.00     0.163 HD
BRANCH  93  96
HETATM   96  C   UNK N   1      22.112  12.059   5.419  0.00  0.00     0.177 C 
BRANCH  96  97
HETATM   97  C   UNK N   1      22.438  12.141   3.937  0.00  0.00     0.045 C 
BRANCH  97  98
HETATM   98  C   UNK N   1      22.688  10.749   3.385  0.00  0.00     0.112 C 
BRANCH  98  99
HETATM   99  C   UNK N   1      21.484  10.279   2.643  0.00  0.00     0.139 C 
HETATM  100  O   UNK N   1      21.371  10.510   1.450  0.00  0.00    -0.650 OA
BRANCH  99 101
HETATM  101  O   UNK N   1      20.517   9.610   3.292  0.00  0.00    -0.776 OA
HETATM  102  H   UNK N   1      19.765   9.297   2.829  0.00  0.00     0.167 HD
ENDBRANCH  99 101
ENDBRANCH  98  99
ENDBRANCH  97  98
ENDBRANCH  96  97
BRANCH  96 103
HETATM  103  N   UNK N   1      22.744  10.931   6.077  0.00  0.00    -0.346 N 
HETATM  104  C   UNK N   1      23.166  10.954   7.372  0.00  0.00     0.241 C 
HETATM  105  O   UNK N   1      23.689   9.956   7.843  0.00  0.00    -0.271 OA
HETATM  106  H   UNK N   1      22.877  10.105   5.560  0.00  0.00     0.163 HD
BRANCH 104 107
HETATM  107  C   UNK N   1      22.999  12.185   8.236  0.00  0.00     0.177 A 
HETATM  108  C   UNK N   1      22.557  11.782   9.657  0.00  0.00     0.044 A 
HETATM  109  C   UNK N   1      23.553  12.399  10.645  0.00  0.00     0.105 A 
HETATM  110  C   UNK N   1      24.545  12.987   9.730  0.00  0.00     0.218 A 
HETATM  111  O   UNK N   1      25.560  13.544  10.116  0.00  0.00    -0.274 OA
HETATM  112  N   UNK N   1      24.246  12.867   8.435  0.00  0.00    -0.348 N 
HETATM  113  H   UNK N   1      24.813  13.206   7.704  0.00  0.00     0.163 HD
ENDBRANCH 104 107
ENDBRANCH  96 103
ENDBRANCH  93  96
ENDBRANCH  84  92
ENDBRANCH  81  84
ENDBRANCH  75  80
ENDBRANCH  72  75
ENDBRANCH  64  71
ENDBRANCH  61  64
ENDBRANCH   1  60
TORSDOF 47
ENDMDL
MODEL 4
REMARK VINA RESULT:      -6.7      2.447      5.756
REMARK WARNING: 32 MAX_TORS EXCEEDED!!!
REMARK  47 active torsions:
REMARK  status: ('A' for Active; 'I' for Inactive)
REMARK    1  A    between atoms: C_2  and  C_3 
REMARK    2  A    between atoms: C_2  and  N_34 
REMARK       I    between atoms: C_3  and  N_5 
REMARK    3  A    between atoms: C_6  and  N_5 
REMARK    4  A    between atoms: C_6  and  C_7 
REMARK    5  A    between atoms: C_6  and  C_11 
REMARK    6  A    between atoms: C_7  and  C_8 
REMARK       I    between atoms: C_11  and  N_13 
REMARK    7  A    between atoms: C_14  and  N_13 
REMARK    8  A    between atoms: C_14  and  C_15 
REMARK    9  A    between atoms: C_14  and  C_19 
REMARK   10  A    between atoms: C_15  and  C_16 
REMARK       I    between atoms: C_16  and  N_18 
REMARK       I    between atoms: C_19  and  N_21 
REMARK   11  A    between atoms: C_22  and  N_21 
REMARK   12  A    between atoms: C_22  and  C_23 
REMARK   13  A    between atoms: C_22  and  C_25 
REMARK   14  A    between atoms: C_23  and  O_24 
REMARK       I    between atoms: C_25  and  N_27 
REMARK   15  A    between atoms: C_28  and  N_27 
REMARK   16  A    between atoms: C_28  and  C_29 
REMARK   17  A    between atoms: C_28  and  C_31 
REMARK   18  A    between atoms: C_29  and  O_30 
REMARK   19  A    between atoms: C_31  and  O_33 
REMARK       I    between atoms: N_34  and  C_35 
REMARK   20  A    between atoms: C_35  and  C_37 
REMARK   21  A    between atoms: C_37  and  C_38 
REMARK   22  A    between atoms: C_37  and  N_46 
REMARK   23  A    between atoms: C_38  and  C_39 
REMARK   24  A    between atoms: C_39  and  C_40 
REMARK   25  A    between atoms: C_40  and  N_41 
REMARK       I    between atoms: N_41  and  C_42 
REMARK       I    between atoms: C_42  and  N_45 
REMARK       I    between atoms: N_46  and  C_47 
REMARK   26  A    between atoms: C_47  and  C_49 
REMARK   27  A    between atoms: C_49  and  C_50 
REMARK   28  A    between atoms: C_49  and  N_55 
REMARK   29  A    between atoms: C_50  and  C_51 
REMARK   30  A    between atoms: C_51  and  C_52 
REMARK   31  A    between atoms: C_52  and  O_54 
REMARK       I    between atoms: N_55  and  C_56 
REMARK   32  A    between atoms: C_56  and  C_58 
REMARK   33  A    between atoms: C_58  and  C_59 
REMARK   34  A    between atoms: C_58  and  N_63 
REMARK   35  A    between atoms: C_59  and  C_60 
REMARK       I    between atoms: N_63  and  C_64 
REMARK   36  A    between atoms: C_64  and  C_66 
REMARK   37  A    between atoms: C_66  and  C_67 
REMARK   38  A    between atoms: C_66  and  N_72 
REMARK   39  A    between atoms: C_67  and  C_68 
REMARK   40  A    between atoms: C_68  and  C_69 
REMARK       I    between atoms: C_69  and  N_71 
REMARK       I    between atoms: N_72  and  C_73 
REMARK   41  A    between atoms: C_73  and  C_75 
REMARK   42  A    between atoms: C_75  and  C_76 
REMARK   43  A    between atoms: C_75  and  N_81 
REMARK   44  A    between atoms: C_76  and  C_77 
REMARK   45  A    between atoms: C_77  and  C_78 
REMARK   46  A    between atoms: C_78  and  O_80 
REMARK       I    between atoms: N_81  and  C_82 
REMARK   47  A    between atoms: C_84  and  C_82 
ROOT
HETATM    1  C   UNK N   1      28.173  16.579   4.917  0.00  0.00     0.176 C 
ENDROOT
BRANCH   1   2
HETATM    2  C   UNK N   1      27.933  15.281   4.178  0.00  0.00     0.241 C 
HETATM    3  N   UNK N   1      28.902  14.335   4.068  0.00  0.00    -0.346 N 
HETATM    4  H   UNK N   1      28.655  13.460   3.689  0.00  0.00     0.163 HD
HETATM    5  O   UNK N   1      26.818  15.036   3.744  0.00  0.00    -0.271 OA
BRANCH   3   6
HETATM    6  C   UNK N   1      30.277  14.534   4.475  0.00  0.00     0.172 C 
HETATM    7  C   UNK N   1      31.112  15.066   3.323  0.00  0.00     0.042 C 
BRANCH   6   8
HETATM    8  C   UNK N   1      30.967  13.389   5.200  0.00  0.00     0.240 C 
HETATM    9  O   UNK N   1      30.674  12.256   4.856  0.00  0.00    -0.271 OA
HETATM   10  N   UNK N   1      31.915  13.540   6.169  0.00  0.00    -0.346 N 
HETATM   11  H   UNK N   1      32.413  12.730   6.423  0.00  0.00     0.163 HD
BRANCH  10  12
HETATM   12  C   UNK N   1      32.275  14.762   6.870  0.00  0.00     0.177 C 
BRANCH  12  13
HETATM   13  C   UNK N   1      33.193  15.639   5.992  0.00  0.00     0.038 C 
BRANCH  13  14
HETATM   14  C   UNK N   1      32.918  17.150   6.005  0.00  0.00    -0.020 C 
HETATM   15  C   UNK N   1      33.835  17.814   7.009  0.00  0.00     0.009 C 
HETATM   16  C   UNK N   1      33.115  17.807   4.651  0.00  0.00     0.009 C 
ENDBRANCH  13  14
ENDBRANCH  12  13
BRANCH  12  17
HETATM   17  C   UNK N   1      32.957  14.352   8.137  0.00  0.00     0.241 C 
HETATM   18  O   UNK N   1      32.506  14.763   9.196  0.00  0.00    -0.271 OA
HETATM   19  N   UNK N   1      33.944  13.412   8.126  0.00  0.00    -0.346 N 
HETATM   20  H   UNK N   1      34.479  13.291   7.310  0.00  0.00     0.163 HD
BRANCH  19  21
HETATM   21  C   UNK N   1      34.225  12.586   9.283  0.00  0.00     0.185 C 
BRANCH  21  22
HETATM   22  C   UNK N   1      33.713  11.150   9.032  0.00  0.00     0.137 C 
BRANCH  22  23
HETATM   23  C   UNK N   1      33.505  10.736   7.620  0.00  0.00     0.217 C 
HETATM   24  O   UNK N   1      34.458  10.627   6.871  0.00  0.00    -0.274 OA
HETATM   25  N   UNK N   1      32.280  10.351   7.212  0.00  0.00    -0.370 N 
HETATM   26  H   UNK N   1      31.301  10.442   7.260  0.00  0.00     0.159 HD
HETATM   27  H   UNK N   1      32.440   9.639   6.550  0.00  0.00     0.159 HD
ENDBRANCH  22  23
ENDBRANCH  21  22
BRANCH  21  28
HETATM   28  C   UNK N   1      35.727  12.712   9.500  0.00  0.00     0.241 C 
HETATM   29  O   UNK N   1      36.485  11.956   8.917  0.00  0.00    -0.271 OA
HETATM   30  N   UNK N   1      36.257  13.716  10.242  0.00  0.00    -0.344 N 
HETATM   31  H   UNK N   1      37.232  13.850  10.221  0.00  0.00     0.163 HD
BRANCH  30  32
HETATM   32  C   UNK N   1      35.461  14.596  11.060  0.00  0.00     0.200 C 
BRANCH  32  33
HETATM   33  C   UNK N   1      35.862  16.051  10.815  0.00  0.00     0.199 C 
BRANCH  33  34
HETATM   34  O   UNK N   1      34.830  16.924  11.161  0.00  0.00    -0.398 OA
HETATM   35  H   UNK N   1      34.024  17.020  10.630  0.00  0.00     0.209 HD
ENDBRANCH  33  34
ENDBRANCH  32  33
BRANCH  32  36
HETATM   36  C   UNK N   1      35.752  14.257  12.492  0.00  0.00     0.243 C 
HETATM   37  O   UNK N   1      36.241  15.113  13.226  0.00  0.00    -0.271 OA
HETATM   38  N   UNK N   1      35.471  13.031  12.981  0.00  0.00    -0.343 N 
HETATM   39  H   UNK N   1      35.073  12.360  12.380  0.00  0.00     0.163 HD
BRANCH  38  40
HETATM   40  C   UNK N   1      35.732  12.668  14.359  0.00  0.00     0.206 C 
BRANCH  40  41
HETATM   41  C   UNK N   1      34.438  12.221  15.016  0.00  0.00     0.200 C 
BRANCH  41  42
HETATM   42  O   UNK N   1      34.038  13.176  15.950  0.00  0.00    -0.398 OA
HETATM   43  H   UNK N   1      33.361  13.847  15.766  0.00  0.00     0.209 HD
ENDBRANCH  41  42
ENDBRANCH  40  41
BRANCH  40  44
HETATM   44  C   UNK N   1      36.821  11.623  14.459  0.00  0.00     0.165 C 
HETATM   45  O   UNK N   1      37.519  11.354  13.494  0.00  0.00    -0.648 OA
BRANCH  44  46
HETATM   46  O   UNK N   1      36.992  10.938  15.604  0.00  0.00    -0.775 OA
HETATM   47  H   UNK N   1      37.723  10.452  15.932  0.00  0.00     0.167 HD
ENDBRANCH  44  46
ENDBRANCH  40  44
ENDBRANCH  38  40
ENDBRANCH  32  36
ENDBRANCH  30  32
ENDBRANCH  21  28
ENDBRANCH  19  21
ENDBRANCH  12  17
ENDBRANCH  10  12
ENDBRANCH   6   8
ENDBRANCH   3   6
ENDBRANCH   1   2
BRANCH   1  48
HETATM   48  C   UNK N   1      27.494  16.756   6.263  0.00  0.00     0.036 C 
BRANCH  48  49
HETATM   49  C   UNK N   1      28.546  17.094   7.311  0.00  0.00     0.023 C 
BRANCH  49  50
HETATM   50  C   UNK N   1      28.777  18.595   7.429  0.00  0.00     0.138 C 
BRANCH  50  51
HETATM   51  N   UNK N   1      27.592  19.217   7.957  0.00  0.00    -0.227 N 
HETATM   52  C   UNK N   1      27.112  20.449   7.449  0.00  0.00     0.665 C 
HETATM   53  N   UNK N   1      27.737  21.054   6.507  0.00  0.00    -0.235 N 
HETATM   54  N   UNK N   1      25.899  20.980   7.938  0.00  0.00    -0.235 N 
HETATM   55  H   UNK N   1      27.395  21.849   6.036  0.00  0.00     0.174 HD
ATOM     56  HN  UNK N   1      28.646  20.688   6.225  1.00  0.00     0.174 HD
HETATM   57  H   UNK N   1      25.278  20.410   8.446  0.00  0.00     0.174 HD
HETATM   58  H   UNK N   1      25.673  21.924   7.770  0.00  0.00     0.174 HD
HETATM   59  H   UNK N   1      27.103  18.775   8.687  0.00  0.00     0.177 HD
ENDBRANCH  50  51
ENDBRANCH  49  50
ENDBRANCH  48  49
ENDBRANCH   1  48
BRANCH   1  60
HETATM   60  N   UNK N   1      28.244  17.828   4.179  0.00  0.00    -0.346 N 
HETATM   61  C   UNK N   1      27.284  18.777   4.014  0.00  0.00     0.241 C 
HETATM   62  O   UNK N   1      27.596  19.833   3.490  0.00  0.00    -0.271 OA
HETATM   63  H   UNK N   1      29.104  18.013   3.737  0.00  0.00     0.163 HD
BRANCH  61  64
HETATM   64  C   UNK N   1      25.838  18.582   4.386  0.00  0.00     0.177 C 
BRANCH  64  65
HETATM   65  C   UNK N   1      25.158  19.938   4.375  0.00  0.00     0.045 C 
BRANCH  65  66
HETATM   66  C   UNK N   1      24.583  20.265   3.021  0.00  0.00     0.112 C 
BRANCH  66  67
HETATM   67  C   UNK N   1      23.112  20.470   3.130  0.00  0.00     0.139 C 
HETATM   68  O   UNK N   1      22.406  19.566   3.544  0.00  0.00    -0.650 OA
BRANCH  67  69
HETATM   69  O   UNK N   1      22.560  21.647   2.779  0.00  0.00    -0.776 OA
HETATM   70  H   UNK N   1      22.692  22.426   3.282  0.00  0.00     0.167 HD
ENDBRANCH  67  69
ENDBRANCH  66  67
ENDBRANCH  65  66
ENDBRANCH  64  65
BRANCH  64  71
HETATM   71  N   UNK N   1      25.130  17.671   3.512  0.00  0.00    -0.346 N 
HETATM   72  C   UNK N   1      24.234  16.729   3.907  0.00  0.00     0.241 C 
HETATM   73  O   UNK N   1      23.758  15.984   3.063  0.00  0.00    -0.271 OA
HETATM   74  H   UNK N   1      25.315  17.739   2.547  0.00  0.00     0.163 HD
BRANCH  72  75
HETATM   75  C   UNK N   1      23.841  16.544   5.351  0.00  0.00     0.177 C 
BRANCH  75  76
HETATM   76  C   UNK N   1      23.116  15.201   5.401  0.00  0.00     0.038 C 
BRANCH  76  77
HETATM   77  C   UNK N   1      24.026  14.040   5.734  0.00  0.00    -0.020 C 
HETATM   78  C   UNK N   1      24.727  14.343   7.041  0.00  0.00     0.009 C 
HETATM   79  C   UNK N   1      23.184  12.793   5.921  0.00  0.00     0.009 C 
ENDBRANCH  76  77
ENDBRANCH  75  76
BRANCH  75  80
HETATM   80  N   UNK N   1      22.917  17.606   5.729  0.00  0.00    -0.346 N 
HETATM   81  C   UNK N   1      21.716  17.439   6.357  0.00  0.00     0.241 C 
HETATM   82  O   UNK N   1      21.080  18.429   6.676  0.00  0.00    -0.271 OA
HETATM   83  H   UNK N   1      23.184  18.529   5.513  0.00  0.00     0.163 HD
BRANCH  81  84
HETATM   84  C   UNK N   1      21.164  16.061   6.661  0.00  0.00     0.177 C 
BRANCH  84  85
HETATM   85  C   UNK N   1      21.337  15.753   8.144  0.00  0.00     0.044 C 
BRANCH  85  86
HETATM   86  C   UNK N   1      21.118  14.267   8.402  0.00  0.00     0.105 C 
BRANCH  86  87
HETATM   87  C   UNK N   1      20.220  14.035   9.577  0.00  0.00     0.215 C 
HETATM   88  O   UNK N   1      19.152  14.618   9.664  0.00  0.00    -0.274 OA
HETATM   89  N   UNK N   1      20.573  13.146  10.525  0.00  0.00    -0.370 N 
HETATM   90  H   UNK N   1      19.902  12.817  11.166  0.00  0.00     0.159 HD
HETATM   91  H   UNK N   1      21.501  12.825  10.576  0.00  0.00     0.159 HD
ENDBRANCH  86  87
ENDBRANCH  85  86
ENDBRANCH  84  85
BRANCH  84  92
HETATM   92  N   UNK N   1      19.758  15.832   6.361  0.00  0.00    -0.346 N 
HETATM   93  C   UNK N   1      19.128  15.493   5.205  0.00  0.00     0.241 C 
HETATM   94  O   UNK N   1      17.983  15.082   5.285  0.00  0.00    -0.271 OA
HETATM   95  H   UNK N   1      19.157  15.943   7.133  0.00  0.00     0.163 HD
BRANCH  93  96
HETATM   96  C   UNK N   1      19.746  15.558   3.833  0.00  0.00     0.177 C 
BRANCH  96  97
HETATM   97  C   UNK N   1      19.838  16.956   3.243  0.00  0.00     0.045 C 
BRANCH  97  98
HETATM   98  C   UNK N   1      20.789  16.957   2.060  0.00  0.00     0.112 C 
BRANCH  98  99
HETATM   99  C   UNK N   1      20.027  17.214   0.804  0.00  0.00     0.139 C 
HETATM  100  O   UNK N   1      20.465  17.992  -0.028  0.00  0.00    -0.650 OA
BRANCH  99 101
HETATM  101  O   UNK N   1      18.853  16.597   0.596  0.00  0.00    -0.776 OA
HETATM  102  H   UNK N   1      18.541  16.456  -0.277  0.00  0.00     0.167 HD
ENDBRANCH  99 101
ENDBRANCH  98  99
ENDBRANCH  97  98
ENDBRANCH  96  97
BRANCH  96 103
HETATM  103  N   UNK N   1      19.160  14.595   2.919  0.00  0.00    -0.346 N 
HETATM  104  C   UNK N   1      19.810  13.480   2.483  0.00  0.00     0.241 C 
HETATM  105  O   UNK N   1      19.238  12.724   1.712  0.00  0.00    -0.271 OA
HETATM  106  H   UNK N   1      18.245  14.757   2.595  0.00  0.00     0.163 HD
BRANCH 104 107
HETATM  107  C   UNK N   1      21.218  13.159   2.932  0.00  0.00     0.177 A 
HETATM  108  C   UNK N   1      21.444  11.633   2.925  0.00  0.00     0.044 A 
HETATM  109  C   UNK N   1      22.681  11.352   2.066  0.00  0.00     0.105 A 
HETATM  110  C   UNK N   1      22.988  12.695   1.547  0.00  0.00     0.218 A 
HETATM  111  O   UNK N   1      23.893  12.914   0.759  0.00  0.00    -0.274 OA
HETATM  112  N   UNK N   1      22.197  13.664   2.013  0.00  0.00    -0.348 N 
HETATM  113  H   UNK N   1      22.277  14.612   1.756  0.00  0.00     0.163 HD
ENDBRANCH 104 107
ENDBRANCH  96 103
ENDBRANCH  93  96
ENDBRANCH  84  92
ENDBRANCH  81  84
ENDBRANCH  75  80
ENDBRANCH  72  75
ENDBRANCH  64  71
ENDBRANCH  61  64
ENDBRANCH   1  60
TORSDOF 47
ENDMDL
MODEL 5
REMARK VINA RESULT:      -6.7      2.668      6.969
REMARK WARNING: 32 MAX_TORS EXCEEDED!!!
REMARK  47 active torsions:
REMARK  status: ('A' for Active; 'I' for Inactive)
REMARK    1  A    between atoms: C_2  and  C_3 
REMARK    2  A    between atoms: C_2  and  N_34 
REMARK       I    between atoms: C_3  and  N_5 
REMARK    3  A    between atoms: C_6  and  N_5 
REMARK    4  A    between atoms: C_6  and  C_7 
REMARK    5  A    between atoms: C_6  and  C_11 
REMARK    6  A    between atoms: C_7  and  C_8 
REMARK       I    between atoms: C_11  and  N_13 
REMARK    7  A    between atoms: C_14  and  N_13 
REMARK    8  A    between atoms: C_14  and  C_15 
REMARK    9  A    between atoms: C_14  and  C_19 
REMARK   10  A    between atoms: C_15  and  C_16 
REMARK       I    between atoms: C_16  and  N_18 
REMARK       I    between atoms: C_19  and  N_21 
REMARK   11  A    between atoms: C_22  and  N_21 
REMARK   12  A    between atoms: C_22  and  C_23 
REMARK   13  A    between atoms: C_22  and  C_25 
REMARK   14  A    between atoms: C_23  and  O_24 
REMARK       I    between atoms: C_25  and  N_27 
REMARK   15  A    between atoms: C_28  and  N_27 
REMARK   16  A    between atoms: C_28  and  C_29 
REMARK   17  A    between atoms: C_28  and  C_31 
REMARK   18  A    between atoms: C_29  and  O_30 
REMARK   19  A    between atoms: C_31  and  O_33 
REMARK       I    between atoms: N_34  and  C_35 
REMARK   20  A    between atoms: C_35  and  C_37 
REMARK   21  A    between atoms: C_37  and  C_38 
REMARK   22  A    between atoms: C_37  and  N_46 
REMARK   23  A    between atoms: C_38  and  C_39 
REMARK   24  A    between atoms: C_39  and  C_40 
REMARK   25  A    between atoms: C_40  and  N_41 
REMARK       I    between atoms: N_41  and  C_42 
REMARK       I    between atoms: C_42  and  N_45 
REMARK       I    between atoms: N_46  and  C_47 
REMARK   26  A    between atoms: C_47  and  C_49 
REMARK   27  A    between atoms: C_49  and  C_50 
REMARK   28  A    between atoms: C_49  and  N_55 
REMARK   29  A    between atoms: C_50  and  C_51 
REMARK   30  A    between atoms: C_51  and  C_52 
REMARK   31  A    between atoms: C_52  and  O_54 
REMARK       I    between atoms: N_55  and  C_56 
REMARK   32  A    between atoms: C_56  and  C_58 
REMARK   33  A    between atoms: C_58  and  C_59 
REMARK   34  A    between atoms: C_58  and  N_63 
REMARK   35  A    between atoms: C_59  and  C_60 
REMARK       I    between atoms: N_63  and  C_64 
REMARK   36  A    between atoms: C_64  and  C_66 
REMARK   37  A    between atoms: C_66  and  C_67 
REMARK   38  A    between atoms: C_66  and  N_72 
REMARK   39  A    between atoms: C_67  and  C_68 
REMARK   40  A    between atoms: C_68  and  C_69 
REMARK       I    between atoms: C_69  and  N_71 
REMARK       I    between atoms: N_72  and  C_73 
REMARK   41  A    between atoms: C_73  and  C_75 
REMARK   42  A    between atoms: C_75  and  C_76 
REMARK   43  A    between atoms: C_75  and  N_81 
REMARK   44  A    between atoms: C_76  and  C_77 
REMARK   45  A    between atoms: C_77  and  C_78 
REMARK   46  A    between atoms: C_78  and  O_80 
REMARK       I    between atoms: N_81  and  C_82 
REMARK   47  A    between atoms: C_84  and  C_82 
ROOT
HETATM    1  C   UNK N   1      29.688  16.603   4.272  0.00  0.00     0.176 C 
ENDROOT
BRANCH   1   2
HETATM    2  C   UNK N   1      29.040  15.295   4.670  0.00  0.00     0.241 C 
HETATM    3  N   UNK N   1      29.157  14.181   3.902  0.00  0.00    -0.346 N 
HETATM    4  H   UNK N   1      28.826  13.329   4.268  0.00  0.00     0.163 HD
HETATM    5  O   UNK N   1      28.472  15.212   5.747  0.00  0.00    -0.271 OA
BRANCH   3   6
HETATM    6  C   UNK N   1      29.742  14.168   2.577  0.00  0.00     0.172 C 
HETATM    7  C   UNK N   1      28.672  14.333   1.512  0.00  0.00     0.042 C 
BRANCH   6   8
HETATM    8  C   UNK N   1      30.708  13.042   2.247  0.00  0.00     0.240 C 
HETATM    9  O   UNK N   1      30.253  12.070   1.666  0.00  0.00    -0.271 OA
HETATM   10  N   UNK N   1      32.046  13.061   2.514  0.00  0.00    -0.346 N 
HETATM   11  H   UNK N   1      32.586  12.358   2.086  0.00  0.00     0.163 HD
BRANCH  10  12
HETATM   12  C   UNK N   1      32.765  14.001   3.357  0.00  0.00     0.177 C 
BRANCH  12  13
HETATM   13  C   UNK N   1      34.091  14.423   2.688  0.00  0.00     0.038 C 
BRANCH  13  14
HETATM   14  C   UNK N   1      34.634  13.495   1.592  0.00  0.00    -0.020 C 
HETATM   15  C   UNK N   1      35.426  14.313   0.595  0.00  0.00     0.009 C 
HETATM   16  C   UNK N   1      35.519  12.385   2.129  0.00  0.00     0.009 C 
ENDBRANCH  13  14
ENDBRANCH  12  13
BRANCH  12  17
HETATM   17  C   UNK N   1      33.006  13.317   4.665  0.00  0.00     0.241 C 
HETATM   18  O   UNK N   1      33.362  12.147   4.650  0.00  0.00    -0.271 OA
HETATM   19  N   UNK N   1      33.000  14.020   5.832  0.00  0.00    -0.346 N 
HETATM   20  H   UNK N   1      32.470  14.847   5.889  0.00  0.00     0.163 HD
BRANCH  19  21
HETATM   21  C   UNK N   1      33.753  13.584   6.992  0.00  0.00     0.185 C 
BRANCH  21  22
HETATM   22  C   UNK N   1      35.046  14.421   7.114  0.00  0.00     0.137 C 
BRANCH  22  23
HETATM   23  C   UNK N   1      36.325  13.758   6.745  0.00  0.00     0.217 C 
HETATM   24  O   UNK N   1      37.305  13.890   7.454  0.00  0.00    -0.274 OA
HETATM   25  N   UNK N   1      36.356  12.904   5.704  0.00  0.00    -0.370 N 
HETATM   26  H   UNK N   1      36.039  12.644   4.808  0.00  0.00     0.159 HD
HETATM   27  H   UNK N   1      37.005  12.209   5.959  0.00  0.00     0.159 HD
ENDBRANCH  22  23
ENDBRANCH  21  22
BRANCH  21  28
HETATM   28  C   UNK N   1      32.784  13.710   8.160  0.00  0.00     0.241 C 
HETATM   29  O   UNK N   1      31.883  14.530   8.109  0.00  0.00    -0.271 OA
HETATM   30  N   UNK N   1      32.827  12.857   9.214  0.00  0.00    -0.344 N 
HETATM   31  H   UNK N   1      32.085  12.876   9.861  0.00  0.00     0.163 HD
BRANCH  30  32
HETATM   32  C   UNK N   1      33.905  11.928   9.432  0.00  0.00     0.200 C 
BRANCH  32  33
HETATM   33  C   UNK N   1      33.429  10.761  10.298  0.00  0.00     0.199 C 
BRANCH  33  34
HETATM   34  O   UNK N   1      33.779  10.948  11.635  0.00  0.00    -0.398 OA
HETATM   35  H   UNK N   1      34.428  11.609  11.921  0.00  0.00     0.209 HD
ENDBRANCH  33  34
ENDBRANCH  32  33
BRANCH  32  36
HETATM   36  C   UNK N   1      34.983  12.661  10.174  0.00  0.00     0.243 C 
HETATM   37  O   UNK N   1      36.145  12.266  10.094  0.00  0.00    -0.271 OA
HETATM   38  N   UNK N   1      34.692  13.752  10.912  0.00  0.00    -0.343 N 
HETATM   39  H   UNK N   1      33.757  14.057  10.959  0.00  0.00     0.163 HD
BRANCH  38  40
HETATM   40  C   UNK N   1      35.706  14.490  11.639  0.00  0.00     0.206 C 
BRANCH  40  41
HETATM   41  C   UNK N   1      35.459  15.978  11.476  0.00  0.00     0.200 C 
BRANCH  41  42
HETATM   42  O   UNK N   1      35.855  16.378  10.200  0.00  0.00    -0.398 OA
HETATM   43  H   UNK N   1      35.244  16.756   9.549  0.00  0.00     0.209 HD
ENDBRANCH  41  42
ENDBRANCH  40  41
BRANCH  40  44
HETATM   44  C   UNK N   1      35.763  14.069  13.091  0.00  0.00     0.165 C 
HETATM   45  O   UNK N   1      34.886  13.370  13.573  0.00  0.00    -0.648 OA
BRANCH  44  46
HETATM   46  O   UNK N   1      36.758  14.512  13.880  0.00  0.00    -0.775 OA
HETATM   47  H   UNK N   1      36.775  14.735  14.790  0.00  0.00     0.167 HD
ENDBRANCH  44  46
ENDBRANCH  40  44
ENDBRANCH  38  40
ENDBRANCH  32  36
ENDBRANCH  30  32
ENDBRANCH  21  28
ENDBRANCH  19  21
ENDBRANCH  12  17
ENDBRANCH  10  12
ENDBRANCH   6   8
ENDBRANCH   3   6
ENDBRANCH   1   2
BRANCH   1  48
HETATM   48  C   UNK N   1      30.675  17.222   5.246  0.00  0.00     0.036 C 
BRANCH  48  49
HETATM   49  C   UNK N   1      32.009  17.423   4.541  0.00  0.00     0.023 C 
BRANCH  49  50
HETATM   50  C   UNK N   1      33.157  17.604   5.526  0.00  0.00     0.138 C 
BRANCH  50  51
HETATM   51  N   UNK N   1      32.720  17.213   6.840  0.00  0.00    -0.227 N 
HETATM   52  C   UNK N   1      33.452  17.564   8.000  0.00  0.00     0.665 C 
HETATM   53  N   UNK N   1      34.542  18.233   7.906  0.00  0.00    -0.235 N 
HETATM   54  N   UNK N   1      32.942  17.233   9.274  0.00  0.00    -0.235 N 
HETATM   55  H   UNK N   1      35.033  18.604   8.674  0.00  0.00     0.174 HD
ATOM     56  HN  UNK N   1      34.925  18.393   6.974  1.00  0.00     0.174 HD
HETATM   57  H   UNK N   1      31.998  16.975   9.377  0.00  0.00     0.174 HD
HETATM   58  H   UNK N   1      33.532  17.262  10.061  0.00  0.00     0.174 HD
HETATM   59  H   UNK N   1      31.892  16.690   6.934  0.00  0.00     0.177 HD
ENDBRANCH  50  51
ENDBRANCH  49  50
ENDBRANCH  48  49
ENDBRANCH   1  48
BRANCH   1  60
HETATM   60  N   UNK N   1      28.909  17.613   3.577  0.00  0.00    -0.346 N 
HETATM   61  C   UNK N   1      27.963  18.454   4.076  0.00  0.00     0.241 C 
HETATM   62  O   UNK N   1      27.539  19.341   3.355  0.00  0.00    -0.271 OA
HETATM   63  H   UNK N   1      29.089  17.701   2.612  0.00  0.00     0.163 HD
BRANCH  61  64
HETATM   64  C   UNK N   1      27.361  18.320   5.448  0.00  0.00     0.177 C 
BRANCH  64  65
HETATM   65  C   UNK N   1      28.096  19.259   6.384  0.00  0.00     0.045 C 
BRANCH  65  66
HETATM   66  C   UNK N   1      27.706  19.036   7.823  0.00  0.00     0.112 C 
BRANCH  66  67
HETATM   67  C   UNK N   1      28.154  17.687   8.267  0.00  0.00     0.139 C 
HETATM   68  O   UNK N   1      29.345  17.430   8.308  0.00  0.00    -0.650 OA
BRANCH  67  69
HETATM   69  O   UNK N   1      27.252  16.754   8.626  0.00  0.00    -0.776 OA
HETATM   70  H   UNK N   1      27.011  16.053   8.055  0.00  0.00     0.167 HD
ENDBRANCH  67  69
ENDBRANCH  66  67
ENDBRANCH  65  66
ENDBRANCH  64  65
BRANCH  64  71
HETATM   71  N   UNK N   1      25.940  18.598   5.490  0.00  0.00    -0.346 N 
HETATM   72  C   UNK N   1      24.948  17.671   5.434  0.00  0.00     0.241 C 
HETATM   73  O   UNK N   1      23.789  18.055   5.416  0.00  0.00    -0.271 OA
HETATM   74  H   UNK N   1      25.669  19.542   5.564  0.00  0.00     0.163 HD
BRANCH  72  75
HETATM   75  C   UNK N   1      25.230  16.192   5.350  0.00  0.00     0.177 C 
BRANCH  75  76
HETATM   76  C   UNK N   1      24.005  15.587   4.669  0.00  0.00     0.038 C 
BRANCH  76  77
HETATM   77  C   UNK N   1      24.068  15.645   3.159  0.00  0.00    -0.020 C 
HETATM   78  C   UNK N   1      25.486  15.335   2.729  0.00  0.00     0.009 C 
HETATM   79  C   UNK N   1      23.152  14.580   2.588  0.00  0.00     0.009 C 
ENDBRANCH  76  77
ENDBRANCH  75  76
BRANCH  75  80
HETATM   80  N   UNK N   1      25.346  15.655   6.701  0.00  0.00    -0.346 N 
HETATM   81  C   UNK N   1      24.886  14.442   7.124  0.00  0.00     0.241 C 
HETATM   82  O   UNK N   1      25.118  14.096   8.270  0.00  0.00    -0.271 OA
HETATM   83  H   UNK N   1      25.798  16.220   7.369  0.00  0.00     0.163 HD
BRANCH  81  84
HETATM   84  C   UNK N   1      24.099  13.527   6.208  0.00  0.00     0.177 C 
BRANCH  84  85
HETATM   85  C   UNK N   1      24.938  12.303   5.860  0.00  0.00     0.044 C 
BRANCH  85  86
HETATM   86  C   UNK N   1      24.837  12.002   4.369  0.00  0.00     0.105 C 
BRANCH  86  87
HETATM   87  C   UNK N   1      26.183  11.751   3.762  0.00  0.00     0.215 C 
HETATM   88  O   UNK N   1      26.372  11.951   2.574  0.00  0.00    -0.274 OA
HETATM   89  N   UNK N   1      27.202  11.342   4.540  0.00  0.00    -0.370 N 
HETATM   90  H   UNK N   1      28.128  11.398   4.209  0.00  0.00     0.159 HD
HETATM   91  H   UNK N   1      27.023  10.988   5.440  0.00  0.00     0.159 HD
ENDBRANCH  86  87
ENDBRANCH  85  86
ENDBRANCH  84  85
BRANCH  84  92
HETATM   92  N   UNK N   1      22.831  13.019   6.711  0.00  0.00    -0.346 N 
HETATM   93  C   UNK N   1      21.587  13.569   6.734  0.00  0.00     0.241 C 
HETATM   94  O   UNK N   1      20.645  12.825   6.949  0.00  0.00    -0.271 OA
HETATM   95  H   UNK N   1      22.884  12.119   7.104  0.00  0.00     0.163 HD
BRANCH  93  96
HETATM   96  C   UNK N   1      21.280  15.022   6.486  0.00  0.00     0.177 C 
BRANCH  96  97
HETATM   97  C   UNK N   1      21.634  15.952   7.635  0.00  0.00     0.045 C 
BRANCH  97  98
HETATM   98  C   UNK N   1      20.393  16.263   8.451  0.00  0.00     0.112 C 
BRANCH  98  99
HETATM   99  C   UNK N   1      20.088  17.720   8.366  0.00  0.00     0.139 C 
HETATM  100  O   UNK N   1      20.781  18.451   7.677  0.00  0.00    -0.650 OA
BRANCH  99 101
HETATM  101  O   UNK N   1      19.056  18.229   9.059  0.00  0.00    -0.776 OA
HETATM  102  H   UNK N   1      18.302  18.559   8.611  0.00  0.00     0.167 HD
ENDBRANCH  99 101
ENDBRANCH  98  99
ENDBRANCH  97  98
ENDBRANCH  96  97
BRANCH  96 103
HETATM  103  N   UNK N   1      19.930  15.222   5.990  0.00  0.00    -0.346 N 
HETATM  104  C   UNK N   1      19.625  16.053   4.955  0.00  0.00     0.241 C 
HETATM  105  O   UNK N   1      18.459  16.161   4.606  0.00  0.00    -0.271 OA
HETATM  106  H   UNK N   1      19.197  14.733   6.426  0.00  0.00     0.163 HD
BRANCH 104 107
HETATM  107  C   UNK N   1      20.694  16.842   4.232  0.00  0.00     0.177 A 
HETATM  108  C   UNK N   1      20.309  17.025   2.750  0.00  0.00     0.044 A 
HETATM  109  C   UNK N   1      20.347  18.526   2.443  0.00  0.00     0.105 A 
HETATM  110  C   UNK N   1      20.616  19.089   3.776  0.00  0.00     0.218 A 
HETATM  111  O   UNK N   1      20.674  20.289   3.993  0.00  0.00    -0.274 OA
HETATM  112  N   UNK N   1      20.799  18.181   4.737  0.00  0.00    -0.348 N 
HETATM  113  H   UNK N   1      20.984  18.404   5.678  0.00  0.00     0.163 HD
ENDBRANCH 104 107
ENDBRANCH  96 103
ENDBRANCH  93  96
ENDBRANCH  84  92
ENDBRANCH  81  84
ENDBRANCH  75  80
ENDBRANCH  72  75
ENDBRANCH  64  71
ENDBRANCH  61  64
ENDBRANCH   1  60
TORSDOF 47
ENDMDL
MODEL 6
REMARK VINA RESULT:      -6.6      2.310      4.655
REMARK WARNING: 32 MAX_TORS EXCEEDED!!!
REMARK  47 active torsions:
REMARK  status: ('A' for Active; 'I' for Inactive)
REMARK    1  A    between atoms: C_2  and  C_3 
REMARK    2  A    between atoms: C_2  and  N_34 
REMARK       I    between atoms: C_3  and  N_5 
REMARK    3  A    between atoms: C_6  and  N_5 
REMARK    4  A    between atoms: C_6  and  C_7 
REMARK    5  A    between atoms: C_6  and  C_11 
REMARK    6  A    between atoms: C_7  and  C_8 
REMARK       I    between atoms: C_11  and  N_13 
REMARK    7  A    between atoms: C_14  and  N_13 
REMARK    8  A    between atoms: C_14  and  C_15 
REMARK    9  A    between atoms: C_14  and  C_19 
REMARK   10  A    between atoms: C_15  and  C_16 
REMARK       I    between atoms: C_16  and  N_18 
REMARK       I    between atoms: C_19  and  N_21 
REMARK   11  A    between atoms: C_22  and  N_21 
REMARK   12  A    between atoms: C_22  and  C_23 
REMARK   13  A    between atoms: C_22  and  C_25 
REMARK   14  A    between atoms: C_23  and  O_24 
REMARK       I    between atoms: C_25  and  N_27 
REMARK   15  A    between atoms: C_28  and  N_27 
REMARK   16  A    between atoms: C_28  and  C_29 
REMARK   17  A    between atoms: C_28  and  C_31 
REMARK   18  A    between atoms: C_29  and  O_30 
REMARK   19  A    between atoms: C_31  and  O_33 
REMARK       I    between atoms: N_34  and  C_35 
REMARK   20  A    between atoms: C_35  and  C_37 
REMARK   21  A    between atoms: C_37  and  C_38 
REMARK   22  A    between atoms: C_37  and  N_46 
REMARK   23  A    between atoms: C_38  and  C_39 
REMARK   24  A    between atoms: C_39  and  C_40 
REMARK   25  A    between atoms: C_40  and  N_41 
REMARK       I    between atoms: N_41  and  C_42 
REMARK       I    between atoms: C_42  and  N_45 
REMARK       I    between atoms: N_46  and  C_47 
REMARK   26  A    between atoms: C_47  and  C_49 
REMARK   27  A    between atoms: C_49  and  C_50 
REMARK   28  A    between atoms: C_49  and  N_55 
REMARK   29  A    between atoms: C_50  and  C_51 
REMARK   30  A    between atoms: C_51  and  C_52 
REMARK   31  A    between atoms: C_52  and  O_54 
REMARK       I    between atoms: N_55  and  C_56 
REMARK   32  A    between atoms: C_56  and  C_58 
REMARK   33  A    between atoms: C_58  and  C_59 
REMARK   34  A    between atoms: C_58  and  N_63 
REMARK   35  A    between atoms: C_59  and  C_60 
REMARK       I    between atoms: N_63  and  C_64 
REMARK   36  A    between atoms: C_64  and  C_66 
REMARK   37  A    between atoms: C_66  and  C_67 
REMARK   38  A    between atoms: C_66  and  N_72 
REMARK   39  A    between atoms: C_67  and  C_68 
REMARK   40  A    between atoms: C_68  and  C_69 
REMARK       I    between atoms: C_69  and  N_71 
REMARK       I    between atoms: N_72  and  C_73 
REMARK   41  A    between atoms: C_73  and  C_75 
REMARK   42  A    between atoms: C_75  and  C_76 
REMARK   43  A    between atoms: C_75  and  N_81 
REMARK   44  A    between atoms: C_76  and  C_77 
REMARK   45  A    between atoms: C_77  and  C_78 
REMARK   46  A    between atoms: C_78  and  O_80 
REMARK       I    between atoms: N_81  and  C_82 
REMARK   47  A    between atoms: C_84  and  C_82 
ROOT
HETATM    1  C   UNK N   1      26.827  16.499   4.417  0.00  0.00     0.176 C 
ENDROOT
BRANCH   1   2
HETATM    2  C   UNK N   1      26.102  15.353   3.746  0.00  0.00     0.241 C 
HETATM    3  N   UNK N   1      26.776  14.303   3.207  0.00  0.00    -0.346 N 
HETATM    4  H   UNK N   1      26.255  13.528   2.898  0.00  0.00     0.163 HD
HETATM    5  O   UNK N   1      24.882  15.324   3.763  0.00  0.00    -0.271 OA
BRANCH   3   6
HETATM    6  C   UNK N   1      28.216  14.255   3.061  0.00  0.00     0.172 C 
HETATM    7  C   UNK N   1      28.609  14.163   1.597  0.00  0.00     0.042 C 
BRANCH   6   8
HETATM    8  C   UNK N   1      28.975  13.256   3.921  0.00  0.00     0.240 C 
HETATM    9  O   UNK N   1      28.583  12.101   3.908  0.00  0.00    -0.271 OA
HETATM   10  N   UNK N   1      30.080  13.551   4.663  0.00  0.00    -0.346 N 
HETATM   11  H   UNK N   1      30.582  12.784   5.022  0.00  0.00     0.163 HD
BRANCH  10  12
HETATM   12  C   UNK N   1      30.602  14.868   4.986  0.00  0.00     0.177 C 
BRANCH  12  13
HETATM   13  C   UNK N   1      31.346  15.468   3.773  0.00  0.00     0.038 C 
BRANCH  13  14
HETATM   14  C   UNK N   1      31.475  16.997   3.732  0.00  0.00    -0.020 C 
HETATM   15  C   UNK N   1      30.366  17.613   4.558  0.00  0.00     0.009 C 
HETATM   16  C   UNK N   1      32.810  17.501   4.249  0.00  0.00     0.009 C 
ENDBRANCH  13  14
ENDBRANCH  12  13
BRANCH  12  17
HETATM   17  C   UNK N   1      31.515  14.701   6.160  0.00  0.00     0.241 C 
HETATM   18  O   UNK N   1      32.376  13.835   6.104  0.00  0.00    -0.271 OA
HETATM   19  N   UNK N   1      31.503  15.596   7.187  0.00  0.00    -0.346 N 
HETATM   20  H   UNK N   1      30.679  16.099   7.373  0.00  0.00     0.163 HD
BRANCH  19  21
HETATM   21  C   UNK N   1      32.671  15.828   8.012  0.00  0.00     0.185 C 
BRANCH  21  22
HETATM   22  C   UNK N   1      32.898  17.347   8.175  0.00  0.00     0.137 C 
BRANCH  22  23
HETATM   23  C   UNK N   1      34.260  17.796   8.567  0.00  0.00     0.217 C 
HETATM   24  O   UNK N   1      34.861  18.595   7.873  0.00  0.00    -0.274 OA
HETATM   25  N   UNK N   1      34.767  17.424   9.759  0.00  0.00    -0.370 N 
HETATM   26  H   UNK N   1      34.855  16.750  10.471  0.00  0.00     0.159 HD
HETATM   27  H   UNK N   1      35.305  18.191  10.062  0.00  0.00     0.159 HD
ENDBRANCH  22  23
ENDBRANCH  21  22
BRANCH  21  28
HETATM   28  C   UNK N   1      32.397  15.069   9.304  0.00  0.00     0.241 C 
HETATM   29  O   UNK N   1      31.437  15.377   9.990  0.00  0.00    -0.271 OA
HETATM   30  N   UNK N   1      33.129  13.985   9.661  0.00  0.00    -0.344 N 
HETATM   31  H   UNK N   1      32.815  13.436  10.415  0.00  0.00     0.163 HD
BRANCH  30  32
HETATM   32  C   UNK N   1      34.344  13.599   8.991  0.00  0.00     0.200 C 
BRANCH  32  33
HETATM   33  C   UNK N   1      34.306  12.111   8.643  0.00  0.00     0.199 C 
BRANCH  33  34
HETATM   34  O   UNK N   1      33.029  11.719   8.238  0.00  0.00    -0.398 OA
HETATM   35  H   UNK N   1      32.322  12.354   8.043  0.00  0.00     0.209 HD
ENDBRANCH  33  34
ENDBRANCH  32  33
BRANCH  32  36
HETATM   36  C   UNK N   1      35.475  13.834   9.947  0.00  0.00     0.243 C 
HETATM   37  O   UNK N   1      36.222  14.795   9.772  0.00  0.00    -0.271 OA
HETATM   38  N   UNK N   1      35.669  13.013  11.000  0.00  0.00    -0.343 N 
HETATM   39  H   UNK N   1      35.057  12.253  11.128  0.00  0.00     0.163 HD
BRANCH  38  40
HETATM   40  C   UNK N   1      36.748  13.210  11.948  0.00  0.00     0.206 C 
BRANCH  40  41
HETATM   41  C   UNK N   1      36.174  13.695  13.268  0.00  0.00     0.200 C 
BRANCH  41  42
HETATM   42  O   UNK N   1      34.781  13.653  13.212  0.00  0.00    -0.398 OA
HETATM   43  H   UNK N   1      34.227  14.449  13.206  0.00  0.00     0.209 HD
ENDBRANCH  41  42
ENDBRANCH  40  41
BRANCH  40  44
HETATM   44  C   UNK N   1      37.582  11.958  12.106  0.00  0.00     0.165 C 
HETATM   45  O   UNK N   1      38.134  11.451  11.143  0.00  0.00    -0.648 OA
BRANCH  44  46
HETATM   46  O   UNK N   1      37.676  11.361  13.307  0.00  0.00    -0.775 OA
HETATM   47  H   UNK N   1      37.299  10.569  13.637  0.00  0.00     0.167 HD
ENDBRANCH  44  46
ENDBRANCH  40  44
ENDBRANCH  38  40
ENDBRANCH  32  36
ENDBRANCH  30  32
ENDBRANCH  21  28
ENDBRANCH  19  21
ENDBRANCH  12  17
ENDBRANCH  10  12
ENDBRANCH   6   8
ENDBRANCH   3   6
ENDBRANCH   1   2
BRANCH   1  48
HETATM   48  C   UNK N   1      26.509  16.773   5.875  0.00  0.00     0.036 C 
BRANCH  48  49
HETATM   49  C   UNK N   1      27.646  16.247   6.740  0.00  0.00     0.023 C 
BRANCH  49  50
HETATM   50  C   UNK N   1      27.532  16.715   8.185  0.00  0.00     0.138 C 
BRANCH  50  51
HETATM   51  N   UNK N   1      28.446  17.805   8.404  0.00  0.00    -0.227 N 
HETATM   52  C   UNK N   1      29.235  17.887   9.577  0.00  0.00     0.665 C 
HETATM   53  N   UNK N   1      29.143  16.991  10.489  0.00  0.00    -0.235 N 
HETATM   54  N   UNK N   1      30.180  18.927   9.711  0.00  0.00    -0.235 N 
HETATM   55  H   UNK N   1      29.741  16.929  11.269  0.00  0.00     0.174 HD
ATOM     56  HN  UNK N   1      28.402  16.295  10.402  1.00  0.00     0.174 HD
HETATM   57  H   UNK N   1      30.456  19.449   8.924  0.00  0.00     0.174 HD
HETATM   58  H   UNK N   1      30.563  19.131  10.595  0.00  0.00     0.174 HD
HETATM   59  H   UNK N   1      28.525  18.509   7.721  0.00  0.00     0.177 HD
ENDBRANCH  50  51
ENDBRANCH  49  50
ENDBRANCH  48  49
ENDBRANCH   1  48
BRANCH   1  60
HETATM   60  N   UNK N   1      27.080  17.725   3.679  0.00  0.00    -0.346 N 
HETATM   61  C   UNK N   1      26.309  18.843   3.594  0.00  0.00     0.241 C 
HETATM   62  O   UNK N   1      26.777  19.829   3.050  0.00  0.00    -0.271 OA
HETATM   63  H   UNK N   1      27.923  17.751   3.171  0.00  0.00     0.163 HD
BRANCH  61  64
HETATM   64  C   UNK N   1      24.886  18.921   4.079  0.00  0.00     0.177 C 
BRANCH  64  65
HETATM   65  C   UNK N   1      24.898  19.412   5.513  0.00  0.00     0.045 C 
BRANCH  65  66
HETATM   66  C   UNK N   1      25.558  20.762   5.638  0.00  0.00     0.112 C 
BRANCH  66  67
HETATM   67  C   UNK N   1      26.479  20.771   6.808  0.00  0.00     0.139 C 
HETATM   68  O   UNK N   1      26.189  21.419   7.800  0.00  0.00    -0.650 OA
BRANCH  67  69
HETATM   69  O   UNK N   1      27.625  20.065   6.778  0.00  0.00    -0.776 OA
HETATM   70  H   UNK N   1      27.704  19.268   6.292  0.00  0.00     0.167 HD
ENDBRANCH  67  69
ENDBRANCH  66  67
ENDBRANCH  65  66
ENDBRANCH  64  65
BRANCH  64  71
HETATM   71  N   UNK N   1      24.044  19.780   3.273  0.00  0.00    -0.346 N 
HETATM   72  C   UNK N   1      22.699  19.656   3.121  0.00  0.00     0.241 C 
HETATM   73  O   UNK N   1      22.124  20.417   2.358  0.00  0.00    -0.271 OA
HETATM   74  H   UNK N   1      24.484  20.518   2.792  0.00  0.00     0.163 HD
BRANCH  72  75
HETATM   75  C   UNK N   1      21.902  18.588   3.827  0.00  0.00     0.177 C 
BRANCH  75  76
HETATM   76  C   UNK N   1      20.648  18.395   2.979  0.00  0.00     0.038 C 
BRANCH  76  77
HETATM   77  C   UNK N   1      20.507  16.993   2.426  0.00  0.00    -0.020 C 
HETATM   78  C   UNK N   1      20.200  17.093   0.948  0.00  0.00     0.009 C 
HETATM   79  C   UNK N   1      21.826  16.264   2.593  0.00  0.00     0.009 C 
ENDBRANCH  76  77
ENDBRANCH  75  76
BRANCH  75  80
HETATM   80  N   UNK N   1      21.522  19.076   5.147  0.00  0.00    -0.346 N 
HETATM   81  C   UNK N   1      21.144  18.305   6.209  0.00  0.00     0.241 C 
HETATM   82  O   UNK N   1      20.921  18.850   7.276  0.00  0.00    -0.271 OA
HETATM   83  H   UNK N   1      21.540  20.050   5.286  0.00  0.00     0.163 HD
BRANCH  81  84
HETATM   84  C   UNK N   1      20.996  16.802   6.086  0.00  0.00     0.177 C 
BRANCH  84  85
HETATM   85  C   UNK N   1      21.320  16.143   7.422  0.00  0.00     0.044 C 
BRANCH  85  86
HETATM   86  C   UNK N   1      20.047  15.952   8.237  0.00  0.00     0.105 C 
BRANCH  86  87
HETATM   87  C   UNK N   1      20.185  14.839   9.229  0.00  0.00     0.215 C 
HETATM   88  O   UNK N   1      19.196  14.329   9.728  0.00  0.00    -0.274 OA
HETATM   89  N   UNK N   1      21.407  14.368   9.541  0.00  0.00    -0.370 N 
HETATM   90  H   UNK N   1      21.499  13.503  10.000  0.00  0.00     0.159 HD
HETATM   91  H   UNK N   1      22.209  14.889   9.310  0.00  0.00     0.159 HD
ENDBRANCH  86  87
ENDBRANCH  85  86
ENDBRANCH  84  85
BRANCH  84  92
HETATM   92  N   UNK N   1      19.689  16.297   5.692  0.00  0.00    -0.346 N 
HETATM   93  C   UNK N   1      19.278  15.055   5.320  0.00  0.00     0.241 C 
HETATM   94  O   UNK N   1      18.080  14.833   5.317  0.00  0.00    -0.271 OA
HETATM   95  H   UNK N   1      18.976  16.975   5.694  0.00  0.00     0.163 HD
BRANCH  93  96
HETATM   96  C   UNK N   1      20.193  13.920   4.940  0.00  0.00     0.177 C 
BRANCH  96  97
HETATM   97  C   UNK N   1      19.802  13.189   3.666  0.00  0.00     0.045 C 
BRANCH  97  98
HETATM   98  C   UNK N   1      21.046  12.830   2.873  0.00  0.00     0.112 C 
BRANCH  98  99
HETATM   99  C   UNK N   1      21.213  11.349   2.844  0.00  0.00     0.139 C 
HETATM  100  O   UNK N   1      22.309  10.853   3.048  0.00  0.00    -0.650 OA
BRANCH  99 101
HETATM  101  O   UNK N   1      20.158  10.562   2.580  0.00  0.00    -0.776 OA
HETATM  102  H   UNK N   1      19.952   9.842   3.144  0.00  0.00     0.167 HD
ENDBRANCH  99 101
ENDBRANCH  98  99
ENDBRANCH  97  98
ENDBRANCH  96  97
BRANCH  96 103
HETATM  103  N   UNK N   1      20.450  13.023   6.052  0.00  0.00    -0.346 N 
HETATM  104  C   UNK N   1      21.700  12.710   6.493  0.00  0.00     0.241 C 
HETATM  105  O   UNK N   1      21.820  11.944   7.437  0.00  0.00    -0.271 OA
HETATM  106  H   UNK N   1      19.679  12.618   6.511  0.00  0.00     0.163 HD
BRANCH 104 107
HETATM  107  C   UNK N   1      22.936  13.290   5.842  0.00  0.00     0.177 A 
HETATM  108  C   UNK N   1      23.878  13.873   6.914  0.00  0.00     0.044 A 
HETATM  109  C   UNK N   1      25.253  13.224   6.726  0.00  0.00     0.105 A 
HETATM  110  C   UNK N   1      24.969  12.241   5.668  0.00  0.00     0.218 A 
HETATM  111  O   UNK N   1      25.803  11.456   5.247  0.00  0.00    -0.274 OA
HETATM  112  N   UNK N   1      23.721  12.276   5.197  0.00  0.00    -0.348 N 
HETATM  113  H   UNK N   1      23.381  11.679   4.492  0.00  0.00     0.163 HD
ENDBRANCH 104 107
ENDBRANCH  96 103
ENDBRANCH  93  96
ENDBRANCH  84  92
ENDBRANCH  81  84
ENDBRANCH  75  80
ENDBRANCH  72  75
ENDBRANCH  64  71
ENDBRANCH  61  64
ENDBRANCH   1  60
TORSDOF 47
ENDMDL
MODEL 7
REMARK VINA RESULT:      -6.5      3.372      7.806
REMARK WARNING: 32 MAX_TORS EXCEEDED!!!
REMARK  47 active torsions:
REMARK  status: ('A' for Active; 'I' for Inactive)
REMARK    1  A    between atoms: C_2  and  C_3 
REMARK    2  A    between atoms: C_2  and  N_34 
REMARK       I    between atoms: C_3  and  N_5 
REMARK    3  A    between atoms: C_6  and  N_5 
REMARK    4  A    between atoms: C_6  and  C_7 
REMARK    5  A    between atoms: C_6  and  C_11 
REMARK    6  A    between atoms: C_7  and  C_8 
REMARK       I    between atoms: C_11  and  N_13 
REMARK    7  A    between atoms: C_14  and  N_13 
REMARK    8  A    between atoms: C_14  and  C_15 
REMARK    9  A    between atoms: C_14  and  C_19 
REMARK   10  A    between atoms: C_15  and  C_16 
REMARK       I    between atoms: C_16  and  N_18 
REMARK       I    between atoms: C_19  and  N_21 
REMARK   11  A    between atoms: C_22  and  N_21 
REMARK   12  A    between atoms: C_22  and  C_23 
REMARK   13  A    between atoms: C_22  and  C_25 
REMARK   14  A    between atoms: C_23  and  O_24 
REMARK       I    between atoms: C_25  and  N_27 
REMARK   15  A    between atoms: C_28  and  N_27 
REMARK   16  A    between atoms: C_28  and  C_29 
REMARK   17  A    between atoms: C_28  and  C_31 
REMARK   18  A    between atoms: C_29  and  O_30 
REMARK   19  A    between atoms: C_31  and  O_33 
REMARK       I    between atoms: N_34  and  C_35 
REMARK   20  A    between atoms: C_35  and  C_37 
REMARK   21  A    between atoms: C_37  and  C_38 
REMARK   22  A    between atoms: C_37  and  N_46 
REMARK   23  A    between atoms: C_38  and  C_39 
REMARK   24  A    between atoms: C_39  and  C_40 
REMARK   25  A    between atoms: C_40  and  N_41 
REMARK       I    between atoms: N_41  and  C_42 
REMARK       I    between atoms: C_42  and  N_45 
REMARK       I    between atoms: N_46  and  C_47 
REMARK   26  A    between atoms: C_47  and  C_49 
REMARK   27  A    between atoms: C_49  and  C_50 
REMARK   28  A    between atoms: C_49  and  N_55 
REMARK   29  A    between atoms: C_50  and  C_51 
REMARK   30  A    between atoms: C_51  and  C_52 
REMARK   31  A    between atoms: C_52  and  O_54 
REMARK       I    between atoms: N_55  and  C_56 
REMARK   32  A    between atoms: C_56  and  C_58 
REMARK   33  A    between atoms: C_58  and  C_59 
REMARK   34  A    between atoms: C_58  and  N_63 
REMARK   35  A    between atoms: C_59  and  C_60 
REMARK       I    between atoms: N_63  and  C_64 
REMARK   36  A    between atoms: C_64  and  C_66 
REMARK   37  A    between atoms: C_66  and  C_67 
REMARK   38  A    between atoms: C_66  and  N_72 
REMARK   39  A    between atoms: C_67  and  C_68 
REMARK   40  A    between atoms: C_68  and  C_69 
REMARK       I    between atoms: C_69  and  N_71 
REMARK       I    between atoms: N_72  and  C_73 
REMARK   41  A    between atoms: C_73  and  C_75 
REMARK   42  A    between atoms: C_75  and  C_76 
REMARK   43  A    between atoms: C_75  and  N_81 
REMARK   44  A    between atoms: C_76  and  C_77 
REMARK   45  A    between atoms: C_77  and  C_78 
REMARK   46  A    between atoms: C_78  and  O_80 
REMARK       I    between atoms: N_81  and  C_82 
REMARK   47  A    between atoms: C_84  and  C_82 
ROOT
HETATM    1  C   UNK N   1      28.453  12.082   2.949  0.00  0.00     0.176 C 
ENDROOT
BRANCH   1   2
HETATM    2  C   UNK N   1      28.641  11.597   4.369  0.00  0.00     0.241 C 
HETATM    3  N   UNK N   1      29.660  10.764   4.708  0.00  0.00    -0.346 N 
HETATM    4  H   UNK N   1      29.812  10.582   5.663  0.00  0.00     0.163 HD
HETATM    5  O   UNK N   1      27.916  12.029   5.251  0.00  0.00    -0.271 OA
BRANCH   3   6
HETATM    6  C   UNK N   1      30.539  10.129   3.748  0.00  0.00     0.172 C 
HETATM    7  C   UNK N   1      30.158   8.674   3.544  0.00  0.00     0.042 C 
BRANCH   6   8
HETATM    8  C   UNK N   1      32.037  10.305   3.945  0.00  0.00     0.240 C 
HETATM    9  O   UNK N   1      32.637   9.395   4.492  0.00  0.00    -0.271 OA
HETATM   10  N   UNK N   1      32.757  11.381   3.516  0.00  0.00    -0.346 N 
HETATM   11  H   UNK N   1      33.737  11.288   3.539  0.00  0.00     0.163 HD
BRANCH  10  12
HETATM   12  C   UNK N   1      32.243  12.651   3.029  0.00  0.00     0.177 C 
BRANCH  12  13
HETATM   13  C   UNK N   1      33.177  13.232   1.946  0.00  0.00     0.038 C 
BRANCH  13  14
HETATM   14  C   UNK N   1      34.304  12.316   1.445  0.00  0.00    -0.020 C 
HETATM   15  C   UNK N   1      34.162  12.124  -0.049  0.00  0.00     0.009 C 
HETATM   16  C   UNK N   1      35.691  12.856   1.742  0.00  0.00     0.009 C 
ENDBRANCH  13  14
ENDBRANCH  12  13
BRANCH  12  17
HETATM   17  C   UNK N   1      32.141  13.562   4.210  0.00  0.00     0.241 C 
HETATM   18  O   UNK N   1      31.046  13.716   4.730  0.00  0.00    -0.271 OA
HETATM   19  N   UNK N   1      33.261  14.070   4.799  0.00  0.00    -0.346 N 
HETATM   20  H   UNK N   1      34.076  14.181   4.260  0.00  0.00     0.163 HD
BRANCH  19  21
HETATM   21  C   UNK N   1      33.284  14.449   6.198  0.00  0.00     0.185 C 
BRANCH  21  22
HETATM   22  C   UNK N   1      34.163  13.455   6.990  0.00  0.00     0.137 C 
BRANCH  22  23
HETATM   23  C   UNK N   1      33.961  12.006   6.727  0.00  0.00     0.217 C 
HETATM   24  O   UNK N   1      34.727  11.407   5.995  0.00  0.00    -0.274 OA
HETATM   25  N   UNK N   1      33.016  11.331   7.410  0.00  0.00    -0.370 N 
HETATM   26  H   UNK N   1      32.129  11.310   7.839  0.00  0.00     0.159 HD
HETATM   27  H   UNK N   1      33.389  10.430   7.545  0.00  0.00     0.159 HD
ENDBRANCH  22  23
ENDBRANCH  21  22
BRANCH  21  28
HETATM   28  C   UNK N   1      33.766  15.893   6.205  0.00  0.00     0.241 C 
HETATM   29  O   UNK N   1      34.957  16.130   6.317  0.00  0.00    -0.271 OA
HETATM   30  N   UNK N   1      32.918  16.927   5.982  0.00  0.00    -0.344 N 
HETATM   31  H   UNK N   1      33.300  17.823   5.836  0.00  0.00     0.163 HD
BRANCH  30  32
HETATM   32  C   UNK N   1      31.486  16.778   5.946  0.00  0.00     0.200 C 
BRANCH  32  33
HETATM   33  C   UNK N   1      30.917  17.434   4.687  0.00  0.00     0.199 C 
BRANCH  33  34
HETATM   34  O   UNK N   1      29.529  17.310   4.636  0.00  0.00    -0.398 OA
HETATM   35  H   UNK N   1      29.042  16.641   5.143  0.00  0.00     0.209 HD
ENDBRANCH  33  34
ENDBRANCH  32  33
BRANCH  32  36
HETATM   36  C   UNK N   1      30.934  17.490   7.145  0.00  0.00     0.243 C 
HETATM   37  O   UNK N   1      31.702  17.872   8.025  0.00  0.00    -0.271 OA
HETATM   38  N   UNK N   1      29.610  17.725   7.257  0.00  0.00    -0.343 N 
HETATM   39  H   UNK N   1      29.010  17.418   6.539  0.00  0.00     0.163 HD
BRANCH  38  40
HETATM   40  C   UNK N   1      29.039  18.415   8.397  0.00  0.00     0.206 C 
BRANCH  40  41
HETATM   41  C   UNK N   1      27.823  19.205   7.950  0.00  0.00     0.200 C 
BRANCH  41  42
HETATM   42  O   UNK N   1      27.403  18.744   6.703  0.00  0.00    -0.398 OA
HETATM   43  H   UNK N   1      27.944  18.167   6.141  0.00  0.00     0.209 HD
ENDBRANCH  41  42
ENDBRANCH  40  41
BRANCH  40  44
HETATM   44  C   UNK N   1      28.723  17.455   9.523  0.00  0.00     0.165 C 
HETATM   45  O   UNK N   1      27.600  16.992   9.652  0.00  0.00    -0.648 OA
BRANCH  44  46
HETATM   46  O   UNK N   1      29.668  17.147  10.429  0.00  0.00    -0.775 OA
HETATM   47  H   UNK N   1      30.376  17.650  10.782  0.00  0.00     0.167 HD
ENDBRANCH  44  46
ENDBRANCH  40  44
ENDBRANCH  38  40
ENDBRANCH  32  36
ENDBRANCH  30  32
ENDBRANCH  21  28
ENDBRANCH  19  21
ENDBRANCH  12  17
ENDBRANCH  10  12
ENDBRANCH   6   8
ENDBRANCH   3   6
ENDBRANCH   1   2
BRANCH   1  48
HETATM   48  C   UNK N   1      28.857  11.142   1.827  0.00  0.00     0.036 C 
BRANCH  48  49
HETATM   49  C   UNK N   1      29.081  11.950   0.557  0.00  0.00     0.023 C 
BRANCH  49  50
HETATM   50  C   UNK N   1      30.422  11.636  -0.095  0.00  0.00     0.138 C 
BRANCH  50  51
HETATM   51  N   UNK N   1      30.350  11.941  -1.499  0.00  0.00    -0.227 N 
HETATM   52  C   UNK N   1      30.151  10.929  -2.469  0.00  0.00     0.665 C 
HETATM   53  N   UNK N   1      30.044   9.701  -2.117  0.00  0.00    -0.235 N 
HETATM   54  N   UNK N   1      30.001  11.284  -3.827  0.00  0.00    -0.235 N 
HETATM   55  H   UNK N   1      29.793   8.969  -2.727  0.00  0.00     0.174 HD
ATOM     56  HN  UNK N   1      30.230   9.465  -1.142  1.00  0.00     0.174 HD
HETATM   57  H   UNK N   1      29.806  12.216  -4.076  0.00  0.00     0.174 HD
HETATM   58  H   UNK N   1      30.092  10.596  -4.526  0.00  0.00     0.174 HD
HETATM   59  H   UNK N   1      30.439  12.877  -1.791  0.00  0.00     0.177 HD
ENDBRANCH  50  51
ENDBRANCH  49  50
ENDBRANCH  48  49
ENDBRANCH   1  48
BRANCH   1  60
HETATM   60  N   UNK N   1      28.728  13.469   2.617  0.00  0.00    -0.346 N 
HETATM   61  C   UNK N   1      27.890  14.539   2.666  0.00  0.00     0.241 C 
HETATM   62  O   UNK N   1      28.361  15.652   2.499  0.00  0.00    -0.271 OA
HETATM   63  H   UNK N   1      29.645  13.661   2.316  0.00  0.00     0.163 HD
BRANCH  61  64
HETATM   64  C   UNK N   1      26.400  14.432   2.853  0.00  0.00     0.177 C 
BRANCH  64  65
HETATM   65  C   UNK N   1      25.982  15.424   3.920  0.00  0.00     0.045 C 
BRANCH  65  66
HETATM   66  C   UNK N   1      25.882  14.779   5.278  0.00  0.00     0.112 C 
BRANCH  66  67
HETATM   67  C   UNK N   1      26.734  15.514   6.254  0.00  0.00     0.139 C 
HETATM   68  O   UNK N   1      27.928  15.637   6.040  0.00  0.00    -0.650 OA
BRANCH  67  69
HETATM   69  O   UNK N   1      26.192  16.045   7.367  0.00  0.00    -0.776 OA
HETATM   70  H   UNK N   1      26.453  15.772   8.223  0.00  0.00     0.167 HD
ENDBRANCH  67  69
ENDBRANCH  66  67
ENDBRANCH  65  66
ENDBRANCH  64  65
BRANCH  64  71
HETATM   71  N   UNK N   1      25.643  14.667   1.641  0.00  0.00    -0.346 N 
HETATM   72  C   UNK N   1      24.502  14.023   1.281  0.00  0.00     0.241 C 
HETATM   73  O   UNK N   1      24.002  14.280   0.196  0.00  0.00    -0.271 OA
HETATM   74  H   UNK N   1      25.986  15.353   1.023  0.00  0.00     0.163 HD
BRANCH  72  75
HETATM   75  C   UNK N   1      23.859  12.974   2.152  0.00  0.00     0.177 C 
BRANCH  75  76
HETATM   76  C   UNK N   1      24.841  11.805   2.167  0.00  0.00     0.038 C 
BRANCH  76  77
HETATM   77  C   UNK N   1      24.511  10.757   3.207  0.00  0.00    -0.020 C 
HETATM   78  C   UNK N   1      25.633   9.742   3.232  0.00  0.00     0.009 C 
HETATM   79  C   UNK N   1      24.437  11.422   4.568  0.00  0.00     0.009 C 
ENDBRANCH  76  77
ENDBRANCH  75  76
BRANCH  75  80
HETATM   80  N   UNK N   1      22.610  12.547   1.533  0.00  0.00    -0.346 N 
HETATM   81  C   UNK N   1      21.359  12.980   1.869  0.00  0.00     0.241 C 
HETATM   82  O   UNK N   1      20.409  12.586   1.214  0.00  0.00    -0.271 OA
HETATM   83  H   UNK N   1      22.674  11.886   0.806  0.00  0.00     0.163 HD
BRANCH  81  84
HETATM   84  C   UNK N   1      21.132  13.929   3.027  0.00  0.00     0.177 C 
BRANCH  84  85
HETATM   85  C   UNK N   1      20.310  15.125   2.560  0.00  0.00     0.044 C 
BRANCH  85  86
HETATM   86  C   UNK N   1      21.005  15.816   1.392  0.00  0.00     0.105 C 
BRANCH  86  87
HETATM   87  C   UNK N   1      20.176  16.932   0.837  0.00  0.00     0.215 C 
HETATM   88  O   UNK N   1      20.301  17.275  -0.327  0.00  0.00    -0.274 OA
HETATM   89  N   UNK N   1      19.257  17.535   1.615  0.00  0.00    -0.370 N 
HETATM   90  H   UNK N   1      18.559  18.097   1.207  0.00  0.00     0.159 HD
HETATM   91  H   UNK N   1      19.283  17.414   2.590  0.00  0.00     0.159 HD
ENDBRANCH  86  87
ENDBRANCH  85  86
ENDBRANCH  84  85
BRANCH  84  92
HETATM   92  N   UNK N   1      20.442  13.395   4.193  0.00  0.00    -0.346 N 
HETATM   93  C   UNK N   1      20.577  13.662   5.519  0.00  0.00     0.241 C 
HETATM   94  O   UNK N   1      19.685  13.293   6.264  0.00  0.00    -0.271 OA
HETATM   95  H   UNK N   1      19.756  12.721   3.983  0.00  0.00     0.163 HD
BRANCH  93  96
HETATM   96  C   UNK N   1      21.731  14.405   6.138  0.00  0.00     0.177 C 
BRANCH  96  97
HETATM   97  C   UNK N   1      22.603  13.570   7.063  0.00  0.00     0.045 C 
BRANCH  97  98
HETATM   98  C   UNK N   1      22.513  14.104   8.481  0.00  0.00     0.112 C 
BRANCH  98  99
HETATM   99  C   UNK N   1      21.497  13.328   9.247  0.00  0.00     0.139 C 
HETATM  100  O   UNK N   1      21.852  12.487  10.057  0.00  0.00    -0.650 OA
BRANCH  99 101
HETATM  101  O   UNK N   1      20.189  13.548   9.036  0.00  0.00    -0.776 OA
HETATM  102  H   UNK N   1      19.726  14.181   9.549  0.00  0.00     0.167 HD
ENDBRANCH  99 101
ENDBRANCH  98  99
ENDBRANCH  97  98
ENDBRANCH  96  97
BRANCH  96 103
HETATM  103  N   UNK N   1      21.321  15.665   6.731  0.00  0.00    -0.346 N 
HETATM  104  C   UNK N   1      21.773  16.878   6.309  0.00  0.00     0.241 C 
HETATM  105  O   UNK N   1      21.373  17.888   6.869  0.00  0.00    -0.271 OA
HETATM  106  H   UNK N   1      20.682  15.641   7.479  0.00  0.00     0.163 HD
BRANCH 104 107
HETATM  107  C   UNK N   1      22.756  17.001   5.166  0.00  0.00     0.177 A 
HETATM  108  C   UNK N   1      22.188  17.928   4.072  0.00  0.00     0.044 A 
HETATM  109  C   UNK N   1      23.220  19.030   3.814  0.00  0.00     0.105 A 
HETATM  110  C   UNK N   1      24.225  18.735   4.849  0.00  0.00     0.218 A 
HETATM  111  O   UNK N   1      25.216  19.424   5.032  0.00  0.00    -0.274 OA
HETATM  112  N   UNK N   1      23.971  17.646   5.577  0.00  0.00    -0.348 N 
HETATM  113  H   UNK N   1      24.547  17.323   6.307  0.00  0.00     0.163 HD
ENDBRANCH 104 107
ENDBRANCH  96 103
ENDBRANCH  93  96
ENDBRANCH  84  92
ENDBRANCH  81  84
ENDBRANCH  75  80
ENDBRANCH  72  75
ENDBRANCH  64  71
ENDBRANCH  61  64
ENDBRANCH   1  60
TORSDOF 47
ENDMDL
MODEL 8
REMARK VINA RESULT:      -6.5      2.740      6.703
REMARK WARNING: 32 MAX_TORS EXCEEDED!!!
REMARK  47 active torsions:
REMARK  status: ('A' for Active; 'I' for Inactive)
REMARK    1  A    between atoms: C_2  and  C_3 
REMARK    2  A    between atoms: C_2  and  N_34 
REMARK       I    between atoms: C_3  and  N_5 
REMARK    3  A    between atoms: C_6  and  N_5 
REMARK    4  A    between atoms: C_6  and  C_7 
REMARK    5  A    between atoms: C_6  and  C_11 
REMARK    6  A    between atoms: C_7  and  C_8 
REMARK       I    between atoms: C_11  and  N_13 
REMARK    7  A    between atoms: C_14  and  N_13 
REMARK    8  A    between atoms: C_14  and  C_15 
REMARK    9  A    between atoms: C_14  and  C_19 
REMARK   10  A    between atoms: C_15  and  C_16 
REMARK       I    between atoms: C_16  and  N_18 
REMARK       I    between atoms: C_19  and  N_21 
REMARK   11  A    between atoms: C_22  and  N_21 
REMARK   12  A    between atoms: C_22  and  C_23 
REMARK   13  A    between atoms: C_22  and  C_25 
REMARK   14  A    between atoms: C_23  and  O_24 
REMARK       I    between atoms: C_25  and  N_27 
REMARK   15  A    between atoms: C_28  and  N_27 
REMARK   16  A    between atoms: C_28  and  C_29 
REMARK   17  A    between atoms: C_28  and  C_31 
REMARK   18  A    between atoms: C_29  and  O_30 
REMARK   19  A    between atoms: C_31  and  O_33 
REMARK       I    between atoms: N_34  and  C_35 
REMARK   20  A    between atoms: C_35  and  C_37 
REMARK   21  A    between atoms: C_37  and  C_38 
REMARK   22  A    between atoms: C_37  and  N_46 
REMARK   23  A    between atoms: C_38  and  C_39 
REMARK   24  A    between atoms: C_39  and  C_40 
REMARK   25  A    between atoms: C_40  and  N_41 
REMARK       I    between atoms: N_41  and  C_42 
REMARK       I    between atoms: C_42  and  N_45 
REMARK       I    between atoms: N_46  and  C_47 
REMARK   26  A    between atoms: C_47  and  C_49 
REMARK   27  A    between atoms: C_49  and  C_50 
REMARK   28  A    between atoms: C_49  and  N_55 
REMARK   29  A    between atoms: C_50  and  C_51 
REMARK   30  A    between atoms: C_51  and  C_52 
REMARK   31  A    between atoms: C_52  and  O_54 
REMARK       I    between atoms: N_55  and  C_56 
REMARK   32  A    between atoms: C_56  and  C_58 
REMARK   33  A    between atoms: C_58  and  C_59 
REMARK   34  A    between atoms: C_58  and  N_63 
REMARK   35  A    between atoms: C_59  and  C_60 
REMARK       I    between atoms: N_63  and  C_64 
REMARK   36  A    between atoms: C_64  and  C_66 
REMARK   37  A    between atoms: C_66  and  C_67 
REMARK   38  A    between atoms: C_66  and  N_72 
REMARK   39  A    between atoms: C_67  and  C_68 
REMARK   40  A    between atoms: C_68  and  C_69 
REMARK       I    between atoms: C_69  and  N_71 
REMARK       I    between atoms: N_72  and  C_73 
REMARK   41  A    between atoms: C_73  and  C_75 
REMARK   42  A    between atoms: C_75  and  C_76 
REMARK   43  A    between atoms: C_75  and  N_81 
REMARK   44  A    between atoms: C_76  and  C_77 
REMARK   45  A    between atoms: C_77  and  C_78 
REMARK   46  A    between atoms: C_78  and  O_80 
REMARK       I    between atoms: N_81  and  C_82 
REMARK   47  A    between atoms: C_84  and  C_82 
ROOT
HETATM    1  C   UNK N   1      29.909  16.577   4.803  0.00  0.00     0.176 C 
ENDROOT
BRANCH   1   2
HETATM    2  C   UNK N   1      29.091  15.323   5.020  0.00  0.00     0.241 C 
HETATM    3  N   UNK N   1      29.147  14.279   4.151  0.00  0.00    -0.346 N 
HETATM    4  H   UNK N   1      28.696  13.441   4.405  0.00  0.00     0.163 HD
HETATM    5  O   UNK N   1      28.433  15.206   6.041  0.00  0.00    -0.271 OA
BRANCH   3   6
HETATM    6  C   UNK N   1      29.831  14.323   2.875  0.00  0.00     0.172 C 
HETATM    7  C   UNK N   1      28.860  14.639   1.751  0.00  0.00     0.042 C 
BRANCH   6   8
HETATM    8  C   UNK N   1      30.746  13.158   2.530  0.00  0.00     0.240 C 
HETATM    9  O   UNK N   1      30.254  12.227   1.915  0.00  0.00    -0.271 OA
HETATM   10  N   UNK N   1      32.078  13.104   2.819  0.00  0.00    -0.346 N 
HETATM   11  H   UNK N   1      32.590  12.386   2.380  0.00  0.00     0.163 HD
BRANCH  10  12
HETATM   12  C   UNK N   1      32.828  13.983   3.701  0.00  0.00     0.177 C 
BRANCH  12  13
HETATM   13  C   UNK N   1      34.216  14.292   3.102  0.00  0.00     0.038 C 
BRANCH  13  14
HETATM   14  C   UNK N   1      34.763  13.289   2.076  0.00  0.00    -0.020 C 
HETATM   15  C   UNK N   1      35.480  14.042   0.976  0.00  0.00     0.009 C 
HETATM   16  C   UNK N   1      35.717  12.273   2.678  0.00  0.00     0.009 C 
ENDBRANCH  13  14
ENDBRANCH  12  13
BRANCH  12  17
HETATM   17  C   UNK N   1      32.942  13.285   5.018  0.00  0.00     0.241 C 
HETATM   18  O   UNK N   1      32.892  12.064   5.033  0.00  0.00    -0.271 OA
HETATM   19  N   UNK N   1      33.268  13.974   6.148  0.00  0.00    -0.346 N 
HETATM   20  H   UNK N   1      33.046  14.931   6.204  0.00  0.00     0.163 HD
BRANCH  19  21
HETATM   21  C   UNK N   1      33.934  13.338   7.267  0.00  0.00     0.185 C 
BRANCH  21  22
HETATM   22  C   UNK N   1      35.324  13.979   7.476  0.00  0.00     0.137 C 
BRANCH  22  23
HETATM   23  C   UNK N   1      35.963  14.622   6.298  0.00  0.00     0.217 C 
HETATM   24  O   UNK N   1      35.626  15.741   5.958  0.00  0.00    -0.274 OA
HETATM   25  N   UNK N   1      37.009  14.022   5.697  0.00  0.00    -0.370 N 
HETATM   26  H   UNK N   1      37.468  13.198   5.413  0.00  0.00     0.159 HD
HETATM   27  H   UNK N   1      37.594  14.757   5.401  0.00  0.00     0.159 HD
ENDBRANCH  22  23
ENDBRANCH  21  22
BRANCH  21  28
HETATM   28  C   UNK N   1      32.967  13.486   8.434  0.00  0.00     0.241 C 
HETATM   29  O   UNK N   1      32.262  14.477   8.510  0.00  0.00    -0.271 OA
HETATM   30  N   UNK N   1      32.789  12.492   9.340  0.00  0.00    -0.344 N 
HETATM   31  H   UNK N   1      32.043  12.569   9.977  0.00  0.00     0.163 HD
BRANCH  30  32
HETATM   32  C   UNK N   1      33.638  11.331   9.413  0.00  0.00     0.200 C 
BRANCH  32  33
HETATM   33  C   UNK N   1      32.823  10.107   9.831  0.00  0.00     0.199 C 
BRANCH  33  34
HETATM   34  O   UNK N   1      33.520   8.925   9.576  0.00  0.00    -0.398 OA
HETATM   35  H   UNK N   1      33.594   8.540   8.688  0.00  0.00     0.209 HD
ENDBRANCH  33  34
ENDBRANCH  32  33
BRANCH  32  36
HETATM   36  C   UNK N   1      34.669  11.599  10.469  0.00  0.00     0.243 C 
HETATM   37  O   UNK N   1      35.732  10.981  10.444  0.00  0.00    -0.271 OA
HETATM   38  N   UNK N   1      34.446  12.517  11.432  0.00  0.00    -0.343 N 
HETATM   39  H   UNK N   1      33.593  13.008  11.433  0.00  0.00     0.163 HD
BRANCH  38  40
HETATM   40  C   UNK N   1      35.420  12.808  12.466  0.00  0.00     0.206 C 
BRANCH  40  41
HETATM   41  C   UNK N   1      35.705  14.299  12.485  0.00  0.00     0.200 C 
BRANCH  41  42
HETATM   42  O   UNK N   1      36.719  14.566  13.404  0.00  0.00    -0.398 OA
HETATM   43  H   UNK N   1      37.642  14.302  13.267  0.00  0.00     0.209 HD
ENDBRANCH  41  42
ENDBRANCH  40  41
BRANCH  40  44
HETATM   44  C   UNK N   1      34.968  12.289  13.814  0.00  0.00     0.165 C 
HETATM   45  O   UNK N   1      34.452  13.038  14.629  0.00  0.00    -0.648 OA
BRANCH  44  46
HETATM   46  O   UNK N   1      35.184  11.005  14.146  0.00  0.00    -0.775 OA
HETATM   47  H   UNK N   1      34.992  10.526  14.929  0.00  0.00     0.167 HD
ENDBRANCH  44  46
ENDBRANCH  40  44
ENDBRANCH  38  40
ENDBRANCH  32  36
ENDBRANCH  30  32
ENDBRANCH  21  28
ENDBRANCH  19  21
ENDBRANCH  12  17
ENDBRANCH  10  12
ENDBRANCH   6   8
ENDBRANCH   3   6
ENDBRANCH   1   2
BRANCH   1  48
HETATM   48  C   UNK N   1      30.824  17.022   5.930  0.00  0.00     0.036 C 
BRANCH  48  49
HETATM   49  C   UNK N   1      32.241  17.164   5.393  0.00  0.00     0.023 C 
BRANCH  49  50
HETATM   50  C   UNK N   1      33.162  17.867   6.382  0.00  0.00     0.138 C 
BRANCH  50  51
HETATM   51  N   UNK N   1      33.276  17.068   7.573  0.00  0.00    -0.227 N 
HETATM   52  C   UNK N   1      34.111  17.456   8.649  0.00  0.00     0.665 C 
HETATM   53  N   UNK N   1      34.804  18.533   8.582  0.00  0.00    -0.235 N 
HETATM   54  N   UNK N   1      34.127  16.686   9.832  0.00  0.00    -0.235 N 
HETATM   55  H   UNK N   1      35.311  18.914   9.335  0.00  0.00     0.174 HD
ATOM     56  HN  UNK N   1      34.831  19.028   7.690  1.00  0.00     0.174 HD
HETATM   57  H   UNK N   1      33.412  16.032  10.007  0.00  0.00     0.174 HD
HETATM   58  H   UNK N   1      34.854  16.806  10.486  0.00  0.00     0.174 HD
HETATM   59  H   UNK N   1      32.761  16.233   7.641  0.00  0.00     0.177 HD
ENDBRANCH  50  51
ENDBRANCH  49  50
ENDBRANCH  48  49
ENDBRANCH   1  48
BRANCH   1  60
HETATM   60  N   UNK N   1      29.324  17.708   4.103  0.00  0.00    -0.346 N 
HETATM   61  C   UNK N   1      28.383  18.588   4.541  0.00  0.00     0.241 C 
HETATM   62  O   UNK N   1      28.143  19.567   3.855  0.00  0.00    -0.271 OA
HETATM   63  H   UNK N   1      29.654  17.859   3.187  0.00  0.00     0.163 HD
BRANCH  61  64
HETATM   64  C   UNK N   1      27.573  18.396   5.794  0.00  0.00     0.177 C 
BRANCH  64  65
HETATM   65  C   UNK N   1      28.213  19.209   6.903  0.00  0.00     0.045 C 
BRANCH  65  66
HETATM   66  C   UNK N   1      27.662  18.841   8.257  0.00  0.00     0.112 C 
BRANCH  66  67
HETATM   67  C   UNK N   1      28.055  17.447   8.603  0.00  0.00     0.139 C 
HETATM   68  O   UNK N   1      29.191  17.215   8.978  0.00  0.00    -0.650 OA
BRANCH  67  69
HETATM   69  O   UNK N   1      27.160  16.444   8.507  0.00  0.00    -0.776 OA
HETATM   70  H   UNK N   1      26.568  16.376   7.785  0.00  0.00     0.167 HD
ENDBRANCH  67  69
ENDBRANCH  66  67
ENDBRANCH  65  66
ENDBRANCH  64  65
BRANCH  64  71
HETATM   71  N   UNK N   1      26.182  18.772   5.651  0.00  0.00    -0.346 N 
HETATM   72  C   UNK N   1      25.187  17.968   5.193  0.00  0.00     0.241 C 
HETATM   73  O   UNK N   1      24.066  18.439   5.065  0.00  0.00    -0.271 OA
HETATM   74  H   UNK N   1      25.935  19.690   5.907  0.00  0.00     0.163 HD
BRANCH  72  75
HETATM   75  C   UNK N   1      25.426  16.532   4.797  0.00  0.00     0.177 C 
BRANCH  75  76
HETATM   76  C   UNK N   1      24.153  16.096   4.076  0.00  0.00     0.038 C 
BRANCH  76  77
HETATM   77  C   UNK N   1      24.412  15.490   2.715  0.00  0.00    -0.020 C 
HETATM   78  C   UNK N   1      25.744  14.772   2.758  0.00  0.00     0.009 C 
HETATM   79  C   UNK N   1      23.329  14.471   2.417  0.00  0.00     0.009 C 
ENDBRANCH  76  77
ENDBRANCH  75  76
BRANCH  75  80
HETATM   80  N   UNK N   1      25.597  15.732   6.003  0.00  0.00    -0.346 N 
HETATM   81  C   UNK N   1      24.598  15.136   6.719  0.00  0.00     0.241 C 
HETATM   82  O   UNK N   1      24.899  14.436   7.670  0.00  0.00    -0.271 OA
HETATM   83  H   UNK N   1      26.517  15.609   6.332  0.00  0.00     0.163 HD
BRANCH  81  84
HETATM   84  C   UNK N   1      23.139  15.328   6.358  0.00  0.00     0.177 C 
BRANCH  84  85
HETATM   85  C   UNK N   1      22.317  14.168   6.905  0.00  0.00     0.044 C 
BRANCH  85  86
HETATM   86  C   UNK N   1      21.666  14.561   8.226  0.00  0.00     0.105 C 
BRANCH  86  87
HETATM   87  C   UNK N   1      21.834  13.495   9.265  0.00  0.00     0.215 C 
HETATM   88  O   UNK N   1      20.959  12.665   9.445  0.00  0.00    -0.274 OA
HETATM   89  N   UNK N   1      22.974  13.427   9.976  0.00  0.00    -0.370 N 
HETATM   90  H   UNK N   1      23.190  12.612  10.484  0.00  0.00     0.159 HD
HETATM   91  H   UNK N   1      23.593  14.192   9.989  0.00  0.00     0.159 HD
ENDBRANCH  86  87
ENDBRANCH  85  86
ENDBRANCH  84  85
BRANCH  84  92
HETATM   92  N   UNK N   1      22.495  16.543   6.836  0.00  0.00    -0.346 N 
HETATM   93  C   UNK N   1      21.344  17.161   6.458  0.00  0.00     0.241 C 
HETATM   94  O   UNK N   1      20.882  18.003   7.208  0.00  0.00    -0.271 OA
HETATM   95  H   UNK N   1      22.979  16.998   7.562  0.00  0.00     0.163 HD
BRANCH  93  96
HETATM   96  C   UNK N   1      20.579  16.863   5.195  0.00  0.00     0.177 C 
BRANCH  96  97
HETATM   97  C   UNK N   1      20.343  18.067   4.297  0.00  0.00     0.045 C 
BRANCH  97  98
HETATM   98  C   UNK N   1      21.158  17.930   3.024  0.00  0.00     0.112 C 
BRANCH  98  99
HETATM   99  C   UNK N   1      20.309  18.263   1.845  0.00  0.00     0.139 C 
HETATM  100  O   UNK N   1      20.214  17.475   0.918  0.00  0.00    -0.650 OA
BRANCH  99 101
HETATM  101  O   UNK N   1      19.659  19.437   1.799  0.00  0.00    -0.776 OA
HETATM  102  H   UNK N   1      18.746  19.481   2.007  0.00  0.00     0.167 HD
ENDBRANCH  99 101
ENDBRANCH  98  99
ENDBRANCH  97  98
ENDBRANCH  96  97
BRANCH  96 103
HETATM  103  N   UNK N   1      19.370  16.101   5.450  0.00  0.00    -0.346 N 
HETATM  104  C   UNK N   1      18.999  15.013   4.720  0.00  0.00     0.241 C 
HETATM  105  O   UNK N   1      17.962  14.433   5.006  0.00  0.00    -0.271 OA
HETATM  106  H   UNK N   1      18.787  16.386   6.190  0.00  0.00     0.163 HD
BRANCH 104 107
HETATM  107  C   UNK N   1      19.838  14.511   3.566  0.00  0.00     0.177 A 
HETATM  108  C   UNK N   1      19.815  12.970   3.522  0.00  0.00     0.044 A 
HETATM  109  C   UNK N   1      19.361  12.552   2.120  0.00  0.00     0.105 A 
HETATM  110  C   UNK N   1      19.038  13.856   1.518  0.00  0.00     0.218 A 
HETATM  111  O   UNK N   1      18.578  13.976   0.394  0.00  0.00    -0.274 OA
HETATM  112  N   UNK N   1      19.292  14.907   2.299  0.00  0.00    -0.348 N 
HETATM  113  H   UNK N   1      19.126  15.842   2.038  0.00  0.00     0.163 HD
ENDBRANCH 104 107
ENDBRANCH  96 103
ENDBRANCH  93  96
ENDBRANCH  84  92
ENDBRANCH  81  84
ENDBRANCH  75  80
ENDBRANCH  72  75
ENDBRANCH  64  71
ENDBRANCH  61  64
ENDBRANCH   1  60
TORSDOF 47
ENDMDL
MODEL 9
REMARK VINA RESULT:      -6.5      2.323      6.154
REMARK WARNING: 32 MAX_TORS EXCEEDED!!!
REMARK  47 active torsions:
REMARK  status: ('A' for Active; 'I' for Inactive)
REMARK    1  A    between atoms: C_2  and  C_3 
REMARK    2  A    between atoms: C_2  and  N_34 
REMARK       I    between atoms: C_3  and  N_5 
REMARK    3  A    between atoms: C_6  and  N_5 
REMARK    4  A    between atoms: C_6  and  C_7 
REMARK    5  A    between atoms: C_6  and  C_11 
REMARK    6  A    between atoms: C_7  and  C_8 
REMARK       I    between atoms: C_11  and  N_13 
REMARK    7  A    between atoms: C_14  and  N_13 
REMARK    8  A    between atoms: C_14  and  C_15 
REMARK    9  A    between atoms: C_14  and  C_19 
REMARK   10  A    between atoms: C_15  and  C_16 
REMARK       I    between atoms: C_16  and  N_18 
REMARK       I    between atoms: C_19  and  N_21 
REMARK   11  A    between atoms: C_22  and  N_21 
REMARK   12  A    between atoms: C_22  and  C_23 
REMARK   13  A    between atoms: C_22  and  C_25 
REMARK   14  A    between atoms: C_23  and  O_24 
REMARK       I    between atoms: C_25  and  N_27 
REMARK   15  A    between atoms: C_28  and  N_27 
REMARK   16  A    between atoms: C_28  and  C_29 
REMARK   17  A    between atoms: C_28  and  C_31 
REMARK   18  A    between atoms: C_29  and  O_30 
REMARK   19  A    between atoms: C_31  and  O_33 
REMARK       I    between atoms: N_34  and  C_35 
REMARK   20  A    between atoms: C_35  and  C_37 
REMARK   21  A    between atoms: C_37  and  C_38 
REMARK   22  A    between atoms: C_37  and  N_46 
REMARK   23  A    between atoms: C_38  and  C_39 
REMARK   24  A    between atoms: C_39  and  C_40 
REMARK   25  A    between atoms: C_40  and  N_41 
REMARK       I    between atoms: N_41  and  C_42 
REMARK       I    between atoms: C_42  and  N_45 
REMARK       I    between atoms: N_46  and  C_47 
REMARK   26  A    between atoms: C_47  and  C_49 
REMARK   27  A    between atoms: C_49  and  C_50 
REMARK   28  A    between atoms: C_49  and  N_55 
REMARK   29  A    between atoms: C_50  and  C_51 
REMARK   30  A    between atoms: C_51  and  C_52 
REMARK   31  A    between atoms: C_52  and  O_54 
REMARK       I    between atoms: N_55  and  C_56 
REMARK   32  A    between atoms: C_56  and  C_58 
REMARK   33  A    between atoms: C_58  and  C_59 
REMARK   34  A    between atoms: C_58  and  N_63 
REMARK   35  A    between atoms: C_59  and  C_60 
REMARK       I    between atoms: N_63  and  C_64 
REMARK   36  A    between atoms: C_64  and  C_66 
REMARK   37  A    between atoms: C_66  and  C_67 
REMARK   38  A    between atoms: C_66  and  N_72 
REMARK   39  A    between atoms: C_67  and  C_68 
REMARK   40  A    between atoms: C_68  and  C_69 
REMARK       I    between atoms: C_69  and  N_71 
REMARK       I    between atoms: N_72  and  C_73 
REMARK   41  A    between atoms: C_73  and  C_75 
REMARK   42  A    between atoms: C_75  and  C_76 
REMARK   43  A    between atoms: C_75  and  N_81 
REMARK   44  A    between atoms: C_76  and  C_77 
REMARK   45  A    between atoms: C_77  and  C_78 
REMARK   46  A    between atoms: C_78  and  O_80 
REMARK       I    between atoms: N_81  and  C_82 
REMARK   47  A    between atoms: C_84  and  C_82 
ROOT
HETATM    1  C   UNK N   1      26.275  14.607   2.840  0.00  0.00     0.176 C 
ENDROOT
BRANCH   1   2
HETATM    2  C   UNK N   1      25.867  13.910   4.119  0.00  0.00     0.241 C 
HETATM    3  N   UNK N   1      26.431  12.733   4.499  0.00  0.00    -0.346 N 
HETATM    4  H   UNK N   1      26.223  12.388   5.398  0.00  0.00     0.163 HD
HETATM    5  O   UNK N   1      25.078  14.455   4.874  0.00  0.00    -0.271 OA
BRANCH   3   6
HETATM    6  C   UNK N   1      27.321  11.954   3.663  0.00  0.00     0.172 C 
HETATM    7  C   UNK N   1      26.549  10.912   2.874  0.00  0.00     0.042 C 
BRANCH   6   8
HETATM    8  C   UNK N   1      28.565  11.372   4.314  0.00  0.00     0.240 C 
HETATM    9  O   UNK N   1      28.467  10.261   4.807  0.00  0.00    -0.271 OA
HETATM   10  N   UNK N   1      29.785  11.983   4.346  0.00  0.00    -0.346 N 
HETATM   11  H   UNK N   1      30.545  11.425   4.630  0.00  0.00     0.163 HD
BRANCH  10  12
HETATM   12  C   UNK N   1      30.091  13.363   4.010  0.00  0.00     0.177 C 
BRANCH  12  13
HETATM   13  C   UNK N   1      30.727  13.449   2.606  0.00  0.00     0.038 C 
BRANCH  13  14
HETATM   14  C   UNK N   1      30.520  12.239   1.681  0.00  0.00    -0.020 C 
HETATM   15  C   UNK N   1      29.395  12.539   0.714  0.00  0.00     0.009 C 
HETATM   16  C   UNK N   1      31.762  11.869   0.891  0.00  0.00     0.009 C 
ENDBRANCH  13  14
ENDBRANCH  12  13
BRANCH  12  17
HETATM   17  C   UNK N   1      31.021  13.873   5.064  0.00  0.00     0.241 C 
HETATM   18  O   UNK N   1      32.140  13.387   5.133  0.00  0.00    -0.271 OA
HETATM   19  N   UNK N   1      30.697  14.966   5.811  0.00  0.00    -0.346 N 
HETATM   20  H   UNK N   1      29.748  15.180   5.957  0.00  0.00     0.163 HD
BRANCH  19  21
HETATM   21  C   UNK N   1      31.711  15.820   6.396  0.00  0.00     0.185 C 
BRANCH  21  22
HETATM   22  C   UNK N   1      31.741  17.174   5.651  0.00  0.00     0.137 C 
BRANCH  22  23
HETATM   23  C   UNK N   1      32.969  17.501   4.880  0.00  0.00     0.217 C 
HETATM   24  O   UNK N   1      33.968  17.885   5.459  0.00  0.00    -0.274 OA
HETATM   25  N   UNK N   1      33.015  17.240   3.558  0.00  0.00    -0.370 N 
HETATM   26  H   UNK N   1      32.560  17.186   2.686  0.00  0.00     0.159 HD
HETATM   27  H   UNK N   1      33.946  16.976   3.379  0.00  0.00     0.159 HD
ENDBRANCH  22  23
ENDBRANCH  21  22
BRANCH  21  28
HETATM   28  C   UNK N   1      31.354  15.899   7.874  0.00  0.00     0.241 C 
HETATM   29  O   UNK N   1      30.467  16.650   8.240  0.00  0.00    -0.271 OA
HETATM   30  N   UNK N   1      31.923  15.073   8.788  0.00  0.00    -0.344 N 
HETATM   31  H   UNK N   1      31.546  15.051   9.697  0.00  0.00     0.163 HD
BRANCH  30  32
HETATM   32  C   UNK N   1      33.051  14.229   8.492  0.00  0.00     0.200 C 
BRANCH  32  33
HETATM   33  C   UNK N   1      32.692  12.762   8.737  0.00  0.00     0.199 C 
BRANCH  33  34
HETATM   34  O   UNK N   1      33.406  12.240   9.815  0.00  0.00    -0.398 OA
HETATM   35  H   UNK N   1      34.292  11.854   9.722  0.00  0.00     0.209 HD
ENDBRANCH  33  34
ENDBRANCH  32  33
BRANCH  32  36
HETATM   36  C   UNK N   1      34.154  14.611   9.433  0.00  0.00     0.243 C 
HETATM   37  O   UNK N   1      35.323  14.444   9.091  0.00  0.00    -0.271 OA
HETATM   38  N   UNK N   1      33.875  15.147  10.640  0.00  0.00    -0.343 N 
HETATM   39  H   UNK N   1      32.934  15.280  10.894  0.00  0.00     0.163 HD
BRANCH  38  40
HETATM   40  C   UNK N   1      34.913  15.534  11.575  0.00  0.00     0.206 C 
BRANCH  40  41
HETATM   41  C   UNK N   1      35.492  14.292  12.227  0.00  0.00     0.200 C 
BRANCH  41  42
HETATM   42  O   UNK N   1      34.457  13.418  12.560  0.00  0.00    -0.398 OA
HETATM   43  H   UNK N   1      33.847  13.044  11.905  0.00  0.00     0.209 HD
ENDBRANCH  41  42
ENDBRANCH  40  41
BRANCH  40  44
HETATM   44  C   UNK N   1      35.973  16.382  10.906  0.00  0.00     0.165 C 
HETATM   45  O   UNK N   1      35.695  17.477  10.443  0.00  0.00    -0.648 OA
BRANCH  44  46
HETATM   46  O   UNK N   1      37.223  15.908  10.766  0.00  0.00    -0.775 OA
HETATM   47  H   UNK N   1      37.990  16.284  10.380  0.00  0.00     0.167 HD
ENDBRANCH  44  46
ENDBRANCH  40  44
ENDBRANCH  38  40
ENDBRANCH  32  36
ENDBRANCH  30  32
ENDBRANCH  21  28
ENDBRANCH  19  21
ENDBRANCH  12  17
ENDBRANCH  10  12
ENDBRANCH   6   8
ENDBRANCH   3   6
ENDBRANCH   1   2
BRANCH   1  48
HETATM   48  C   UNK N   1      26.466  16.112   2.891  0.00  0.00     0.036 C 
BRANCH  48  49
HETATM   49  C   UNK N   1      27.949  16.420   3.053  0.00  0.00     0.023 C 
BRANCH  49  50
HETATM   50  C   UNK N   1      28.248  17.131   4.366  0.00  0.00     0.138 C 
BRANCH  50  51
HETATM   51  N   UNK N   1      27.707  16.362   5.456  0.00  0.00    -0.227 N 
HETATM   52  C   UNK N   1      27.315  16.973   6.672  0.00  0.00     0.665 C 
HETATM   53  N   UNK N   1      27.447  18.237   6.839  0.00  0.00    -0.235 N 
HETATM   54  N   UNK N   1      26.711  16.193   7.681  0.00  0.00    -0.235 N 
HETATM   55  H   UNK N   1      27.091  18.735   7.611  0.00  0.00     0.174 HD
ATOM     56  HN  UNK N   1      27.953  18.763   6.126  1.00  0.00     0.174 HD
HETATM   57  H   UNK N   1      26.354  15.300   7.469  0.00  0.00     0.174 HD
HETATM   58  H   UNK N   1      26.644  16.544   8.599  0.00  0.00     0.174 HD
HETATM   59  H   UNK N   1      27.606  15.389   5.352  0.00  0.00     0.177 HD
ENDBRANCH  50  51
ENDBRANCH  49  50
ENDBRANCH  48  49
ENDBRANCH   1  48
BRANCH   1  60
HETATM   60  N   UNK N   1      25.713  14.176   1.572  0.00  0.00    -0.346 N 
HETATM   61  C   UNK N   1      24.468  13.694   1.311  0.00  0.00     0.241 C 
HETATM   62  O   UNK N   1      24.138  13.540   0.148  0.00  0.00    -0.271 OA
HETATM   63  H   UNK N   1      26.314  14.242   0.795  0.00  0.00     0.163 HD
BRANCH  61  64
HETATM   64  C   UNK N   1      23.487  13.281   2.376  0.00  0.00     0.177 C 
BRANCH  64  65
HETATM   65  C   UNK N   1      22.132  13.866   2.028  0.00  0.00     0.045 C 
BRANCH  65  66
HETATM   66  C   UNK N   1      22.074  15.347   2.301  0.00  0.00     0.112 C 
BRANCH  66  67
HETATM   67  C   UNK N   1      20.807  15.914   1.761  0.00  0.00     0.139 C 
HETATM   68  O   UNK N   1      19.883  16.154   2.519  0.00  0.00    -0.650 OA
BRANCH  67  69
HETATM   69  O   UNK N   1      20.679  16.164   0.444  0.00  0.00    -0.776 OA
HETATM   70  H   UNK N   1      19.849  16.352   0.054  0.00  0.00     0.167 HD
ENDBRANCH  67  69
ENDBRANCH  66  67
ENDBRANCH  65  66
ENDBRANCH  64  65
BRANCH  64  71
HETATM   71  N   UNK N   1      23.375  11.846   2.538  0.00  0.00    -0.346 N 
HETATM   72  C   UNK N   1      22.864  11.208   3.623  0.00  0.00     0.241 C 
HETATM   73  O   UNK N   1      22.889   9.987   3.649  0.00  0.00    -0.271 OA
HETATM   74  H   UNK N   1      23.698  11.284   1.797  0.00  0.00     0.163 HD
BRANCH  72  75
HETATM   75  C   UNK N   1      22.309  11.954   4.811  0.00  0.00     0.177 C 
BRANCH  75  76
HETATM   76  C   UNK N   1      23.351  11.787   5.913  0.00  0.00     0.038 C 
BRANCH  76  77
HETATM   77  C   UNK N   1      22.874  10.932   7.066  0.00  0.00    -0.020 C 
HETATM   78  C   UNK N   1      23.719   9.678   7.111  0.00  0.00     0.009 C 
HETATM   79  C   UNK N   1      23.079  11.694   8.361  0.00  0.00     0.009 C 
ENDBRANCH  76  77
ENDBRANCH  75  76
BRANCH  75  80
HETATM   80  N   UNK N   1      21.062  11.322   5.225  0.00  0.00    -0.346 N 
HETATM   81  C   UNK N   1      19.803  11.756   4.923  0.00  0.00     0.241 C 
HETATM   82  O   UNK N   1      18.852  11.084   5.280  0.00  0.00    -0.271 OA
HETATM   83  H   UNK N   1      21.135  10.507   5.773  0.00  0.00     0.163 HD
BRANCH  81  84
HETATM   84  C   UNK N   1      19.570  13.044   4.160  0.00  0.00     0.177 C 
BRANCH  84  85
HETATM   85  C   UNK N   1      18.951  12.734   2.802  0.00  0.00     0.044 C 
BRANCH  85  86
HETATM   86  C   UNK N   1      19.521  11.433   2.250  0.00  0.00     0.105 C 
BRANCH  86  87
HETATM   87  C   UNK N   1      19.596  11.452   0.754  0.00  0.00     0.215 C 
HETATM   88  O   UNK N   1      19.319  12.465   0.135  0.00  0.00    -0.274 OA
HETATM   89  N   UNK N   1      20.013  10.357   0.091  0.00  0.00    -0.370 N 
HETATM   90  H   UNK N   1      20.286  10.427  -0.852  0.00  0.00     0.159 HD
HETATM   91  H   UNK N   1      20.044   9.487   0.549  0.00  0.00     0.159 HD
ENDBRANCH  86  87
ENDBRANCH  85  86
ENDBRANCH  84  85
BRANCH  84  92
HETATM   92  N   UNK N   1      18.702  14.033   4.784  0.00  0.00    -0.346 N 
HETATM   93  C   UNK N   1      18.981  15.122   5.548  0.00  0.00     0.241 C 
HETATM   94  O   UNK N   1      18.096  15.945   5.706  0.00  0.00    -0.271 OA
HETATM   95  H   UNK N   1      17.742  13.885   4.625  0.00  0.00     0.163 HD
BRANCH  93  96
HETATM   96  C   UNK N   1      20.313  15.408   6.191  0.00  0.00     0.177 C 
BRANCH  96  97
HETATM   97  C   UNK N   1      20.814  14.318   7.126  0.00  0.00     0.045 C 
BRANCH  97  98
HETATM   98  C   UNK N   1      21.083  14.899   8.502  0.00  0.00     0.112 C 
BRANCH  98  99
HETATM   99  C   UNK N   1      19.947  14.580   9.413  0.00  0.00     0.139 C 
HETATM  100  O   UNK N   1      20.008  13.608  10.149  0.00  0.00    -0.650 OA
BRANCH  99 101
HETATM  101  O   UNK N   1      18.852  15.357   9.414  0.00  0.00    -0.776 OA
HETATM  102  H   UNK N   1      18.159  15.197  10.026  0.00  0.00     0.167 HD
ENDBRANCH  99 101
ENDBRANCH  98  99
ENDBRANCH  97  98
ENDBRANCH  96  97
BRANCH  96 103
HETATM  103  N   UNK N   1      20.366  16.731   6.785  0.00  0.00    -0.346 N 
HETATM  104  C   UNK N   1      21.174  17.728   6.330  0.00  0.00     0.241 C 
HETATM  105  O   UNK N   1      21.153  18.812   6.893  0.00  0.00    -0.271 OA
HETATM  106  H   UNK N   1      19.787  16.917   7.559  0.00  0.00     0.163 HD
BRANCH 104 107
HETATM  107  C   UNK N   1      22.093  17.523   5.147  0.00  0.00     0.177 A 
HETATM  108  C   UNK N   1      21.840  18.609   4.081  0.00  0.00     0.044 A 
HETATM  109  C   UNK N   1      23.181  19.287   3.783  0.00  0.00     0.105 A 
HETATM  110  C   UNK N   1      24.060  18.644   4.773  0.00  0.00     0.218 A 
HETATM  111  O   UNK N   1      25.235  18.943   4.915  0.00  0.00    -0.274 OA
HETATM  112  N   UNK N   1      23.471  17.698   5.507  0.00  0.00    -0.348 N 
HETATM  113  H   UNK N   1      23.928  17.182   6.211  0.00  0.00     0.163 HD
ENDBRANCH 104 107
ENDBRANCH  96 103
ENDBRANCH  93  96
ENDBRANCH  84  92
ENDBRANCH  81  84
ENDBRANCH  75  80
ENDBRANCH  72  75
ENDBRANCH  64  71
ENDBRANCH  61  64
ENDBRANCH   1  60
TORSDOF 47
ENDMDL
