REMARK  7 active torsions:
REMARK  status: ('A' for Active; 'I' for Inactive)
REMARK    1  A    between atoms: C_5  and  C_21 
REMARK    2  A    between atoms: C_10  and  O_20 
REMARK    3  A    between atoms: C_11  and  C_14 
REMARK       I    between atoms: C_14  and  N_16 
REMARK    4  A    between atoms: N_16  and  C_17 
REMARK    5  A    between atoms: C_17  and  C_18 
REMARK    6  A    between atoms: C_18  and  O_19 
REMARK    7  A    between atoms: C_21  and  C_22 
ROOT
HETATM    1  C   UNK N   1       1.263  -5.896  -0.011  0.00  0.00     0.159 C 
HETATM    2  N   UNK N   1       1.258  -4.433  -0.005  0.00  0.00    -0.316 N 
HETATM    3  C   UNK N   1       0.070  -3.751   0.000  0.00  0.00     0.067 A 
HETATM    4  C   UNK N   1      -1.172  -4.422  -0.001  0.00  0.00     0.041 A 
HETATM    5  C   UNK N   1      -2.369  -3.692   0.003  0.00  0.00    -0.036 A 
HETATM    6  C   UNK N   1      -2.293  -2.298   0.011  0.00  0.00     0.096 A 
HETATM    7  N   UNK N   1      -1.101  -1.662   0.012  0.00  0.00    -0.361 N 
ATOM      8  HN  UNK N   1      -1.082  -0.642   0.017  1.00  0.00     0.165 HD
HETATM    9  C   UNK N   1       0.070  -2.344   0.006  0.00  0.00     0.094 A 
HETATM   10  C   UNK N   1       1.269  -1.642   0.007  0.00  0.00     0.116 A 
HETATM   11  C   UNK N   1       2.496  -2.333   0.002  0.00  0.00     0.135 A 
HETATM   12  C   UNK N   1       2.466  -3.754  -0.004  0.00  0.00     0.266 A 
HETATM   13  O   UNK N   1       3.510  -4.388  -0.008  0.00  0.00    -0.267 OA
ENDROOT
BRANCH   5  14
HETATM   14  C   UNK N   1      -3.697  -4.425   0.003  0.00  0.00     0.078 C 
BRANCH  14  15
HETATM   15  C   UNK N   1      -4.997  -3.635  -0.002  0.00  0.00    -0.054 A 
HETATM   16  C   UNK N   1      -6.209  -4.337   0.026  0.00  0.00     0.010 A 
HETATM   17  C   UNK N   1      -7.429  -3.646   0.025  0.00  0.00     0.043 A 
HETATM   18  C   UNK N   1      -7.445  -2.248  -0.005  0.00  0.00     0.116 A 
HETATM   19  C   UNK N   1      -6.246  -1.541  -0.035  0.00  0.00     0.043 A 
HETATM   20  F   UNK N   1      -8.621  -1.576  -0.004  0.00  0.00    -0.206 F 
HETATM   21  C   UNK N   1      -5.036  -2.231  -0.034  0.00  0.00     0.010 A 
ENDBRANCH  14  15
ENDBRANCH   5  14
BRANCH  10  22
HETATM   22  O   UNK N   1       1.231  -0.295   0.013  0.00  0.00    -0.357 OA
HETATM   23  H   UNK N   1       2.029   0.196   0.017  0.00  0.00     0.217 HD
ENDBRANCH  10  22
BRANCH  11  24
HETATM   24  C   UNK N   1       3.791  -1.567   0.002  0.00  0.00     0.260 C 
HETATM   25  O   UNK N   1       3.778  -0.343   0.005  0.00  0.00    -0.267 OA
HETATM   26  N   UNK N   1       4.978  -2.218  -0.001  0.00  0.00    -0.355 N 
HETATM   27  H   UNK N   1       4.985  -3.202  -0.004  0.00  0.00     0.162 HD
BRANCH  26  28
HETATM   28  C   UNK N   1       6.232  -1.508  -0.001  0.00  0.00     0.148 C 
BRANCH  28  29
HETATM   29  C   UNK N   1       7.372  -2.502  -0.002  0.00  0.00     0.183 C 
BRANCH  29  30
HETATM   30  O   UNK N   1       8.584  -1.814  -0.001  0.00  0.00    -0.399 OA
HETATM   31  H   UNK N   1       9.420  -2.305   0.000  0.00  0.00     0.209 HD
ENDBRANCH  29  30
ENDBRANCH  28  29
ENDBRANCH  26  28
ENDBRANCH  11  24
TORSDOF 7
