MODEL 1
REMARK VINA RESULT:      -6.9      0.000      0.000
REMARK  9 active torsions:
REMARK  status: ('A' for Active; 'I' for Inactive)
REMARK    1  A    between atoms: C_3  and  C_22 
REMARK       I    between atoms: N_4  and  C_6 
REMARK    2  A    between atoms: C_6  and  C_8 
REMARK    3  A    between atoms: C_8  and  C_9 
REMARK    4  A    between atoms: C_9  and  C_10 
REMARK    5  A    between atoms: C_10  and  C_11 
REMARK    6  A    between atoms: C_11  and  C_12 
REMARK       I    between atoms: C_12  and  N_14 
REMARK    7  A    between atoms: C_18  and  C_19 
REMARK    8  A    between atoms: C_19  and  O_21 
REMARK    9  A    between atoms: C_22  and  O_24 
ROOT
HETATM    1  C   UNK N   1      26.795  20.401   3.303  0.00  0.00     0.010 C 
ENDROOT
BRANCH   1   2
HETATM    2  C   UNK N   1      25.650  19.620   3.899  0.00  0.00     0.103 C 
BRANCH   2   3
HETATM    3  C   UNK N   1      24.243  19.883   3.405  0.00  0.00     0.220 C 
HETATM    4  N   UNK N   1      23.127  19.175   3.806  0.00  0.00    -0.338 N 
HETATM    5  C   UNK N   1      21.764  19.396   3.358  0.00  0.00     0.185 A 
HETATM    6  C   UNK N   1      23.191  18.094   4.753  0.00  0.00     0.127 A 
HETATM    7  C   UNK N   1      20.853  18.403   4.044  0.00  0.00     0.038 A 
HETATM    8  C   UNK N   1      21.770  17.573   4.935  0.00  0.00     0.022 A 
HETATM    9  O   UNK N   1      24.138  20.788   2.603  0.00  0.00    -0.273 OA
BRANCH   5  10
HETATM   10  C   UNK N   1      21.190  20.403   2.378  0.00  0.00     0.163 C 
HETATM   11  O   UNK N   1      20.564  19.992   1.416  0.00  0.00    -0.648 OA
BRANCH  10  12
HETATM   12  O   UNK N   1      21.340  21.730   2.524  0.00  0.00    -0.775 OA
HETATM   13  H   UNK N   1      21.948  22.067   3.153  0.00  0.00     0.167 HD
ENDBRANCH  10  12
ENDBRANCH   5  10
ENDBRANCH   2   3
ENDBRANCH   1   2
BRANCH   1  14
HETATM   14  C   UNK N   1      28.016  20.163   4.135  0.00  0.00     0.010 C 
BRANCH  14  15
HETATM   15  C   UNK N   1      27.925  18.785   4.738  0.00  0.00     0.103 C 
BRANCH  15  16
HETATM   16  C   UNK N   1      28.217  18.605   6.213  0.00  0.00     0.220 C 
HETATM   17  O   UNK N   1      27.431  19.143   6.965  0.00  0.00    -0.273 OA
HETATM   18  N   UNK N   1      29.287  17.891   6.718  0.00  0.00    -0.338 N 
HETATM   19  C   UNK N   1      30.249  17.233   5.875  0.00  0.00     0.127 A 
HETATM   20  C   UNK N   1      29.602  17.696   8.121  0.00  0.00     0.185 A 
HETATM   21  C   UNK N   1      31.264  16.561   6.794  0.00  0.00     0.022 A 
HETATM   22  C   UNK N   1      30.853  16.855   8.233  0.00  0.00     0.038 A 
BRANCH  20  23
HETATM   23  C   UNK N   1      28.899  18.184   9.376  0.00  0.00     0.163 C 
HETATM   24  O   UNK N   1      29.561  18.738  10.238  0.00  0.00    -0.648 OA
BRANCH  23  25
HETATM   25  O   UNK N   1      27.581  18.033   9.580  0.00  0.00    -0.775 OA
HETATM   26  H   UNK N   1      27.059  17.573   8.952  0.00  0.00     0.167 HD
ENDBRANCH  23  25
ENDBRANCH  20  23
ENDBRANCH  15  16
ENDBRANCH  14  15
ENDBRANCH   1  14
TORSDOF 9
ENDMDL
MODEL 2
REMARK VINA RESULT:      -6.9     10.773     13.874
REMARK  9 active torsions:
REMARK  status: ('A' for Active; 'I' for Inactive)
REMARK    1  A    between atoms: C_3  and  C_22 
REMARK       I    between atoms: N_4  and  C_6 
REMARK    2  A    between atoms: C_6  and  C_8 
REMARK    3  A    between atoms: C_8  and  C_9 
REMARK    4  A    between atoms: C_9  and  C_10 
REMARK    5  A    between atoms: C_10  and  C_11 
REMARK    6  A    between atoms: C_11  and  C_12 
REMARK       I    between atoms: C_12  and  N_14 
REMARK    7  A    between atoms: C_18  and  C_19 
REMARK    8  A    between atoms: C_19  and  O_21 
REMARK    9  A    between atoms: C_22  and  O_24 
ROOT
HETATM    1  C   UNK N   1      27.850  23.617  -7.601  0.00  0.00     0.010 C 
ENDROOT
BRANCH   1   2
HETATM    2  C   UNK N   1      28.245  22.471  -6.704  0.00  0.00     0.103 C 
BRANCH   2   3
HETATM    3  C   UNK N   1      28.963  22.767  -5.404  0.00  0.00     0.220 C 
HETATM    4  N   UNK N   1      29.989  22.002  -4.883  0.00  0.00    -0.338 N 
HETATM    5  C   UNK N   1      30.701  22.251  -3.644  0.00  0.00     0.185 A 
HETATM    6  C   UNK N   1      30.487  20.823  -5.539  0.00  0.00     0.127 A 
HETATM    7  C   UNK N   1      31.745  21.174  -3.451  0.00  0.00     0.038 A 
HETATM    8  C   UNK N   1      31.605  20.263  -4.665  0.00  0.00     0.022 A 
HETATM    9  O   UNK N   1      28.576  23.754  -4.814  0.00  0.00    -0.273 OA
BRANCH   5  10
HETATM   10  C   UNK N   1      30.547  23.353  -2.612  0.00  0.00     0.163 C 
HETATM   11  O   UNK N   1      30.370  23.042  -1.446  0.00  0.00    -0.648 OA
BRANCH  10  12
HETATM   12  O   UNK N   1      30.597  24.658  -2.925  0.00  0.00    -0.775 OA
HETATM   13  H   UNK N   1      31.094  25.249  -2.394  0.00  0.00     0.167 HD
ENDBRANCH  10  12
ENDBRANCH   5  10
ENDBRANCH   2   3
ENDBRANCH   1   2
BRANCH   1  14
HETATM   14  C   UNK N   1      26.414  23.448  -7.985  0.00  0.00     0.010 C 
BRANCH  14  15
HETATM   15  C   UNK N   1      25.706  24.764  -7.785  0.00  0.00     0.103 C 
BRANCH  15  16
HETATM   16  C   UNK N   1      25.823  25.468  -6.449  0.00  0.00     0.220 C 
HETATM   17  O   UNK N   1      25.273  24.911  -5.522  0.00  0.00    -0.273 OA
HETATM   18  N   UNK N   1      26.495  26.658  -6.247  0.00  0.00    -0.338 N 
HETATM   19  C   UNK N   1      27.165  27.362  -7.308  0.00  0.00     0.127 A 
HETATM   20  C   UNK N   1      26.630  27.363  -4.986  0.00  0.00     0.185 A 
HETATM   21  C   UNK N   1      27.781  28.615  -6.695  0.00  0.00     0.022 A 
HETATM   22  C   UNK N   1      27.440  28.619  -5.209  0.00  0.00     0.038 A 
BRANCH  20  23
HETATM   23  C   UNK N   1      26.109  27.030  -3.599  0.00  0.00     0.163 C 
HETATM   24  O   UNK N   1      25.434  27.860  -3.014  0.00  0.00    -0.648 OA
BRANCH  23  25
HETATM   25  O   UNK N   1      26.360  25.862  -2.986  0.00  0.00    -0.775 OA
HETATM   26  H   UNK N   1      25.728  25.496  -2.399  0.00  0.00     0.167 HD
ENDBRANCH  23  25
ENDBRANCH  20  23
ENDBRANCH  15  16
ENDBRANCH  14  15
ENDBRANCH   1  14
TORSDOF 9
ENDMDL
MODEL 3
REMARK VINA RESULT:      -6.8      1.016      8.307
REMARK  9 active torsions:
REMARK  status: ('A' for Active; 'I' for Inactive)
REMARK    1  A    between atoms: C_3  and  C_22 
REMARK       I    between atoms: N_4  and  C_6 
REMARK    2  A    between atoms: C_6  and  C_8 
REMARK    3  A    between atoms: C_8  and  C_9 
REMARK    4  A    between atoms: C_9  and  C_10 
REMARK    5  A    between atoms: C_10  and  C_11 
REMARK    6  A    between atoms: C_11  and  C_12 
REMARK       I    between atoms: C_12  and  N_14 
REMARK    7  A    between atoms: C_18  and  C_19 
REMARK    8  A    between atoms: C_19  and  O_21 
REMARK    9  A    between atoms: C_22  and  O_24 
ROOT
HETATM    1  C   UNK N   1      26.830  19.572   4.020  0.00  0.00     0.010 C 
ENDROOT
BRANCH   1   2
HETATM    2  C   UNK N   1      27.951  20.090   4.887  0.00  0.00     0.103 C 
BRANCH   2   3
HETATM    3  C   UNK N   1      28.180  19.462   6.246  0.00  0.00     0.220 C 
HETATM    4  N   UNK N   1      28.998  18.373   6.478  0.00  0.00    -0.338 N 
HETATM    5  C   UNK N   1      29.244  17.743   7.762  0.00  0.00     0.185 A 
HETATM    6  C   UNK N   1      29.729  17.713   5.429  0.00  0.00     0.127 A 
HETATM    7  C   UNK N   1      30.200  16.587   7.568  0.00  0.00     0.038 A 
HETATM    8  C   UNK N   1      30.507  16.572   6.075  0.00  0.00     0.022 A 
HETATM    9  O   UNK N   1      27.584  19.985   7.163  0.00  0.00    -0.273 OA
BRANCH   5  10
HETATM   10  C   UNK N   1      28.714  18.067   9.147  0.00  0.00     0.163 C 
HETATM   11  O   UNK N   1      29.512  18.264  10.048  0.00  0.00    -0.648 OA
BRANCH  10  12
HETATM   12  O   UNK N   1      27.402  18.146   9.426  0.00  0.00    -0.775 OA
HETATM   13  H   UNK N   1      26.973  17.440   9.867  0.00  0.00     0.167 HD
ENDBRANCH  10  12
ENDBRANCH   5  10
ENDBRANCH   2   3
ENDBRANCH   1   2
BRANCH   1  14
HETATM   14  C   UNK N   1      25.657  20.491   4.161  0.00  0.00     0.010 C 
BRANCH  14  15
HETATM   15  C   UNK N   1      24.820  20.395   2.911  0.00  0.00     0.103 C 
BRANCH  15  16
HETATM   16  C   UNK N   1      23.319  20.245   3.040  0.00  0.00     0.220 C 
HETATM   17  O   UNK N   1      22.672  21.213   2.700  0.00  0.00    -0.273 OA
HETATM   18  N   UNK N   1      22.682  19.110   3.504  0.00  0.00    -0.338 N 
HETATM   19  C   UNK N   1      23.398  17.933   3.920  0.00  0.00     0.127 A 
HETATM   20  C   UNK N   1      21.250  18.926   3.642  0.00  0.00     0.185 A 
HETATM   21  C   UNK N   1      22.358  16.909   4.361  0.00  0.00     0.022 A 
HETATM   22  C   UNK N   1      20.981  17.541   4.185  0.00  0.00     0.038 A 
BRANCH  20  23
HETATM   23  C   UNK N   1      20.092  19.861   3.339  0.00  0.00     0.163 C 
HETATM   24  O   UNK N   1      19.185  19.458   2.631  0.00  0.00    -0.648 OA
BRANCH  23  25
HETATM   25  O   UNK N   1      20.023  21.114   3.817  0.00  0.00    -0.775 OA
HETATM   26  H   UNK N   1      20.510  21.800   3.405  0.00  0.00     0.167 HD
ENDBRANCH  23  25
ENDBRANCH  20  23
ENDBRANCH  15  16
ENDBRANCH  14  15
ENDBRANCH   1  14
TORSDOF 9
ENDMDL
MODEL 4
REMARK VINA RESULT:      -6.5     10.708     12.659
REMARK  9 active torsions:
REMARK  status: ('A' for Active; 'I' for Inactive)
REMARK    1  A    between atoms: C_3  and  C_22 
REMARK       I    between atoms: N_4  and  C_6 
REMARK    2  A    between atoms: C_6  and  C_8 
REMARK    3  A    between atoms: C_8  and  C_9 
REMARK    4  A    between atoms: C_9  and  C_10 
REMARK    5  A    between atoms: C_10  and  C_11 
REMARK    6  A    between atoms: C_11  and  C_12 
REMARK       I    between atoms: C_12  and  N_14 
REMARK    7  A    between atoms: C_18  and  C_19 
REMARK    8  A    between atoms: C_19  and  O_21 
REMARK    9  A    between atoms: C_22  and  O_24 
ROOT
HETATM    1  C   UNK N   1      27.057  25.895  -3.977  0.00  0.00     0.010 C 
ENDROOT
BRANCH   1   2
HETATM    2  C   UNK N   1      25.898  26.001  -4.936  0.00  0.00     0.103 C 
BRANCH   2   3
HETATM    3  C   UNK N   1      25.675  24.895  -5.946  0.00  0.00     0.220 C 
HETATM    4  N   UNK N   1      25.771  25.054  -7.316  0.00  0.00    -0.338 N 
HETATM    5  C   UNK N   1      25.565  24.022  -8.315  0.00  0.00     0.185 A 
HETATM    6  C   UNK N   1      26.100  26.312  -7.930  0.00  0.00     0.127 A 
HETATM    7  C   UNK N   1      25.767  24.620  -9.689  0.00  0.00     0.038 A 
HETATM    8  C   UNK N   1      26.109  26.084  -9.439  0.00  0.00     0.022 A 
HETATM    9  O   UNK N   1      25.394  23.814  -5.474  0.00  0.00    -0.273 OA
BRANCH   5  10
HETATM   10  C   UNK N   1      25.205  22.554  -8.170  0.00  0.00     0.163 C 
HETATM   11  O   UNK N   1      24.027  22.240  -8.149  0.00  0.00    -0.648 OA
BRANCH  10  12
HETATM   12  O   UNK N   1      26.127  21.584  -8.065  0.00  0.00    -0.775 OA
HETATM   13  H   UNK N   1      26.229  20.957  -8.754  0.00  0.00     0.167 HD
ENDBRANCH  10  12
ENDBRANCH   5  10
ENDBRANCH   2   3
ENDBRANCH   1   2
BRANCH   1  14
HETATM   14  C   UNK N   1      28.081  26.920  -4.352  0.00  0.00     0.010 C 
BRANCH  14  15
HETATM   15  C   UNK N   1      29.294  26.209  -4.895  0.00  0.00     0.103 C 
BRANCH  15  16
HETATM   16  C   UNK N   1      29.857  25.026  -4.135  0.00  0.00     0.220 C 
HETATM   17  O   UNK N   1      30.331  25.288  -3.050  0.00  0.00    -0.273 OA
HETATM   18  N   UNK N   1      29.854  23.724  -4.598  0.00  0.00    -0.338 N 
HETATM   19  C   UNK N   1      29.305  23.356  -5.876  0.00  0.00     0.127 A 
HETATM   20  C   UNK N   1      30.381  22.565  -3.903  0.00  0.00     0.185 A 
HETATM   21  C   UNK N   1      29.487  21.849  -6.024  0.00  0.00     0.022 A 
HETATM   22  C   UNK N   1      30.176  21.339  -4.763  0.00  0.00     0.038 A 
BRANCH  20  23
HETATM   23  C   UNK N   1      31.051  22.438  -2.546  0.00  0.00     0.163 C 
HETATM   24  O   UNK N   1      32.103  21.826  -2.469  0.00  0.00    -0.648 OA
BRANCH  23  25
HETATM   25  O   UNK N   1      30.537  22.971  -1.426  0.00  0.00    -0.775 OA
HETATM   26  H   UNK N   1      30.579  23.897  -1.285  0.00  0.00     0.167 HD
ENDBRANCH  23  25
ENDBRANCH  20  23
ENDBRANCH  15  16
ENDBRANCH  14  15
ENDBRANCH   1  14
TORSDOF 9
ENDMDL
MODEL 5
REMARK VINA RESULT:      -6.4      2.339      9.011
REMARK  9 active torsions:
REMARK  status: ('A' for Active; 'I' for Inactive)
REMARK    1  A    between atoms: C_3  and  C_22 
REMARK       I    between atoms: N_4  and  C_6 
REMARK    2  A    between atoms: C_6  and  C_8 
REMARK    3  A    between atoms: C_8  and  C_9 
REMARK    4  A    between atoms: C_9  and  C_10 
REMARK    5  A    between atoms: C_10  and  C_11 
REMARK    6  A    between atoms: C_11  and  C_12 
REMARK       I    between atoms: C_12  and  N_14 
REMARK    7  A    between atoms: C_18  and  C_19 
REMARK    8  A    between atoms: C_19  and  O_21 
REMARK    9  A    between atoms: C_22  and  O_24 
ROOT
HETATM    1  C   UNK N   1      28.111  18.954   4.491  0.00  0.00     0.010 C 
ENDROOT
BRANCH   1   2
HETATM    2  C   UNK N   1      28.758  17.592   4.463  0.00  0.00     0.103 C 
BRANCH   2   3
HETATM    3  C   UNK N   1      30.205  17.455   4.890  0.00  0.00     0.220 C 
HETATM    4  N   UNK N   1      30.627  17.327   6.199  0.00  0.00    -0.338 N 
HETATM    5  C   UNK N   1      32.000  17.195   6.649  0.00  0.00     0.185 A 
HETATM    6  C   UNK N   1      29.714  17.310   7.311  0.00  0.00     0.127 A 
HETATM    7  C   UNK N   1      32.015  17.081   8.157  0.00  0.00     0.038 A 
HETATM    8  C   UNK N   1      30.552  17.156   8.576  0.00  0.00     0.022 A 
HETATM    9  O   UNK N   1      31.013  17.464   3.985  0.00  0.00    -0.273 OA
BRANCH   5  10
HETATM   10  C   UNK N   1      33.303  17.158   5.871  0.00  0.00     0.163 C 
HETATM   11  O   UNK N   1      34.181  17.953   6.163  0.00  0.00    -0.648 OA
BRANCH  10  12
HETATM   12  O   UNK N   1      33.533  16.289   4.873  0.00  0.00    -0.775 OA
HETATM   13  H   UNK N   1      32.888  15.645   4.655  0.00  0.00     0.167 HD
ENDBRANCH  10  12
ENDBRANCH   5  10
ENDBRANCH   2   3
ENDBRANCH   1   2
BRANCH   1  14
HETATM   14  C   UNK N   1      26.826  18.886   3.726  0.00  0.00     0.010 C 
BRANCH  14  15
HETATM   15  C   UNK N   1      25.936  20.013   4.182  0.00  0.00     0.103 C 
BRANCH  15  16
HETATM   16  C   UNK N   1      24.543  20.133   3.601  0.00  0.00     0.220 C 
HETATM   17  O   UNK N   1      24.405  21.003   2.766  0.00  0.00    -0.273 OA
HETATM   18  N   UNK N   1      23.473  19.336   3.960  0.00  0.00    -0.338 N 
HETATM   19  C   UNK N   1      23.578  18.291   4.943  0.00  0.00     0.127 A 
HETATM   20  C   UNK N   1      22.125  19.419   3.428  0.00  0.00     0.185 A 
HETATM   21  C   UNK N   1      22.201  17.646   5.061  0.00  0.00     0.022 A 
HETATM   22  C   UNK N   1      21.269  18.365   4.092  0.00  0.00     0.038 A 
BRANCH  20  23
HETATM   23  C   UNK N   1      21.522  20.343   2.386  0.00  0.00     0.163 C 
HETATM   24  O   UNK N   1      20.999  19.850   1.401  0.00  0.00    -0.648 OA
BRANCH  23  25
HETATM   25  O   UNK N   1      21.538  21.681   2.500  0.00  0.00    -0.775 OA
HETATM   26  H   UNK N   1      20.813  22.127   2.892  0.00  0.00     0.167 HD
ENDBRANCH  23  25
ENDBRANCH  20  23
ENDBRANCH  15  16
ENDBRANCH  14  15
ENDBRANCH   1  14
TORSDOF 9
ENDMDL
MODEL 6
REMARK VINA RESULT:      -6.3     10.413     12.780
REMARK  9 active torsions:
REMARK  status: ('A' for Active; 'I' for Inactive)
REMARK    1  A    between atoms: C_3  and  C_22 
REMARK       I    between atoms: N_4  and  C_6 
REMARK    2  A    between atoms: C_6  and  C_8 
REMARK    3  A    between atoms: C_8  and  C_9 
REMARK    4  A    between atoms: C_9  and  C_10 
REMARK    5  A    between atoms: C_10  and  C_11 
REMARK    6  A    between atoms: C_11  and  C_12 
REMARK       I    between atoms: C_12  and  N_14 
REMARK    7  A    between atoms: C_18  and  C_19 
REMARK    8  A    between atoms: C_19  and  O_21 
REMARK    9  A    between atoms: C_22  and  O_24 
ROOT
HETATM    1  C   UNK N   1      26.143  23.674  -6.632  0.00  0.00     0.010 C 
ENDROOT
BRANCH   1   2
HETATM    2  C   UNK N   1      25.661  25.046  -7.034  0.00  0.00     0.103 C 
BRANCH   2   3
HETATM    3  C   UNK N   1      25.834  26.199  -6.068  0.00  0.00     0.220 C 
HETATM    4  N   UNK N   1      26.723  27.242  -6.243  0.00  0.00    -0.338 N 
HETATM    5  C   UNK N   1      26.919  28.363  -5.343  0.00  0.00     0.185 A 
HETATM    6  C   UNK N   1      27.592  27.337  -7.386  0.00  0.00     0.127 A 
HETATM    7  C   UNK N   1      27.985  29.272  -5.913  0.00  0.00     0.038 A 
HETATM    8  C   UNK N   1      28.413  28.612  -7.219  0.00  0.00     0.022 A 
HETATM    9  O   UNK N   1      25.121  26.162  -5.087  0.00  0.00    -0.273 OA
BRANCH   5  10
HETATM   10  C   UNK N   1      26.251  28.709  -4.025  0.00  0.00     0.163 C 
HETATM   11  O   UNK N   1      25.969  29.874  -3.799  0.00  0.00    -0.648 OA
BRANCH  10  12
HETATM   12  O   UNK N   1      25.956  27.788  -3.093  0.00  0.00    -0.775 OA
HETATM   13  H   UNK N   1      26.185  27.938  -2.196  0.00  0.00     0.167 HD
ENDBRANCH  10  12
ENDBRANCH   5  10
ENDBRANCH   2   3
ENDBRANCH   1   2
BRANCH   1  14
HETATM   14  C   UNK N   1      27.409  23.378  -7.373  0.00  0.00     0.010 C 
BRANCH  14  15
HETATM   15  C   UNK N   1      28.549  24.071  -6.670  0.00  0.00     0.103 C 
BRANCH  15  16
HETATM   16  C   UNK N   1      28.871  23.692  -5.240  0.00  0.00     0.220 C 
HETATM   17  O   UNK N   1      28.424  24.438  -4.395  0.00  0.00    -0.273 OA
HETATM   18  N   UNK N   1      29.615  22.588  -4.870  0.00  0.00    -0.338 N 
HETATM   19  C   UNK N   1      30.169  21.669  -5.828  0.00  0.00     0.127 A 
HETATM   20  C   UNK N   1      29.945  22.190  -3.514  0.00  0.00     0.185 A 
HETATM   21  C   UNK N   1      30.914  20.596  -5.041  0.00  0.00     0.022 A 
HETATM   22  C   UNK N   1      30.773  20.927  -3.559  0.00  0.00     0.038 A 
BRANCH  20  23
HETATM   23  C   UNK N   1      29.597  22.825  -2.179  0.00  0.00     0.163 C 
HETATM   24  O   UNK N   1      30.506  23.164  -1.439  0.00  0.00    -0.648 OA
BRANCH  23  25
HETATM   25  O   UNK N   1      28.333  23.029  -1.776  0.00  0.00    -0.775 OA
HETATM   26  H   UNK N   1      27.779  22.298  -1.583  0.00  0.00     0.167 HD
ENDBRANCH  23  25
ENDBRANCH  20  23
ENDBRANCH  15  16
ENDBRANCH  14  15
ENDBRANCH   1  14
TORSDOF 9
ENDMDL
MODEL 7
REMARK VINA RESULT:      -6.2      4.690      8.967
REMARK  9 active torsions:
REMARK  status: ('A' for Active; 'I' for Inactive)
REMARK    1  A    between atoms: C_3  and  C_22 
REMARK       I    between atoms: N_4  and  C_6 
REMARK    2  A    between atoms: C_6  and  C_8 
REMARK    3  A    between atoms: C_8  and  C_9 
REMARK    4  A    between atoms: C_9  and  C_10 
REMARK    5  A    between atoms: C_10  and  C_11 
REMARK    6  A    between atoms: C_11  and  C_12 
REMARK       I    between atoms: C_12  and  N_14 
REMARK    7  A    between atoms: C_18  and  C_19 
REMARK    8  A    between atoms: C_19  and  O_21 
REMARK    9  A    between atoms: C_22  and  O_24 
ROOT
HETATM    1  C   UNK N   1      21.128  16.213   7.707  0.00  0.00     0.010 C 
ENDROOT
BRANCH   1   2
HETATM    2  C   UNK N   1      21.634  14.847   7.314  0.00  0.00     0.103 C 
BRANCH   2   3
HETATM    3  C   UNK N   1      22.576  14.115   8.248  0.00  0.00     0.220 C 
HETATM    4  N   UNK N   1      22.181  13.433   9.383  0.00  0.00    -0.338 N 
HETATM    5  C   UNK N   1      23.049  12.721  10.301  0.00  0.00     0.185 A 
HETATM    6  C   UNK N   1      20.807  13.350   9.800  0.00  0.00     0.127 A 
HETATM    7  C   UNK N   1      22.210  12.119  11.406  0.00  0.00     0.038 A 
HETATM    8  C   UNK N   1      20.777  12.524  11.081  0.00  0.00     0.022 A 
HETATM    9  O   UNK N   1      23.747  14.157   7.936  0.00  0.00    -0.273 OA
BRANCH   5  10
HETATM   10  C   UNK N   1      24.554  12.520  10.295  0.00  0.00     0.163 C 
HETATM   11  O   UNK N   1      24.993  11.394  10.134  0.00  0.00    -0.648 OA
BRANCH  10  12
HETATM   12  O   UNK N   1      25.425  13.529  10.459  0.00  0.00    -0.775 OA
HETATM   13  H   UNK N   1      25.256  14.363  10.065  0.00  0.00     0.167 HD
ENDBRANCH  10  12
ENDBRANCH   5  10
ENDBRANCH   2   3
ENDBRANCH   1   2
BRANCH   1  14
HETATM   14  C   UNK N   1      20.745  16.953   6.463  0.00  0.00     0.010 C 
BRANCH  14  15
HETATM   15  C   UNK N   1      22.004  17.337   5.727  0.00  0.00     0.103 C 
BRANCH  15  16
HETATM   16  C   UNK N   1      21.932  18.397   4.648  0.00  0.00     0.220 C 
HETATM   17  O   UNK N   1      20.814  18.670   4.266  0.00  0.00    -0.273 OA
HETATM   18  N   UNK N   1      23.029  19.038   4.106  0.00  0.00    -0.338 N 
HETATM   19  C   UNK N   1      24.377  18.755   4.520  0.00  0.00     0.127 A 
HETATM   20  C   UNK N   1      23.003  20.057   3.073  0.00  0.00     0.185 A 
HETATM   21  C   UNK N   1      25.296  19.655   3.700  0.00  0.00     0.022 A 
HETATM   22  C   UNK N   1      24.420  20.489   2.772  0.00  0.00     0.038 A 
BRANCH  20  23
HETATM   23  C   UNK N   1      21.841  20.687   2.326  0.00  0.00     0.163 C 
HETATM   24  O   UNK N   1      21.798  20.574   1.112  0.00  0.00    -0.648 OA
BRANCH  23  25
HETATM   25  O   UNK N   1      20.858  21.362   2.941  0.00  0.00    -0.775 OA
HETATM   26  H   UNK N   1      20.958  21.625   3.835  0.00  0.00     0.167 HD
ENDBRANCH  23  25
ENDBRANCH  20  23
ENDBRANCH  15  16
ENDBRANCH  14  15
ENDBRANCH   1  14
TORSDOF 9
ENDMDL
MODEL 8
REMARK VINA RESULT:      -6.2      7.631      9.263
REMARK  9 active torsions:
REMARK  status: ('A' for Active; 'I' for Inactive)
REMARK    1  A    between atoms: C_3  and  C_22 
REMARK       I    between atoms: N_4  and  C_6 
REMARK    2  A    between atoms: C_6  and  C_8 
REMARK    3  A    between atoms: C_8  and  C_9 
REMARK    4  A    between atoms: C_9  and  C_10 
REMARK    5  A    between atoms: C_10  and  C_11 
REMARK    6  A    between atoms: C_11  and  C_12 
REMARK       I    between atoms: C_12  and  N_14 
REMARK    7  A    between atoms: C_18  and  C_19 
REMARK    8  A    between atoms: C_19  and  O_21 
REMARK    9  A    between atoms: C_22  and  O_24 
ROOT
HETATM    1  C   UNK N   1      33.313  15.630   3.384  0.00  0.00     0.010 C 
ENDROOT
BRANCH   1   2
HETATM    2  C   UNK N   1      32.839  16.923   3.998  0.00  0.00     0.103 C 
BRANCH   2   3
HETATM    3  C   UNK N   1      33.270  17.271   5.407  0.00  0.00     0.220 C 
HETATM    4  N   UNK N   1      32.410  17.403   6.480  0.00  0.00    -0.338 N 
HETATM    5  C   UNK N   1      32.782  17.735   7.842  0.00  0.00     0.185 A 
HETATM    6  C   UNK N   1      30.988  17.220   6.362  0.00  0.00     0.127 A 
HETATM    7  C   UNK N   1      31.535  17.777   8.697  0.00  0.00     0.038 A 
HETATM    8  C   UNK N   1      30.391  17.447   7.746  0.00  0.00     0.022 A 
HETATM    9  O   UNK N   1      34.463  17.436   5.556  0.00  0.00    -0.273 OA
BRANCH   5  10
HETATM   10  C   UNK N   1      34.139  18.018   8.462  0.00  0.00     0.163 C 
HETATM   11  O   UNK N   1      34.674  19.089   8.233  0.00  0.00    -0.648 OA
BRANCH  10  12
HETATM   12  O   UNK N   1      34.777  17.141   9.254  0.00  0.00    -0.775 OA
HETATM   13  H   UNK N   1      35.475  17.431   9.807  0.00  0.00     0.167 HD
ENDBRANCH  10  12
ENDBRANCH   5  10
ENDBRANCH   2   3
ENDBRANCH   1   2
BRANCH   1  14
HETATM   14  C   UNK N   1      32.214  14.620   3.495  0.00  0.00     0.010 C 
BRANCH  14  15
HETATM   15  C   UNK N   1      32.718  13.450   4.302  0.00  0.00     0.103 C 
BRANCH  15  16
HETATM   16  C   UNK N   1      32.848  13.594   5.804  0.00  0.00     0.220 C 
HETATM   17  O   UNK N   1      31.803  13.572   6.418  0.00  0.00    -0.273 OA
HETATM   18  N   UNK N   1      34.047  13.743   6.475  0.00  0.00    -0.338 N 
HETATM   19  C   UNK N   1      35.316  13.776   5.799  0.00  0.00     0.127 A 
HETATM   20  C   UNK N   1      34.215  13.883   7.910  0.00  0.00     0.185 A 
HETATM   21  C   UNK N   1      36.389  13.951   6.870  0.00  0.00     0.022 A 
HETATM   22  C   UNK N   1      35.688  14.020   8.222  0.00  0.00     0.038 A 
BRANCH  20  23
HETATM   23  C   UNK N   1      33.194  13.908   9.033  0.00  0.00     0.163 C 
HETATM   24  O   UNK N   1      33.199  14.852   9.806  0.00  0.00    -0.648 OA
BRANCH  23  25
HETATM   25  O   UNK N   1      32.285  12.937   9.215  0.00  0.00    -0.775 OA
HETATM   26  H   UNK N   1      31.441  13.145   9.565  0.00  0.00     0.167 HD
ENDBRANCH  23  25
ENDBRANCH  20  23
ENDBRANCH  15  16
ENDBRANCH  14  15
ENDBRANCH   1  14
TORSDOF 9
ENDMDL
MODEL 9
REMARK VINA RESULT:      -6.2      1.833      2.371
REMARK  9 active torsions:
REMARK  status: ('A' for Active; 'I' for Inactive)
REMARK    1  A    between atoms: C_3  and  C_22 
REMARK       I    between atoms: N_4  and  C_6 
REMARK    2  A    between atoms: C_6  and  C_8 
REMARK    3  A    between atoms: C_8  and  C_9 
REMARK    4  A    between atoms: C_9  and  C_10 
REMARK    5  A    between atoms: C_10  and  C_11 
REMARK    6  A    between atoms: C_11  and  C_12 
REMARK       I    between atoms: C_12  and  N_14 
REMARK    7  A    between atoms: C_18  and  C_19 
REMARK    8  A    between atoms: C_19  and  O_21 
REMARK    9  A    between atoms: C_22  and  O_24 
ROOT
HETATM    1  C   UNK N   1      25.900  20.692   4.900  0.00  0.00     0.010 C 
ENDROOT
BRANCH   1   2
HETATM    2  C   UNK N   1      25.271  19.620   4.045  0.00  0.00     0.103 C 
BRANCH   2   3
HETATM    3  C   UNK N   1      23.984  19.926   3.308  0.00  0.00     0.220 C 
HETATM    4  N   UNK N   1      22.783  19.280   3.528  0.00  0.00    -0.338 N 
HETATM    5  C   UNK N   1      21.530  19.543   2.844  0.00  0.00     0.185 A 
HETATM    6  C   UNK N   1      22.632  18.229   4.499  0.00  0.00     0.127 A 
HETATM    7  C   UNK N   1      20.468  18.613   3.387  0.00  0.00     0.038 A 
HETATM    8  C   UNK N   1      21.177  17.775   4.445  0.00  0.00     0.022 A 
HETATM    9  O   UNK N   1      24.062  20.807   2.478  0.00  0.00    -0.273 OA
BRANCH   5  10
HETATM   10  C   UNK N   1      21.181  20.540   1.754  0.00  0.00     0.163 C 
HETATM   11  O   UNK N   1      20.967  20.125   0.628  0.00  0.00    -0.648 OA
BRANCH  10  12
HETATM   12  O   UNK N   1      21.098  21.863   1.975  0.00  0.00    -0.775 OA
HETATM   13  H   UNK N   1      20.710  22.182   2.766  0.00  0.00     0.167 HD
ENDBRANCH  10  12
ENDBRANCH   5  10
ENDBRANCH   2   3
ENDBRANCH   1   2
BRANCH   1  14
HETATM   14  C   UNK N   1      27.334  20.333   5.134  0.00  0.00     0.010 C 
BRANCH  14  15
HETATM   15  C   UNK N   1      27.392  19.257   6.189  0.00  0.00     0.103 C 
BRANCH  15  16
HETATM   16  C   UNK N   1      28.421  18.153   6.059  0.00  0.00     0.220 C 
HETATM   17  O   UNK N   1      28.416  17.565   4.998  0.00  0.00    -0.273 OA
HETATM   18  N   UNK N   1      29.322  17.802   7.046  0.00  0.00    -0.338 N 
HETATM   19  C   UNK N   1      29.373  18.465   8.322  0.00  0.00     0.127 A 
HETATM   20  C   UNK N   1      30.321  16.754   6.961  0.00  0.00     0.185 A 
HETATM   21  C   UNK N   1      30.485  17.800   9.127  0.00  0.00     0.022 A 
HETATM   22  C   UNK N   1      31.094  16.705   8.259  0.00  0.00     0.038 A 
BRANCH  20  23
HETATM   23  C   UNK N   1      30.658  15.789   5.838  0.00  0.00     0.163 C 
HETATM   24  O   UNK N   1      30.595  14.591   6.059  0.00  0.00    -0.648 OA
BRANCH  23  25
HETATM   25  O   UNK N   1      31.023  16.195   4.612  0.00  0.00    -0.775 OA
HETATM   26  H   UNK N   1      31.401  17.044   4.493  0.00  0.00     0.167 HD
ENDBRANCH  23  25
ENDBRANCH  20  23
ENDBRANCH  15  16
ENDBRANCH  14  15
ENDBRANCH   1  14
TORSDOF 9
ENDMDL
