MODEL 1
REMARK VINA RESULT:      -8.6      0.000      0.000
REMARK  5 active torsions:
REMARK  status: ('A' for Active; 'I' for Inactive)
REMARK    1  A    between atoms: C_2  and  N_3 
REMARK    2  A    between atoms: N_3  and  C_4 
REMARK    3  A    between atoms: C_4  and  C_5 
REMARK    4  A    between atoms: C_10  and  C_13 
REMARK    5  A    between atoms: C_19  and  C_23 
ROOT
HETATM    1  C   UNK N   1      27.462  16.786   6.448  0.00  0.00    -0.023 A 
HETATM    2  C   UNK N   1      27.512  17.085   5.049  0.00  0.00     0.014 A 
HETATM    3  C   UNK N   1      26.604  16.461   4.141  0.00  0.00     0.033 A 
HETATM    4  C   UNK N   1      25.682  15.551   4.672  0.00  0.00     0.060 A 
HETATM    5  C   UNK N   1      25.660  15.284   5.991  0.00  0.00     0.025 A 
HETATM    6  C   UNK N   1      26.513  15.870   6.886  0.00  0.00     0.028 A 
HETATM    7  C   UNK N   1      24.657  14.391   6.195  0.00  0.00     0.104 A 
HETATM    8  N   UNK N   1      24.075  14.125   5.001  0.00  0.00    -0.296 N 
ATOM      9  HN  UNK N   1      23.290  13.493   4.844  1.00  0.00     0.187 HD
HETATM   10  N   UNK N   1      24.712  14.837   4.062  0.00  0.00    -0.299 N 
HETATM   11  H   UNK N   1      24.509  14.839   3.098  0.00  0.00     0.187 HD
ENDROOT
BRANCH   1  12
HETATM   12  C   UNK N   1      28.408  17.379   7.453  0.00  0.00    -0.004 A 
HETATM   13  C   UNK N   1      27.886  18.102   8.533  0.00  0.00     0.100 A 
HETATM   14  N   UNK N   1      28.709  18.687   9.444  0.00  0.00    -0.374 N 
HETATM   15  C   UNK N   1      30.062  18.610   9.345  0.00  0.00     0.096 A 
ATOM     16  HN  UNK N   1      28.298  19.198  10.225  1.00  0.00     0.164 HD
HETATM   17  C   UNK N   1      30.652  17.904   8.299  0.00  0.00    -0.019 A 
HETATM   18  C   UNK N   1      29.835  17.274   7.348  0.00  0.00    -0.040 A 
HETATM   19  C   UNK N   1      30.522  16.517   6.251  0.00  0.00     0.050 C 
BRANCH  17  20
HETATM   20  C   UNK N   1      32.148  17.869   8.161  0.00  0.00     0.154 C 
BRANCH  20  21
HETATM   21  N   UNK N   1      32.742  16.896   9.062  0.00  0.00    -0.418 N 
HETATM   22  H   UNK N   1      32.250  16.176   9.592  0.00  0.00     0.153 HD
BRANCH  21  23
HETATM   23  C   UNK N   1      34.175  17.151   9.063  0.00  0.00     0.109 C 
HETATM   24  C   UNK N   1      34.499  18.312   8.142  0.00  0.00     0.026 C 
ENDBRANCH  21  23
ENDBRANCH  20  21
ENDBRANCH  17  20
ENDBRANCH   1  12
BRANCH   7  25
HETATM   25  C   UNK N   1      24.301  13.883   7.535  0.00  0.00     0.136 A 
HETATM   26  N   UNK N   1      25.158  13.350   8.447  0.00  0.00    -0.339 N 
HETATM   27  C   UNK N   1      24.341  12.959   9.448  0.00  0.00     0.066 A 
HETATM   28  H   UNK N   1      26.138  13.270   8.391  0.00  0.00     0.167 HD
HETATM   29  C   UNK N   1      24.667  12.313  10.640  0.00  0.00     0.074 A 
HETATM   30  C   UNK N   1      23.053  13.261   9.137  0.00  0.00     0.100 A 
HETATM   31  C   UNK N   1      23.605  11.985  11.516  0.00  0.00     0.121 A 
HETATM   32  C   UNK N   1      22.269  12.313  11.183  0.00  0.00     0.087 A 
HETATM   33  F   UNK N   1      23.861  11.342  12.679  0.00  0.00    -0.206 F 
HETATM   34  C   UNK N   1      21.986  12.964   9.974  0.00  0.00     0.148 A 
HETATM   35  F   UNK N   1      20.712  13.280   9.632  0.00  0.00    -0.203 F 
HETATM   36  N   UNK N   1      23.009  13.839   7.942  0.00  0.00    -0.336 N 
ATOM     37  HN  UNK N   1      22.186  14.178   7.443  1.00  0.00     0.168 HD
ENDBRANCH   7  25
TORSDOF 5
ENDMDL
MODEL 2
REMARK VINA RESULT:      -8.4      3.370      4.380
REMARK  5 active torsions:
REMARK  status: ('A' for Active; 'I' for Inactive)
REMARK    1  A    between atoms: C_2  and  N_3 
REMARK    2  A    between atoms: N_3  and  C_4 
REMARK    3  A    between atoms: C_4  and  C_5 
REMARK    4  A    between atoms: C_10  and  C_13 
REMARK    5  A    between atoms: C_19  and  C_23 
ROOT
HETATM    1  C   UNK N   1      26.862  19.028   4.793  0.00  0.00    -0.023 A 
HETATM    2  C   UNK N   1      27.068  20.035   3.797  0.00  0.00     0.014 A 
HETATM    3  C   UNK N   1      25.967  20.556   3.053  0.00  0.00     0.033 A 
HETATM    4  C   UNK N   1      24.696  20.039   3.333  0.00  0.00     0.060 A 
HETATM    5  C   UNK N   1      24.531  19.089   4.271  0.00  0.00     0.025 A 
HETATM    6  C   UNK N   1      25.565  18.574   5.003  0.00  0.00     0.028 A 
HETATM    7  C   UNK N   1      23.201  18.813   4.322  0.00  0.00     0.104 A 
HETATM    8  N   UNK N   1      22.569  19.599   3.418  0.00  0.00    -0.296 N 
ATOM      9  HN  UNK N   1      21.566  19.615   3.236  1.00  0.00     0.187 HD
HETATM   10  N   UNK N   1      23.493  20.351   2.804  0.00  0.00    -0.299 N 
HETATM   11  H   UNK N   1      23.325  21.012   2.095  0.00  0.00     0.187 HD
ENDROOT
BRANCH   1  12
HETATM   12  C   UNK N   1      27.978  18.412   5.587  0.00  0.00    -0.004 A 
HETATM   13  C   UNK N   1      28.141  18.780   6.929  0.00  0.00     0.100 A 
HETATM   14  N   UNK N   1      29.161  18.274   7.672  0.00  0.00    -0.374 N 
HETATM   15  C   UNK N   1      30.070  17.408   7.152  0.00  0.00     0.096 A 
ATOM     16  HN  UNK N   1      29.247  18.553   8.649  1.00  0.00     0.164 HD
HETATM   17  C   UNK N   1      29.969  16.995   5.825  0.00  0.00    -0.019 A 
HETATM   18  C   UNK N   1      28.920  17.483   5.031  0.00  0.00    -0.040 A 
HETATM   19  C   UNK N   1      28.851  16.995   3.615  0.00  0.00     0.050 C 
BRANCH  17  20
HETATM   20  C   UNK N   1      31.007  16.082   5.238  0.00  0.00     0.154 C 
BRANCH  20  21
HETATM   21  N   UNK N   1      32.344  16.630   5.390  0.00  0.00    -0.418 N 
HETATM   22  H   UNK N   1      33.012  16.410   6.129  0.00  0.00     0.153 HD
BRANCH  21  23
HETATM   23  C   UNK N   1      32.543  17.554   4.284  0.00  0.00     0.109 C 
HETATM   24  C   UNK N   1      32.580  16.796   2.970  0.00  0.00     0.026 C 
ENDBRANCH  21  23
ENDBRANCH  20  21
ENDBRANCH  17  20
ENDBRANCH   1  12
BRANCH   7  25
HETATM   25  C   UNK N   1      22.625  17.836   5.267  0.00  0.00     0.136 A 
HETATM   26  N   UNK N   1      22.858  16.496   5.282  0.00  0.00    -0.339 N 
HETATM   27  C   UNK N   1      22.037  16.050   6.257  0.00  0.00     0.066 A 
HETATM   28  H   UNK N   1      23.477  15.978   4.718  0.00  0.00     0.167 HD
HETATM   29  C   UNK N   1      21.829  14.742   6.692  0.00  0.00     0.074 A 
HETATM   30  C   UNK N   1      21.356  17.092   6.799  0.00  0.00     0.100 A 
HETATM   31  C   UNK N   1      20.881  14.540   7.723  0.00  0.00     0.121 A 
HETATM   32  C   UNK N   1      20.184  15.637   8.285  0.00  0.00     0.087 A 
HETATM   33  F   UNK N   1      20.626  13.290   8.173  0.00  0.00    -0.206 F 
HETATM   34  C   UNK N   1      20.425  16.936   7.818  0.00  0.00     0.148 A 
HETATM   35  F   UNK N   1      19.762  18.000   8.337  0.00  0.00    -0.203 F 
HETATM   36  N   UNK N   1      21.710  18.219   6.192  0.00  0.00    -0.336 N 
ATOM     37  HN  UNK N   1      21.371  19.163   6.380  1.00  0.00     0.168 HD
ENDBRANCH   7  25
TORSDOF 5
ENDMDL
MODEL 3
REMARK VINA RESULT:      -8.3      3.035      4.087
REMARK  5 active torsions:
REMARK  status: ('A' for Active; 'I' for Inactive)
REMARK    1  A    between atoms: C_2  and  N_3 
REMARK    2  A    between atoms: N_3  and  C_4 
REMARK    3  A    between atoms: C_4  and  C_5 
REMARK    4  A    between atoms: C_10  and  C_13 
REMARK    5  A    between atoms: C_19  and  C_23 
ROOT
HETATM    1  C   UNK N   1      27.238  18.593   4.708  0.00  0.00    -0.023 A 
HETATM    2  C   UNK N   1      27.427  19.784   3.937  0.00  0.00     0.014 A 
HETATM    3  C   UNK N   1      26.310  20.459   3.358  0.00  0.00     0.033 A 
HETATM    4  C   UNK N   1      25.041  19.906   3.570  0.00  0.00     0.060 A 
HETATM    5  C   UNK N   1      24.892  18.782   4.294  0.00  0.00     0.025 A 
HETATM    6  C   UNK N   1      25.942  18.116   4.865  0.00  0.00     0.028 A 
HETATM    7  C   UNK N   1      23.561  18.513   4.334  0.00  0.00     0.104 A 
HETATM    8  N   UNK N   1      22.911  19.475   3.637  0.00  0.00    -0.296 N 
ATOM      9  HN  UNK N   1      21.903  19.538   3.498  1.00  0.00     0.187 HD
HETATM   10  N   UNK N   1      23.826  20.331   3.161  0.00  0.00    -0.299 N 
HETATM   11  H   UNK N   1      23.645  21.128   2.612  0.00  0.00     0.187 HD
ENDROOT
BRANCH   1  12
HETATM   12  C   UNK N   1      28.370  17.815   5.315  0.00  0.00    -0.004 A 
HETATM   13  C   UNK N   1      28.990  16.814   4.556  0.00  0.00     0.100 A 
HETATM   14  N   UNK N   1      29.993  16.061   5.081  0.00  0.00    -0.374 N 
HETATM   15  C   UNK N   1      30.429  16.231   6.356  0.00  0.00     0.096 A 
ATOM     16  HN  UNK N   1      30.432  15.347   4.499  1.00  0.00     0.164 HD
HETATM   17  C   UNK N   1      29.861  17.210   7.169  0.00  0.00    -0.019 A 
HETATM   18  C   UNK N   1      28.835  18.018   6.657  0.00  0.00    -0.040 A 
HETATM   19  C   UNK N   1      28.268  19.064   7.570  0.00  0.00     0.050 C 
BRANCH  17  20
HETATM   20  C   UNK N   1      30.307  17.358   8.596  0.00  0.00     0.154 C 
BRANCH  20  21
HETATM   21  N   UNK N   1      31.711  17.020   8.752  0.00  0.00    -0.418 N 
HETATM   22  H   UNK N   1      32.094  16.110   9.010  0.00  0.00     0.153 HD
BRANCH  21  23
HETATM   23  C   UNK N   1      32.464  18.234   8.472  0.00  0.00     0.109 C 
HETATM   24  C   UNK N   1      33.727  17.899   7.699  0.00  0.00     0.026 C 
ENDBRANCH  21  23
ENDBRANCH  20  21
ENDBRANCH  17  20
ENDBRANCH   1  12
BRANCH   7  25
HETATM   25  C   UNK N   1      23.000  17.365   5.074  0.00  0.00     0.136 A 
HETATM   26  N   UNK N   1      23.044  16.060   4.690  0.00  0.00    -0.339 N 
HETATM   27  C   UNK N   1      22.323  15.432   5.644  0.00  0.00     0.066 A 
HETATM   28  H   UNK N   1      23.494  15.669   3.907  0.00  0.00     0.167 HD
HETATM   29  C   UNK N   1      22.002  14.080   5.747  0.00  0.00     0.074 A 
HETATM   30  C   UNK N   1      21.882  16.335   6.558  0.00  0.00     0.100 A 
HETATM   31  C   UNK N   1      21.199  13.681   6.842  0.00  0.00     0.121 A 
HETATM   32  C   UNK N   1      20.753  14.631   7.791  0.00  0.00     0.087 A 
HETATM   33  F   UNK N   1      20.841  12.384   6.982  0.00  0.00    -0.206 F 
HETATM   34  C   UNK N   1      21.101  15.982   7.651  0.00  0.00     0.148 A 
HETATM   35  F   UNK N   1      20.678  16.910   8.545  0.00  0.00    -0.203 F 
HETATM   36  N   UNK N   1      22.296  17.551   6.218  0.00  0.00    -0.336 N 
ATOM     37  HN  UNK N   1      22.124  18.429   6.708  1.00  0.00     0.168 HD
ENDBRANCH   7  25
TORSDOF 5
ENDMDL
MODEL 4
REMARK VINA RESULT:      -8.2      5.837     10.434
REMARK  5 active torsions:
REMARK  status: ('A' for Active; 'I' for Inactive)
REMARK    1  A    between atoms: C_2  and  N_3 
REMARK    2  A    between atoms: N_3  and  C_4 
REMARK    3  A    between atoms: C_4  and  C_5 
REMARK    4  A    between atoms: C_10  and  C_13 
REMARK    5  A    between atoms: C_19  and  C_23 
ROOT
HETATM    1  C   UNK N   1      35.162  14.372   7.978  0.00  0.00    -0.023 A 
HETATM    2  C   UNK N   1      36.141  14.303   6.936  0.00  0.00     0.014 A 
HETATM    3  C   UNK N   1      37.466  13.850   7.214  0.00  0.00     0.033 A 
HETATM    4  C   UNK N   1      37.762  13.490   8.535  0.00  0.00     0.060 A 
HETATM    5  C   UNK N   1      36.824  13.569   9.496  0.00  0.00     0.025 A 
HETATM    6  C   UNK N   1      35.545  13.994   9.260  0.00  0.00     0.028 A 
HETATM    7  C   UNK N   1      37.403  13.140  10.647  0.00  0.00     0.104 A 
HETATM    8  N   UNK N   1      38.686  12.799  10.377  0.00  0.00    -0.296 N 
ATOM      9  HN  UNK N   1      39.364  12.438  11.047  1.00  0.00     0.187 HD
HETATM   10  N   UNK N   1      38.907  13.021   9.074  0.00  0.00    -0.299 N 
HETATM   11  H   UNK N   1      39.754  12.870   8.595  0.00  0.00     0.187 HD
ENDROOT
BRANCH   1  12
HETATM   12  C   UNK N   1      33.761  14.870   7.762  0.00  0.00    -0.004 A 
HETATM   13  C   UNK N   1      32.867  14.085   7.023  0.00  0.00     0.100 A 
HETATM   14  N   UNK N   1      31.602  14.517   6.773  0.00  0.00    -0.374 N 
HETATM   15  C   UNK N   1      31.153  15.722   7.211  0.00  0.00     0.096 A 
ATOM     16  HN  UNK N   1      30.971  13.918   6.240  1.00  0.00     0.164 HD
HETATM   17  C   UNK N   1      31.986  16.554   7.956  0.00  0.00    -0.019 A 
HETATM   18  C   UNK N   1      33.293  16.136   8.248  0.00  0.00    -0.040 A 
HETATM   19  C   UNK N   1      34.142  17.065   9.064  0.00  0.00     0.050 C 
BRANCH  17  20
HETATM   20  C   UNK N   1      31.505  17.910   8.391  0.00  0.00     0.154 C 
BRANCH  20  21
HETATM   21  N   UNK N   1      30.628  17.817   9.546  0.00  0.00    -0.418 N 
HETATM   22  H   UNK N   1      30.798  17.284  10.399  0.00  0.00     0.153 HD
BRANCH  21  23
HETATM   23  C   UNK N   1      29.460  18.633   9.247  0.00  0.00     0.109 C 
HETATM   24  C   UNK N   1      28.212  17.770   9.220  0.00  0.00     0.026 C 
ENDBRANCH  21  23
ENDBRANCH  20  21
ENDBRANCH  17  20
ENDBRANCH   1  12
BRANCH   7  25
HETATM   25  C   UNK N   1      36.669  13.050  11.925  0.00  0.00     0.136 A 
HETATM   26  N   UNK N   1      36.925  13.765  13.053  0.00  0.00    -0.339 N 
HETATM   27  C   UNK N   1      36.053  13.255  13.949  0.00  0.00     0.066 A 
HETATM   28  H   UNK N   1      37.587  14.482  13.184  0.00  0.00     0.167 HD
HETATM   29  C   UNK N   1      35.887  13.585  15.293  0.00  0.00     0.074 A 
HETATM   30  C   UNK N   1      35.306  12.282  13.363  0.00  0.00     0.100 A 
HETATM   31  C   UNK N   1      34.909  12.871  16.025  0.00  0.00     0.121 A 
HETATM   32  C   UNK N   1      34.133  11.866  15.400  0.00  0.00     0.087 A 
HETATM   33  F   UNK N   1      34.718  13.138  17.338  0.00  0.00    -0.206 F 
HETATM   34  C   UNK N   1      34.331  11.567  14.045  0.00  0.00     0.148 A 
HETATM   35  F   UNK N   1      33.603  10.602  13.428  0.00  0.00    -0.203 F 
HETATM   36  N   UNK N   1      35.678  12.140  12.095  0.00  0.00    -0.336 N 
ATOM     37  HN  UNK N   1      35.301  11.491  11.403  1.00  0.00     0.168 HD
ENDBRANCH   7  25
TORSDOF 5
ENDMDL
MODEL 5
REMARK VINA RESULT:      -8.1      4.149      8.262
REMARK  5 active torsions:
REMARK  status: ('A' for Active; 'I' for Inactive)
REMARK    1  A    between atoms: C_2  and  N_3 
REMARK    2  A    between atoms: N_3  and  C_4 
REMARK    3  A    between atoms: C_4  and  C_5 
REMARK    4  A    between atoms: C_10  and  C_13 
REMARK    5  A    between atoms: C_19  and  C_23 
ROOT
HETATM    1  C   UNK N   1      22.713  18.213   4.990  0.00  0.00    -0.023 A 
HETATM    2  C   UNK N   1      21.922  18.917   4.027  0.00  0.00     0.014 A 
HETATM    3  C   UNK N   1      22.533  19.827   3.113  0.00  0.00     0.033 A 
HETATM    4  C   UNK N   1      23.920  20.002   3.204  0.00  0.00     0.060 A 
HETATM    5  C   UNK N   1      24.639  19.331   4.122  0.00  0.00     0.025 A 
HETATM    6  C   UNK N   1      24.083  18.449   5.008  0.00  0.00     0.028 A 
HETATM    7  C   UNK N   1      25.936  19.696   3.949  0.00  0.00     0.104 A 
HETATM    8  N   UNK N   1      25.997  20.581   2.927  0.00  0.00    -0.296 N 
ATOM      9  HN  UNK N   1      26.841  21.024   2.566  1.00  0.00     0.187 HD
HETATM   10  N   UNK N   1      24.751  20.774   2.471  0.00  0.00    -0.299 N 
HETATM   11  H   UNK N   1      24.489  21.372   1.734  0.00  0.00     0.187 HD
ENDROOT
BRANCH   1  12
HETATM   12  C   UNK N   1      22.132  17.268   6.003  0.00  0.00    -0.004 A 
HETATM   13  C   UNK N   1      21.086  17.712   6.823  0.00  0.00     0.100 A 
HETATM   14  N   UNK N   1      20.557  16.902   7.779  0.00  0.00    -0.374 N 
HETATM   15  C   UNK N   1      21.020  15.642   7.991  0.00  0.00     0.096 A 
ATOM     16  HN  UNK N   1      19.789  17.250   8.353  1.00  0.00     0.164 HD
HETATM   17  C   UNK N   1      22.056  15.133   7.211  0.00  0.00    -0.019 A 
HETATM   18  C   UNK N   1      22.616  15.933   6.204  0.00  0.00    -0.040 A 
HETATM   19  C   UNK N   1      23.719  15.331   5.386  0.00  0.00     0.050 C 
BRANCH  17  20
HETATM   20  C   UNK N   1      22.603  13.760   7.486  0.00  0.00     0.154 C 
BRANCH  20  21
HETATM   21  N   UNK N   1      22.873  13.570   8.901  0.00  0.00    -0.418 N 
HETATM   22  H   UNK N   1      23.454  14.160   9.495  0.00  0.00     0.153 HD
BRANCH  21  23
HETATM   23  C   UNK N   1      22.154  12.370   9.303  0.00  0.00     0.109 C 
HETATM   24  C   UNK N   1      21.263  12.668  10.494  0.00  0.00     0.026 C 
ENDBRANCH  21  23
ENDBRANCH  20  21
ENDBRANCH  17  20
ENDBRANCH   1  12
BRANCH   7  25
HETATM   25  C   UNK N   1      27.037  19.135   4.758  0.00  0.00     0.136 A 
HETATM   26  N   UNK N   1      28.113  18.449   4.288  0.00  0.00    -0.339 N 
HETATM   27  C   UNK N   1      28.761  18.080   5.414  0.00  0.00     0.066 A 
HETATM   28  H   UNK N   1      28.360  18.267   3.353  0.00  0.00     0.167 HD
HETATM   29  C   UNK N   1      29.922  17.319   5.543  0.00  0.00     0.074 A 
HETATM   30  C   UNK N   1      28.093  18.541   6.503  0.00  0.00     0.100 A 
HETATM   31  C   UNK N   1      30.382  17.048   6.854  0.00  0.00     0.121 A 
HETATM   32  C   UNK N   1      29.680  17.542   7.980  0.00  0.00     0.087 A 
HETATM   33  F   UNK N   1      31.494  16.300   7.040  0.00  0.00    -0.206 F 
HETATM   34  C   UNK N   1      28.517  18.304   7.804  0.00  0.00     0.148 A 
HETATM   35  F   UNK N   1      27.826  18.780   8.869  0.00  0.00    -0.203 F 
HETATM   36  N   UNK N   1      27.010  19.205   6.112  0.00  0.00    -0.336 N 
ATOM     37  HN  UNK N   1      26.315  19.665   6.700  1.00  0.00     0.168 HD
ENDBRANCH   7  25
TORSDOF 5
ENDMDL
MODEL 6
REMARK VINA RESULT:      -8.0     14.557     16.573
REMARK  5 active torsions:
REMARK  status: ('A' for Active; 'I' for Inactive)
REMARK    1  A    between atoms: C_2  and  N_3 
REMARK    2  A    between atoms: N_3  and  C_4 
REMARK    3  A    between atoms: C_4  and  C_5 
REMARK    4  A    between atoms: C_10  and  C_13 
REMARK    5  A    between atoms: C_19  and  C_23 
ROOT
HETATM    1  C   UNK N   1      29.776  21.155  -6.241  0.00  0.00    -0.023 A 
HETATM    2  C   UNK N   1      29.582  20.123  -7.215  0.00  0.00     0.014 A 
HETATM    3  C   UNK N   1      28.491  20.188  -8.132  0.00  0.00     0.033 A 
HETATM    4  C   UNK N   1      27.627  21.286  -8.033  0.00  0.00     0.060 A 
HETATM    5  C   UNK N   1      27.829  22.239  -7.105  0.00  0.00     0.025 A 
HETATM    6  C   UNK N   1      28.868  22.207  -6.216  0.00  0.00     0.028 A 
HETATM    7  C   UNK N   1      26.850  23.166  -7.273  0.00  0.00     0.104 A 
HETATM    8  N   UNK N   1      26.063  22.772  -8.303  0.00  0.00    -0.296 N 
ATOM      9  HN  UNK N   1      25.250  23.272  -8.661  1.00  0.00     0.187 HD
HETATM   10  N   UNK N   1      26.541  21.609  -8.768  0.00  0.00    -0.299 N 
HETATM   11  H   UNK N   1      26.166  21.084  -9.511  0.00  0.00     0.187 HD
ENDROOT
BRANCH   1  12
HETATM   12  C   UNK N   1      30.881  21.132  -5.224  0.00  0.00    -0.004 A 
HETATM   13  C   UNK N   1      30.550  21.138  -3.862  0.00  0.00     0.100 A 
HETATM   14  N   UNK N   1      31.520  21.156  -2.909  0.00  0.00    -0.374 N 
HETATM   15  C   UNK N   1      32.841  21.183  -3.227  0.00  0.00     0.096 A 
ATOM     16  HN  UNK N   1      31.248  21.149  -1.926  1.00  0.00     0.164 HD
HETATM   17  C   UNK N   1      33.244  21.175  -4.561  0.00  0.00    -0.019 A 
HETATM   18  C   UNK N   1      32.272  21.140  -5.572  0.00  0.00    -0.040 A 
HETATM   19  C   UNK N   1      32.761  21.120  -6.990  0.00  0.00     0.050 C 
BRANCH  17  20
HETATM   20  C   UNK N   1      34.703  21.261  -4.909  0.00  0.00     0.154 C 
BRANCH  20  21
HETATM   21  N   UNK N   1      35.469  20.214  -4.253  0.00  0.00    -0.418 N 
HETATM   22  H   UNK N   1      35.963  20.287  -3.364  0.00  0.00     0.153 HD
BRANCH  21  23
HETATM   23  C   UNK N   1      35.394  19.044  -5.114  0.00  0.00     0.109 C 
HETATM   24  C   UNK N   1      34.681  17.912  -4.398  0.00  0.00     0.026 C 
ENDBRANCH  21  23
ENDBRANCH  20  21
ENDBRANCH  17  20
ENDBRANCH   1  12
BRANCH   7  25
HETATM   25  C   UNK N   1      26.762  24.390  -6.453  0.00  0.00     0.136 A 
HETATM   26  N   UNK N   1      27.672  24.812  -5.534  0.00  0.00    -0.339 N 
HETATM   27  C   UNK N   1      27.091  25.910  -5.004  0.00  0.00     0.066 A 
HETATM   28  H   UNK N   1      28.543  24.412  -5.311  0.00  0.00     0.167 HD
HETATM   29  C   UNK N   1      27.558  26.738  -3.984  0.00  0.00     0.074 A 
HETATM   30  C   UNK N   1      25.889  26.128  -5.598  0.00  0.00     0.100 A 
HETATM   31  C   UNK N   1      26.733  27.818  -3.592  0.00  0.00     0.121 A 
HETATM   32  C   UNK N   1      25.486  28.039  -4.225  0.00  0.00     0.087 A 
HETATM   33  F   UNK N   1      27.127  28.644  -2.595  0.00  0.00    -0.206 F 
HETATM   34  C   UNK N   1      25.056  27.182  -5.247  0.00  0.00     0.148 A 
HETATM   35  F   UNK N   1      23.861  27.371  -5.862  0.00  0.00    -0.203 F 
HETATM   36  N   UNK N   1      25.665  25.187  -6.508  0.00  0.00    -0.336 N 
ATOM     37  HN  UNK N   1      24.851  25.086  -7.115  1.00  0.00     0.168 HD
ENDBRANCH   7  25
TORSDOF 5
ENDMDL
MODEL 7
REMARK VINA RESULT:      -7.8      4.402      8.876
REMARK  5 active torsions:
REMARK  status: ('A' for Active; 'I' for Inactive)
REMARK    1  A    between atoms: C_2  and  N_3 
REMARK    2  A    between atoms: N_3  and  C_4 
REMARK    3  A    between atoms: C_4  and  C_5 
REMARK    4  A    between atoms: C_10  and  C_13 
REMARK    5  A    between atoms: C_19  and  C_23 
ROOT
HETATM    1  C   UNK N   1      21.321  16.594   4.836  0.00  0.00    -0.023 A 
HETATM    2  C   UNK N   1      20.155  17.186   4.255  0.00  0.00     0.014 A 
HETATM    3  C   UNK N   1      20.245  18.420   3.544  0.00  0.00     0.033 A 
HETATM    4  C   UNK N   1      21.508  19.020   3.448  0.00  0.00     0.060 A 
HETATM    5  C   UNK N   1      22.587  18.444   4.007  0.00  0.00     0.025 A 
HETATM    6  C   UNK N   1      22.533  17.260   4.690  0.00  0.00     0.028 A 
HETATM    7  C   UNK N   1      23.649  19.244   3.728  0.00  0.00     0.104 A 
HETATM    8  N   UNK N   1      23.208  20.298   3.000  0.00  0.00    -0.296 N 
ATOM      9  HN  UNK N   1      23.782  21.061   2.642  1.00  0.00     0.187 HD
HETATM   10  N   UNK N   1      21.886  20.161   2.832  0.00  0.00    -0.299 N 
HETATM   11  H   UNK N   1      21.295  20.781   2.347  0.00  0.00     0.187 HD
ENDROOT
BRANCH   1  12
HETATM   12  C   UNK N   1      21.292  15.317   5.626  0.00  0.00    -0.004 A 
HETATM   13  C   UNK N   1      21.493  14.101   4.960  0.00  0.00     0.100 A 
HETATM   14  N   UNK N   1      21.436  12.920   5.632  0.00  0.00    -0.374 N 
HETATM   15  C   UNK N   1      21.173  12.861   6.963  0.00  0.00     0.096 A 
ATOM     16  HN  UNK N   1      21.598  12.052   5.121  1.00  0.00     0.164 HD
HETATM   17  C   UNK N   1      20.966  14.031   7.692  0.00  0.00    -0.019 A 
HETATM   18  C   UNK N   1      21.032  15.270   7.036  0.00  0.00    -0.040 A 
HETATM   19  C   UNK N   1      20.815  16.497   7.870  0.00  0.00     0.050 C 
BRANCH  17  20
HETATM   20  C   UNK N   1      20.619  13.959   9.152  0.00  0.00     0.154 C 
BRANCH  20  21
HETATM   21  N   UNK N   1      21.793  13.688   9.964  0.00  0.00    -0.418 N 
HETATM   22  H   UNK N   1      22.650  14.238   9.999  0.00  0.00     0.153 HD
BRANCH  21  23
HETATM   23  C   UNK N   1      21.506  12.475  10.717  0.00  0.00     0.109 C 
HETATM   24  C   UNK N   1      22.714  12.072  11.541  0.00  0.00     0.026 C 
ENDBRANCH  21  23
ENDBRANCH  20  21
ENDBRANCH  17  20
ENDBRANCH   1  12
BRANCH   7  25
HETATM   25  C   UNK N   1      25.026  18.920   4.152  0.00  0.00     0.136 A 
HETATM   26  N   UNK N   1      25.901  18.112   3.495  0.00  0.00    -0.339 N 
HETATM   27  C   UNK N   1      26.965  18.067   4.325  0.00  0.00     0.066 A 
HETATM   28  H   UNK N   1      25.785  17.667   2.624  0.00  0.00     0.167 HD
HETATM   29  C   UNK N   1      28.155  17.357   4.182  0.00  0.00     0.074 A 
HETATM   30  C   UNK N   1      26.725  18.830   5.423  0.00  0.00     0.100 A 
HETATM   31  C   UNK N   1      29.108  17.461   5.223  0.00  0.00     0.121 A 
HETATM   32  C   UNK N   1      28.848  18.267   6.358  0.00  0.00     0.087 A 
HETATM   33  F   UNK N   1      30.274  16.780   5.145  0.00  0.00    -0.206 F 
HETATM   34  C   UNK N   1      27.638  18.966   6.461  0.00  0.00     0.148 A 
HETATM   35  F   UNK N   1      27.366  19.737   7.544  0.00  0.00    -0.203 F 
HETATM   36  N   UNK N   1      25.515  19.372   5.333  0.00  0.00    -0.336 N 
ATOM     37  HN  UNK N   1      25.057  19.992   6.002  1.00  0.00     0.168 HD
ENDBRANCH   7  25
TORSDOF 5
ENDMDL
MODEL 8
REMARK VINA RESULT:      -7.8     14.538     17.512
REMARK  5 active torsions:
REMARK  status: ('A' for Active; 'I' for Inactive)
REMARK    1  A    between atoms: C_2  and  N_3 
REMARK    2  A    between atoms: N_3  and  C_4 
REMARK    3  A    between atoms: C_4  and  C_5 
REMARK    4  A    between atoms: C_10  and  C_13 
REMARK    5  A    between atoms: C_19  and  C_23 
ROOT
HETATM    1  C   UNK N   1      26.871  26.317  -7.240  0.00  0.00    -0.023 A 
HETATM    2  C   UNK N   1      25.840  26.156  -8.220  0.00  0.00     0.014 A 
HETATM    3  C   UNK N   1      25.569  24.873  -8.783  0.00  0.00     0.033 A 
HETATM    4  C   UNK N   1      26.352  23.797  -8.346  0.00  0.00     0.060 A 
HETATM    5  C   UNK N   1      27.318  23.977  -7.427  0.00  0.00     0.025 A 
HETATM    6  C   UNK N   1      27.598  25.193  -6.866  0.00  0.00     0.028 A 
HETATM    7  C   UNK N   1      27.878  22.760  -7.200  0.00  0.00     0.104 A 
HETATM    8  N   UNK N   1      27.246  21.849  -7.979  0.00  0.00    -0.296 N 
ATOM      9  HN  UNK N   1      27.448  20.851  -8.018  1.00  0.00     0.187 HD
HETATM   10  N   UNK N   1      26.308  22.491  -8.689  0.00  0.00    -0.299 N 
HETATM   11  H   UNK N   1      25.697  22.084  -9.344  0.00  0.00     0.187 HD
ENDROOT
BRANCH   1  12
HETATM   12  C   UNK N   1      27.231  27.643  -6.633  0.00  0.00    -0.004 A 
HETATM   13  C   UNK N   1      28.232  28.416  -7.236  0.00  0.00     0.100 A 
HETATM   14  N   UNK N   1      28.615  29.605  -6.696  0.00  0.00    -0.374 N 
HETATM   15  C   UNK N   1      28.062  30.088  -5.553  0.00  0.00     0.096 A 
ATOM     16  HN  UNK N   1      29.338  30.150  -7.165  1.00  0.00     0.164 HD
HETATM   17  C   UNK N   1      27.059  29.374  -4.901  0.00  0.00    -0.019 A 
HETATM   18  C   UNK N   1      26.626  28.152  -5.436  0.00  0.00    -0.040 A 
HETATM   19  C   UNK N   1      25.535  27.432  -4.701  0.00  0.00     0.050 C 
BRANCH  17  20
HETATM   20  C   UNK N   1      26.489  29.884  -3.607  0.00  0.00     0.154 C 
BRANCH  20  21
HETATM   21  N   UNK N   1      27.179  29.316  -2.462  0.00  0.00    -0.418 N 
HETATM   22  H   UNK N   1      27.129  28.350  -2.138  0.00  0.00     0.153 HD
BRANCH  21  23
HETATM   23  C   UNK N   1      27.954  30.394  -1.867  0.00  0.00     0.109 C 
HETATM   24  C   UNK N   1      28.561  29.939  -0.553  0.00  0.00     0.026 C 
ENDBRANCH  21  23
ENDBRANCH  20  21
ENDBRANCH  17  20
ENDBRANCH   1  12
BRANCH   7  25
HETATM   25  C   UNK N   1      28.961  22.551  -6.219  0.00  0.00     0.136 A 
HETATM   26  N   UNK N   1      30.160  21.954  -6.457  0.00  0.00    -0.339 N 
HETATM   27  C   UNK N   1      30.739  21.925  -5.238  0.00  0.00     0.066 A 
HETATM   28  H   UNK N   1      30.518  21.624  -7.313  0.00  0.00     0.167 HD
HETATM   29  C   UNK N   1      31.974  21.392  -4.870  0.00  0.00     0.074 A 
HETATM   30  C   UNK N   1      29.913  22.493  -4.321  0.00  0.00     0.100 A 
HETATM   31  C   UNK N   1      32.337  21.467  -3.505  0.00  0.00     0.121 A 
HETATM   32  C   UNK N   1      31.470  22.069  -2.561  0.00  0.00     0.087 A 
HETATM   33  F   UNK N   1      33.516  20.950  -3.089  0.00  0.00    -0.206 F 
HETATM   34  C   UNK N   1      30.238  22.594  -2.974  0.00  0.00     0.148 A 
HETATM   35  F   UNK N   1      29.389  23.168  -2.085  0.00  0.00    -0.203 F 
HETATM   36  N   UNK N   1      28.794  22.891  -4.916  0.00  0.00    -0.336 N 
ATOM     37  HN  UNK N   1      27.990  23.351  -4.490  1.00  0.00     0.168 HD
ENDBRANCH   7  25
TORSDOF 5
ENDMDL
MODEL 9
REMARK VINA RESULT:      -7.4      6.619     10.829
REMARK  5 active torsions:
REMARK  status: ('A' for Active; 'I' for Inactive)
REMARK    1  A    between atoms: C_2  and  N_3 
REMARK    2  A    between atoms: N_3  and  C_4 
REMARK    3  A    between atoms: C_4  and  C_5 
REMARK    4  A    between atoms: C_10  and  C_13 
REMARK    5  A    between atoms: C_19  and  C_23 
ROOT
HETATM    1  C   UNK N   1      35.619  14.604   8.065  0.00  0.00    -0.023 A 
HETATM    2  C   UNK N   1      36.327  14.335   6.850  0.00  0.00     0.014 A 
HETATM    3  C   UNK N   1      37.422  13.420   6.836  0.00  0.00     0.033 A 
HETATM    4  C   UNK N   1      37.772  12.813   8.048  0.00  0.00     0.060 A 
HETATM    5  C   UNK N   1      37.094  13.087   9.177  0.00  0.00     0.025 A 
HETATM    6  C   UNK N   1      36.037  13.955   9.221  0.00  0.00     0.028 A 
HETATM    7  C   UNK N   1      37.652  12.339  10.164  0.00  0.00     0.104 A 
HETATM    8  N   UNK N   1      38.662  11.613   9.627  0.00  0.00    -0.296 N 
ATOM      9  HN  UNK N   1      39.259  10.955  10.128  1.00  0.00     0.187 HD
HETATM   10  N   UNK N   1      38.739  11.910   8.323  0.00  0.00    -0.299 N 
HETATM   11  H   UNK N   1      39.385  11.538   7.680  0.00  0.00     0.187 HD
ENDROOT
BRANCH   1  12
HETATM   12  C   UNK N   1      34.481  15.581   8.159  0.00  0.00    -0.004 A 
HETATM   13  C   UNK N   1      34.604  16.686   9.012  0.00  0.00     0.100 A 
HETATM   14  N   UNK N   1      33.582  17.572   9.154  0.00  0.00    -0.374 N 
HETATM   15  C   UNK N   1      32.404  17.425   8.495  0.00  0.00     0.096 A 
ATOM     16  HN  UNK N   1      33.706  18.373   9.774  1.00  0.00     0.164 HD
HETATM   17  C   UNK N   1      32.213  16.352   7.627  0.00  0.00    -0.019 A 
HETATM   18  C   UNK N   1      33.249  15.425   7.442  0.00  0.00    -0.040 A 
HETATM   19  C   UNK N   1      32.994  14.297   6.487  0.00  0.00     0.050 C 
BRANCH  17  20
HETATM   20  C   UNK N   1      30.888  16.162   6.943  0.00  0.00     0.154 C 
BRANCH  20  21
HETATM   21  N   UNK N   1      30.558  17.296   6.098  0.00  0.00    -0.418 N 
HETATM   22  H   UNK N   1      30.191  18.197   6.404  0.00  0.00     0.153 HD
BRANCH  21  23
HETATM   23  C   UNK N   1      30.852  16.895   4.730  0.00  0.00     0.109 C 
HETATM   24  C   UNK N   1      32.094  17.609   4.231  0.00  0.00     0.026 C 
ENDBRANCH  21  23
ENDBRANCH  20  21
ENDBRANCH  17  20
ENDBRANCH   1  12
BRANCH   7  25
HETATM   25  C   UNK N   1      37.148  12.345  11.551  0.00  0.00     0.136 A 
HETATM   26  N   UNK N   1      36.455  11.346  12.161  0.00  0.00    -0.339 N 
HETATM   27  C   UNK N   1      36.151  11.871  13.368  0.00  0.00     0.066 A 
HETATM   28  H   UNK N   1      36.229  10.455  11.807  0.00  0.00     0.167 HD
HETATM   29  C   UNK N   1      35.415  11.303  14.406  0.00  0.00     0.074 A 
HETATM   30  C   UNK N   1      36.657  13.128  13.464  0.00  0.00     0.100 A 
HETATM   31  C   UNK N   1      35.216  12.086  15.568  0.00  0.00     0.121 A 
HETATM   32  C   UNK N   1      35.756  13.391  15.659  0.00  0.00     0.087 A 
HETATM   33  F   UNK N   1      34.493  11.593  16.601  0.00  0.00    -0.206 F 
HETATM   34  C   UNK N   1      36.492  13.923  14.591  0.00  0.00     0.148 A 
HETATM   35  F   UNK N   1      37.012  15.174  14.654  0.00  0.00    -0.203 F 
HETATM   36  N   UNK N   1      37.285  13.442  12.336  0.00  0.00    -0.336 N 
ATOM     37  HN  UNK N   1      37.765  14.314  12.111  1.00  0.00     0.168 HD
ENDBRANCH   7  25
TORSDOF 5
ENDMDL
