MODEL 1
REMARK VINA RESULT:      -4.0      0.000      0.000
REMARK  5 active torsions:
REMARK  status: ('A' for Active; 'I' for Inactive)
REMARK    1  A    between atoms: C_1  and  C_2 
REMARK    2  A    between atoms: C_1  and  C_5 
REMARK    3  A    between atoms: C_5  and  S_6 
REMARK    4  A    between atoms: S_6  and  C_7 
REMARK    5  A    between atoms: C_7  and  N_10 
ROOT
HETATM    1  C   UNK N   1      33.535  17.674   7.503  0.00  0.00     0.124 C 
HETATM    2  C   UNK N   1      34.547  18.515   8.129  0.00  0.00     0.059 C 
HETATM    3  N   UNK N   1      35.326  19.216   8.620  0.00  0.00    -0.197 NA
ENDROOT
BRANCH   1   4
HETATM    4  C   UNK N   1      32.292  17.895   8.321  0.00  0.00     0.025 C 
BRANCH   4   5
HETATM    5  C   UNK N   1      31.409  16.682   8.356  0.00  0.00     0.083 C 
BRANCH   5   6
HETATM    6  S   UNK N   1      32.392  15.339   7.642  0.00  0.00    -0.095 SA
BRANCH   6   7
HETATM    7  C   UNK N   1      32.561  14.391   9.154  0.00  0.00     0.131 C 
HETATM    8  N   UNK N   1      32.432  13.119   9.106  0.00  0.00    -0.380 N 
HETATM    9  H   UNK N   1      32.520  12.585   9.928  0.00  0.00     0.158 HD
ATOM     10  HN  UNK N   1      32.239  12.659   8.217  1.00  0.00     0.158 HD
BRANCH   7  11
HETATM   11  N   UNK N   1      32.829  15.022  10.390  0.00  0.00    -0.380 N 
HETATM   12  H   UNK N   1      33.755  15.248  10.638  0.00  0.00     0.158 HD
HETATM   13  H   UNK N   1      32.089  15.237  11.003  0.00  0.00     0.158 HD
ENDBRANCH   7  11
ENDBRANCH   6   7
ENDBRANCH   5   6
ENDBRANCH   4   5
ENDBRANCH   1   4
TORSDOF 5
ENDMDL
MODEL 2
REMARK VINA RESULT:      -3.8      5.347      6.501
REMARK  5 active torsions:
REMARK  status: ('A' for Active; 'I' for Inactive)
REMARK    1  A    between atoms: C_1  and  C_2 
REMARK    2  A    between atoms: C_1  and  C_5 
REMARK    3  A    between atoms: C_5  and  S_6 
REMARK    4  A    between atoms: S_6  and  C_7 
REMARK    5  A    between atoms: C_7  and  N_10 
ROOT
HETATM    1  C   UNK N   1      36.523  13.706  14.539  0.00  0.00     0.124 C 
HETATM    2  C   UNK N   1      37.109  14.689  15.441  0.00  0.00     0.059 C 
HETATM    3  N   UNK N   1      37.602  15.479  16.127  0.00  0.00    -0.197 NA
ENDROOT
BRANCH   1   4
HETATM    4  C   UNK N   1      36.132  14.490  13.317  0.00  0.00     0.025 C 
BRANCH   4   5
HETATM    5  C   UNK N   1      36.008  13.624  12.098  0.00  0.00     0.083 C 
BRANCH   5   6
HETATM    6  S   UNK N   1      36.378  14.702  10.691  0.00  0.00    -0.095 SA
BRANCH   6   7
HETATM    7  C   UNK N   1      34.880  15.682  10.791  0.00  0.00     0.131 C 
HETATM    8  N   UNK N   1      34.973  16.957  10.818  0.00  0.00    -0.380 N 
HETATM    9  H   UNK N   1      34.160  17.508  10.875  0.00  0.00     0.158 HD
ATOM     10  HN  UNK N   1      35.890  17.403  10.781  1.00  0.00     0.158 HD
BRANCH   7  11
HETATM   11  N   UNK N   1      33.607  15.071  10.843  0.00  0.00    -0.380 N 
HETATM   12  H   UNK N   1      33.409  14.402  11.537  0.00  0.00     0.158 HD
HETATM   13  H   UNK N   1      32.917  15.315  10.184  0.00  0.00     0.158 HD
ENDBRANCH   7  11
ENDBRANCH   6   7
ENDBRANCH   5   6
ENDBRANCH   4   5
ENDBRANCH   1   4
TORSDOF 5
ENDMDL
MODEL 3
REMARK VINA RESULT:      -3.7     10.696     11.854
REMARK  5 active torsions:
REMARK  status: ('A' for Active; 'I' for Inactive)
REMARK    1  A    between atoms: C_1  and  C_2 
REMARK    2  A    between atoms: C_1  and  C_5 
REMARK    3  A    between atoms: C_5  and  S_6 
REMARK    4  A    between atoms: S_6  and  C_7 
REMARK    5  A    between atoms: C_7  and  N_10 
ROOT
HETATM    1  C   UNK N   1      21.001  14.391   8.732  0.00  0.00     0.124 C 
HETATM    2  C   UNK N   1      20.729  15.821   8.664  0.00  0.00     0.059 C 
HETATM    3  N   UNK N   1      20.472  16.948   8.607  0.00  0.00    -0.197 NA
ENDROOT
BRANCH   1   4
HETATM    4  C   UNK N   1      20.250  13.915   9.945  0.00  0.00     0.025 C 
BRANCH   4   5
HETATM    5  C   UNK N   1      20.916  12.744  10.606  0.00  0.00     0.083 C 
BRANCH   5   6
HETATM    6  S   UNK N   1      22.486  12.516   9.733  0.00  0.00    -0.095 SA
BRANCH   6   7
HETATM    7  C   UNK N   1      23.464  12.123  11.183  0.00  0.00     0.131 C 
HETATM    8  N   UNK N   1      22.883  11.627  12.208  0.00  0.00    -0.380 N 
HETATM    9  H   UNK N   1      23.406  11.407  13.012  0.00  0.00     0.158 HD
ATOM     10  HN  UNK N   1      21.877  11.458  12.193  1.00  0.00     0.158 HD
BRANCH   7  11
HETATM   11  N   UNK N   1      24.858  12.353  11.212  0.00  0.00    -0.380 N 
HETATM   12  H   UNK N   1      25.485  11.601  11.100  0.00  0.00     0.158 HD
HETATM   13  H   UNK N   1      25.204  13.266  11.343  0.00  0.00     0.158 HD
ENDBRANCH   7  11
ENDBRANCH   6   7
ENDBRANCH   5   6
ENDBRANCH   4   5
ENDBRANCH   1   4
TORSDOF 5
ENDMDL
MODEL 4
REMARK VINA RESULT:      -3.7     12.728     13.728
REMARK  5 active torsions:
REMARK  status: ('A' for Active; 'I' for Inactive)
REMARK    1  A    between atoms: C_1  and  C_2 
REMARK    2  A    between atoms: C_1  and  C_5 
REMARK    3  A    between atoms: C_5  and  S_6 
REMARK    4  A    between atoms: S_6  and  C_7 
REMARK    5  A    between atoms: C_7  and  N_10 
ROOT
HETATM    1  C   UNK N   1      22.356  17.469   5.319  0.00  0.00     0.124 C 
HETATM    2  C   UNK N   1      21.526  18.116   6.327  0.00  0.00     0.059 C 
HETATM    3  N   UNK N   1      20.897  18.657   7.133  0.00  0.00    -0.197 NA
ENDROOT
BRANCH   1   4
HETATM    4  C   UNK N   1      22.632  18.542   4.302  0.00  0.00     0.025 C 
BRANCH   4   5
HETATM    5  C   UNK N   1      21.486  18.739   3.354  0.00  0.00     0.083 C 
BRANCH   5   6
HETATM    6  S   UNK N   1      21.720  20.385   2.638  0.00  0.00    -0.095 SA
BRANCH   6   7
HETATM    7  C   UNK N   1      20.763  20.094   1.151  0.00  0.00     0.131 C 
HETATM    8  N   UNK N   1      20.499  21.079   0.380  0.00  0.00    -0.380 N 
HETATM    9  H   UNK N   1      19.973  20.935  -0.440  0.00  0.00     0.158 HD
ATOM     10  HN  UNK N   1      20.832  22.014   0.613  1.00  0.00     0.158 HD
BRANCH   7  11
HETATM   11  N   UNK N   1      20.298  18.801   0.820  0.00  0.00    -0.380 N 
HETATM   12  H   UNK N   1      20.432  18.053   1.446  0.00  0.00     0.158 HD
HETATM   13  H   UNK N   1      19.838  18.648  -0.038  0.00  0.00     0.158 HD
ENDBRANCH   7  11
ENDBRANCH   6   7
ENDBRANCH   5   6
ENDBRANCH   4   5
ENDBRANCH   1   4
TORSDOF 5
ENDMDL
MODEL 5
REMARK VINA RESULT:      -3.7      3.357      3.696
REMARK  5 active torsions:
REMARK  status: ('A' for Active; 'I' for Inactive)
REMARK    1  A    between atoms: C_1  and  C_2 
REMARK    2  A    between atoms: C_1  and  C_5 
REMARK    3  A    between atoms: C_5  and  S_6 
REMARK    4  A    between atoms: S_6  and  C_7 
REMARK    5  A    between atoms: C_7  and  N_10 
ROOT
HETATM    1  C   UNK N   1      33.408  17.144   8.285  0.00  0.00     0.124 C 
HETATM    2  C   UNK N   1      34.367  18.240   8.344  0.00  0.00     0.059 C 
HETATM    3  N   UNK N   1      35.136  19.104   8.351  0.00  0.00    -0.197 NA
ENDROOT
BRANCH   1   4
HETATM    4  C   UNK N   1      32.419  17.556   7.230  0.00  0.00     0.025 C 
BRANCH   4   5
HETATM    5  C   UNK N   1      31.039  17.035   7.505  0.00  0.00     0.083 C 
BRANCH   5   6
HETATM    6  S   UNK N   1      30.363  18.103   8.802  0.00  0.00    -0.095 SA
BRANCH   6   7
HETATM    7  C   UNK N   1      28.642  17.916   8.335  0.00  0.00     0.131 C 
HETATM    8  N   UNK N   1      28.349  17.197   7.319  0.00  0.00    -0.380 N 
HETATM    9  H   UNK N   1      27.409  17.087   7.049  0.00  0.00     0.158 HD
ATOM     10  HN  UNK N   1      29.089  16.738   6.788  1.00  0.00     0.158 HD
BRANCH   7  11
HETATM   11  N   UNK N   1      27.611  18.549   9.066  0.00  0.00    -0.380 N 
HETATM   12  H   UNK N   1      27.074  19.260   8.646  0.00  0.00     0.158 HD
HETATM   13  H   UNK N   1      27.430  18.280   9.995  0.00  0.00     0.158 HD
ENDBRANCH   7  11
ENDBRANCH   6   7
ENDBRANCH   5   6
ENDBRANCH   4   5
ENDBRANCH   1   4
TORSDOF 5
ENDMDL
MODEL 6
REMARK VINA RESULT:      -3.6     11.667     12.425
REMARK  5 active torsions:
REMARK  status: ('A' for Active; 'I' for Inactive)
REMARK    1  A    between atoms: C_1  and  C_2 
REMARK    2  A    between atoms: C_1  and  C_5 
REMARK    3  A    between atoms: C_5  and  S_6 
REMARK    4  A    between atoms: S_6  and  C_7 
REMARK    5  A    between atoms: C_7  and  N_10 
ROOT
HETATM    1  C   UNK N   1      23.147  11.777  11.033  0.00  0.00     0.124 C 
HETATM    2  C   UNK N   1      23.384  11.925  12.463  0.00  0.00     0.059 C 
HETATM    3  N   UNK N   1      23.571  12.083  13.594  0.00  0.00    -0.197 NA
ENDROOT
BRANCH   1   4
HETATM    4  C   UNK N   1      21.829  12.460  10.789  0.00  0.00     0.025 C 
BRANCH   4   5
HETATM    5  C   UNK N   1      21.951  13.612   9.837  0.00  0.00     0.083 C 
BRANCH   5   6
HETATM    6  S   UNK N   1      20.266  14.236   9.605  0.00  0.00    -0.095 SA
BRANCH   6   7
HETATM    7  C   UNK N   1      20.712  15.636   8.579  0.00  0.00     0.131 C 
HETATM    8  N   UNK N   1      21.590  15.479   7.662  0.00  0.00    -0.380 N 
HETATM    9  H   UNK N   1      21.846  16.239   7.092  0.00  0.00     0.158 HD
ATOM     10  HN  UNK N   1      22.024  14.567   7.522  1.00  0.00     0.158 HD
BRANCH   7  11
HETATM   11  N   UNK N   1      20.114  16.903   8.767  0.00  0.00    -0.380 N 
HETATM   12  H   UNK N   1      20.604  17.721   8.521  0.00  0.00     0.158 HD
HETATM   13  H   UNK N   1      19.208  16.968   9.145  0.00  0.00     0.158 HD
ENDBRANCH   7  11
ENDBRANCH   6   7
ENDBRANCH   5   6
ENDBRANCH   4   5
ENDBRANCH   1   4
TORSDOF 5
ENDMDL
MODEL 7
REMARK VINA RESULT:      -3.6      2.517      2.988
REMARK  5 active torsions:
REMARK  status: ('A' for Active; 'I' for Inactive)
REMARK    1  A    between atoms: C_1  and  C_2 
REMARK    2  A    between atoms: C_1  and  C_5 
REMARK    3  A    between atoms: C_5  and  S_6 
REMARK    4  A    between atoms: S_6  and  C_7 
REMARK    5  A    between atoms: C_7  and  N_10 
ROOT
HETATM    1  C   UNK N   1      32.633  16.835   7.385  0.00  0.00     0.124 C 
HETATM    2  C   UNK N   1      33.768  17.741   7.500  0.00  0.00     0.059 C 
HETATM    3  N   UNK N   1      34.671  18.453   7.631  0.00  0.00    -0.197 NA
ENDROOT
BRANCH   1   4
HETATM    4  C   UNK N   1      33.151  15.508   7.868  0.00  0.00     0.025 C 
BRANCH   4   5
HETATM    5  C   UNK N   1      33.251  15.443   9.363  0.00  0.00     0.083 C 
BRANCH   5   6
HETATM    6  S   UNK N   1      34.778  14.534   9.713  0.00  0.00    -0.095 SA
BRANCH   6   7
HETATM    7  C   UNK N   1      35.609  15.868  10.576  0.00  0.00     0.131 C 
HETATM    8  N   UNK N   1      36.724  15.631  11.157  0.00  0.00    -0.380 N 
HETATM    9  H   UNK N   1      37.192  16.352  11.636  0.00  0.00     0.158 HD
ATOM     10  HN  UNK N   1      37.129  14.695  11.123  1.00  0.00     0.158 HD
BRANCH   7  11
HETATM   11  N   UNK N   1      35.055  17.167  10.626  0.00  0.00    -0.380 N 
HETATM   12  H   UNK N   1      34.570  17.465  11.430  0.00  0.00     0.158 HD
HETATM   13  H   UNK N   1      35.155  17.774   9.858  0.00  0.00     0.158 HD
ENDBRANCH   7  11
ENDBRANCH   6   7
ENDBRANCH   5   6
ENDBRANCH   4   5
ENDBRANCH   1   4
TORSDOF 5
ENDMDL
MODEL 8
REMARK VINA RESULT:      -3.6      2.533      2.961
REMARK  5 active torsions:
REMARK  status: ('A' for Active; 'I' for Inactive)
REMARK    1  A    between atoms: C_1  and  C_2 
REMARK    2  A    between atoms: C_1  and  C_5 
REMARK    3  A    between atoms: C_5  and  S_6 
REMARK    4  A    between atoms: S_6  and  C_7 
REMARK    5  A    between atoms: C_7  and  N_10 
ROOT
HETATM    1  C   UNK N   1      34.109  16.997   7.458  0.00  0.00     0.124 C 
HETATM    2  C   UNK N   1      34.680  18.186   8.076  0.00  0.00     0.059 C 
HETATM    3  N   UNK N   1      35.159  19.135   8.534  0.00  0.00    -0.197 NA
ENDROOT
BRANCH   1   4
HETATM    4  C   UNK N   1      33.556  17.475   6.143  0.00  0.00     0.025 C 
BRANCH   4   5
HETATM    5  C   UNK N   1      32.100  17.153   5.985  0.00  0.00     0.083 C 
BRANCH   5   6
HETATM    6  S   UNK N   1      31.680  16.081   7.383  0.00  0.00    -0.095 SA
BRANCH   6   7
HETATM    7  C   UNK N   1      30.540  17.219   8.170  0.00  0.00     0.131 C 
HETATM    8  N   UNK N   1      30.954  17.937   9.144  0.00  0.00    -0.380 N 
HETATM    9  H   UNK N   1      30.339  18.564   9.588  0.00  0.00     0.158 HD
ATOM     10  HN  UNK N   1      31.920  17.859   9.461  1.00  0.00     0.158 HD
BRANCH   7  11
HETATM   11  N   UNK N   1      29.200  17.332   7.736  0.00  0.00    -0.380 N 
HETATM   12  H   UNK N   1      28.467  17.337   8.394  0.00  0.00     0.158 HD
HETATM   13  H   UNK N   1      28.998  17.406   6.775  0.00  0.00     0.158 HD
ENDBRANCH   7  11
ENDBRANCH   6   7
ENDBRANCH   5   6
ENDBRANCH   4   5
ENDBRANCH   1   4
TORSDOF 5
ENDMDL
MODEL 9
REMARK VINA RESULT:      -3.6      3.940      4.550
REMARK  5 active torsions:
REMARK  status: ('A' for Active; 'I' for Inactive)
REMARK    1  A    between atoms: C_1  and  C_2 
REMARK    2  A    between atoms: C_1  and  C_5 
REMARK    3  A    between atoms: C_5  and  S_6 
REMARK    4  A    between atoms: S_6  and  C_7 
REMARK    5  A    between atoms: C_7  and  N_10 
ROOT
HETATM    1  C   UNK N   1      33.537  17.125   8.116  0.00  0.00     0.124 C 
HETATM    2  C   UNK N   1      34.494  18.214   8.260  0.00  0.00     0.059 C 
HETATM    3  N   UNK N   1      35.267  19.072   8.336  0.00  0.00    -0.197 NA
ENDROOT
BRANCH   1   4
HETATM    4  C   UNK N   1      32.690  17.511   6.934  0.00  0.00     0.025 C 
BRANCH   4   5
HETATM    5  C   UNK N   1      33.342  17.168   5.627  0.00  0.00     0.083 C 
BRANCH   5   6
HETATM    6  S   UNK N   1      32.293  15.896   4.877  0.00  0.00    -0.095 SA
BRANCH   6   7
HETATM    7  C   UNK N   1      32.592  16.371   3.174  0.00  0.00     0.131 C 
HETATM    8  N   UNK N   1      31.861  17.278   2.645  0.00  0.00    -0.380 N 
HETATM    9  H   UNK N   1      32.011  17.548   1.711  0.00  0.00     0.158 HD
ATOM     10  HN  UNK N   1      31.122  17.721   3.191  1.00  0.00     0.158 HD
BRANCH   7  11
HETATM   11  N   UNK N   1      33.614  15.762   2.412  0.00  0.00    -0.380 N 
HETATM   12  H   UNK N   1      33.609  15.839   1.430  0.00  0.00     0.158 HD
HETATM   13  H   UNK N   1      34.332  15.261   2.862  0.00  0.00     0.158 HD
ENDBRANCH   7  11
ENDBRANCH   6   7
ENDBRANCH   5   6
ENDBRANCH   4   5
ENDBRANCH   1   4
TORSDOF 5
ENDMDL
