REMARK  2 active torsions:
REMARK  status: ('A' for Active; 'I' for Inactive)
REMARK    1  A    between atoms: C_12  and  C_10 
REMARK       I    between atoms: N_16  and  C_14 
REMARK       I    between atoms: N_25  and  C_15 
REMARK    2  A    between atoms: S_30  and  N_26 
ROOT
HETATM    1  C   UNK N   1      -1.888  -0.572   0.174  0.00  0.00     0.066 A 
HETATM    2  C   UNK N   1      -2.765   0.707   0.036  0.00  0.00     0.148 A 
HETATM    3  C   UNK N   1       4.313   1.516  -0.345  0.00  0.00     0.167 C 
HETATM    4  C   UNK N   1       2.976   3.602  -0.449  0.00  0.00     0.167 C 
HETATM    5  C   UNK N   1       5.172   2.247   0.691  0.00  0.00     0.188 C 
HETATM    6  C   UNK N   1       3.944   4.150   0.601  0.00  0.00     0.188 C 
HETATM    7  C   UNK N   1      -0.495  -0.036   0.067  0.00  0.00     0.017 A 
HETATM    8  C   UNK N   1       0.735  -0.714   0.027  0.00  0.00     0.072 A 
HETATM    9  C   UNK N   1      -0.519   1.308  -0.055  0.00  0.00     0.141 A 
HETATM   10  C   UNK N   1       1.821   1.403  -0.225  0.00  0.00     0.682 A 
HETATM   11  N   UNK N   1       1.871   0.036  -0.117  0.00  0.00    -0.190 N 
ATOM     12  HN  UNK N   1       2.777  -0.432  -0.144  1.00  0.00     0.184 HD
HETATM   13  N   UNK N   1       0.612   2.038  -0.209  0.00  0.00    -0.175 N 
ATOM     14  HN  UNK N   1       0.562   3.052  -0.310  1.00  0.00     0.186 HD
HETATM   15  N   UNK N   1       3.017   2.157  -0.377  0.00  0.00    -0.213 N 
HETATM   16  N   UNK N   1      -1.824   1.813  -0.051  0.00  0.00    -0.260 N 
HETATM   17  O   UNK N   1       5.230   3.619   0.371  0.00  0.00    -0.388 OA
ENDROOT
BRANCH   8  18
HETATM   18  C   UNK N   1       0.834  -2.197   0.084  0.00  0.00     0.024 A 
HETATM   19  C   UNK N   1       2.065  -2.832  -0.112  0.00  0.00     0.121 A 
HETATM   20  N   UNK N   1       2.143  -4.189  -0.109  0.00  0.00    -0.201 N 
HETATM   21  C   UNK N   1       1.035  -4.951   0.089  0.00  0.00     0.675 A 
HETATM   22  H   UNK N   1       3.014  -4.625  -0.252  0.00  0.00     0.183 HD
HETATM   23  N   UNK N   1       1.127  -6.225   0.080  0.00  0.00    -0.234 N 
HETATM   24  N   UNK N   1      -0.169  -4.359   0.293  0.00  0.00    -0.201 N 
HETATM   25  H   UNK N   1       0.311  -6.777   0.073  0.00  0.00     0.174 HD
ATOM     26  HN  UNK N   1       2.044  -6.671   0.080  1.00  0.00     0.174 HD
HETATM   27  C   UNK N   1      -0.288  -3.007   0.290  0.00  0.00     0.121 A 
ATOM     28  HN  UNK N   1      -0.995  -4.938   0.450  1.00  0.00     0.183 HD
ENDBRANCH   8  18
BRANCH  16  29
HETATM   29  S   UNK N   1      -2.259   3.447  -0.632  0.00  0.00     0.230 S 
HETATM   30  C   UNK N   1      -2.804   4.926   0.262  0.00  0.00     0.186 C 
HETATM   31  O   UNK N   1      -1.301   3.849   0.501  0.00  0.00    -0.206 OA
HETATM   32  O   UNK N   1      -3.532   3.185   0.190  0.00  0.00    -0.206 OA
ENDBRANCH  16  29
TORSDOF 2
