MODEL 1
REMARK VINA RESULT:      -8.8      0.000      0.000
REMARK  3 active torsions:
REMARK  status: ('A' for Active; 'I' for Inactive)
REMARK    1  A    between atoms: C_4  and  C_8 
REMARK    2  A    between atoms: C_16  and  C_20 
REMARK    3  A    between atoms: C_20  and  C_21 
ROOT
HETATM    1  C   UNK N   1      32.780  17.128   6.041  0.00  0.00     0.061 A 
HETATM    2  C   UNK N   1      33.463  16.895   4.823  0.00  0.00     0.036 A 
HETATM    3  C   UNK N   1      32.745  16.809   3.623  0.00  0.00     0.054 A 
HETATM    4  C   UNK N   1      31.371  16.960   3.707  0.00  0.00     0.143 A 
HETATM    5  N   UNK N   1      30.480  16.939   2.700  0.00  0.00    -0.282 N 
ATOM      6  HN  UNK N   1      30.680  16.769   1.714  1.00  0.00     0.188 HD
HETATM    7  N   UNK N   1      29.288  17.183   3.241  0.00  0.00    -0.281 N 
ATOM      8  HN  UNK N   1      28.400  17.239   2.742  1.00  0.00     0.188 HD
HETATM    9  C   UNK N   1      29.469  17.346   4.576  0.00  0.00     0.198 A 
HETATM   10  N   UNK N   1      30.770  17.197   4.874  0.00  0.00    -0.218 N 
HETATM   11  N   UNK N   1      31.422  17.290   6.033  0.00  0.00    -0.290 N 
ATOM     12  HN  UNK N   1      30.916  17.478   6.898  1.00  0.00     0.187 HD
ENDROOT
BRANCH   9  13
HETATM   13  C   UNK N   1      28.367  17.786   5.511  0.00  0.00     0.331 C 
HETATM   14  F   UNK N   1      27.776  16.642   6.015  0.00  0.00    -0.192 F 
HETATM   15  F   UNK N   1      28.970  18.441   6.575  0.00  0.00    -0.192 F 
BRANCH  13  16
HETATM   16  C   UNK N   1      27.258  18.665   4.966  0.00  0.00     0.022 A 
HETATM   17  C   UNK N   1      27.544  19.818   4.214  0.00  0.00     0.016 A 
HETATM   18  C   UNK N   1      26.517  20.503   3.545  0.00  0.00     0.031 A 
HETATM   19  C   UNK N   1      25.202  20.029   3.605  0.00  0.00     0.042 A 
HETATM   20  C   UNK N   1      24.907  18.887   4.376  0.00  0.00    -0.009 A 
HETATM   21  N   UNK N   1      24.210  20.651   2.910  0.00  0.00    -0.365 N 
HETATM   22  C   UNK N   1      25.928  18.216   5.048  0.00  0.00     0.027 A 
HETATM   23  C   UNK N   1      23.596  18.411   4.423  0.00  0.00     0.015 A 
HETATM   24  C   UNK N   1      22.598  19.066   3.700  0.00  0.00     0.018 A 
HETATM   25  C   UNK N   1      22.927  20.192   2.939  0.00  0.00     0.088 A 
ATOM     26  HN  UNK N   1      24.432  21.478   2.356  1.00  0.00     0.165 HD
ENDBRANCH  13  16
ENDBRANCH   9  13
BRANCH   1  27
HETATM   27  C   UNK N   1      33.519  17.160   7.310  0.00  0.00     0.026 A 
HETATM   28  C   UNK N   1      33.731  16.105   8.176  0.00  0.00     0.124 A 
HETATM   29  N   UNK N   1      34.422  16.590   9.219  0.00  0.00    -0.307 N 
HETATM   30  C   UNK N   1      34.864  15.824  10.369  0.00  0.00     0.177 C 
HETATM   31  N   UNK N   1      34.650  17.883   9.060  0.00  0.00    -0.310 N 
HETATM   32  C   UNK N   1      34.106  18.269   7.890  0.00  0.00     0.122 A 
ATOM     33  HN  UNK N   1      35.151  18.485   9.713  1.00  0.00     0.186 HD
ENDBRANCH   1  27
TORSDOF 3
ENDMDL
MODEL 2
REMARK VINA RESULT:      -8.8      2.430      3.699
REMARK  3 active torsions:
REMARK  status: ('A' for Active; 'I' for Inactive)
REMARK    1  A    between atoms: C_4  and  C_8 
REMARK    2  A    between atoms: C_16  and  C_20 
REMARK    3  A    between atoms: C_20  and  C_21 
ROOT
HETATM    1  C   UNK N   1      30.192  17.308   7.019  0.00  0.00     0.061 A 
HETATM    2  C   UNK N   1      30.153  17.745   8.364  0.00  0.00     0.036 A 
HETATM    3  C   UNK N   1      29.153  18.633   8.784  0.00  0.00     0.054 A 
HETATM    4  C   UNK N   1      28.240  19.040   7.826  0.00  0.00     0.143 A 
HETATM    5  N   UNK N   1      27.189  19.861   7.991  0.00  0.00    -0.282 N 
ATOM      6  HN  UNK N   1      26.924  20.346   8.848  1.00  0.00     0.188 HD
HETATM    7  N   UNK N   1      26.563  19.920   6.817  0.00  0.00    -0.281 N 
ATOM      8  HN  UNK N   1      25.721  20.458   6.609  1.00  0.00     0.188 HD
HETATM    9  C   UNK N   1      27.246  19.133   5.948  0.00  0.00     0.198 A 
HETATM   10  N   UNK N   1      28.302  18.588   6.572  0.00  0.00    -0.218 N 
HETATM   11  N   UNK N   1      29.236  17.740   6.141  0.00  0.00    -0.290 N 
ATOM     12  HN  UNK N   1      29.238  17.419   5.172  1.00  0.00     0.187 HD
ENDROOT
BRANCH   9  13
HETATM   13  C   UNK N   1      26.757  18.825   4.552  0.00  0.00     0.331 C 
HETATM   14  F   UNK N   1      27.699  19.320   3.669  0.00  0.00    -0.192 F 
HETATM   15  F   UNK N   1      26.749  17.445   4.417  0.00  0.00    -0.192 F 
BRANCH  13  16
HETATM   16  C   UNK N   1      25.406  19.362   4.120  0.00  0.00     0.022 A 
HETATM   17  C   UNK N   1      25.303  20.469   3.259  0.00  0.00     0.016 A 
HETATM   18  C   UNK N   1      24.064  20.824   2.704  0.00  0.00     0.031 A 
HETATM   19  C   UNK N   1      22.923  20.066   2.989  0.00  0.00     0.042 A 
HETATM   20  C   UNK N   1      23.017  18.970   3.870  0.00  0.00    -0.009 A 
HETATM   21  N   UNK N   1      21.729  20.366   2.408  0.00  0.00    -0.365 N 
HETATM   22  C   UNK N   1      24.248  18.626   4.427  0.00  0.00     0.027 A 
HETATM   23  C   UNK N   1      21.879  18.209   4.141  0.00  0.00     0.015 A 
HETATM   24  C   UNK N   1      20.667  18.537   3.531  0.00  0.00     0.018 A 
HETATM   25  C   UNK N   1      20.611  19.627   2.657  0.00  0.00     0.088 A 
ATOM     26  HN  UNK N   1      21.669  21.163   1.774  1.00  0.00     0.165 HD
ENDBRANCH  13  16
ENDBRANCH   9  13
BRANCH   1  27
HETATM   27  C   UNK N   1      31.272  16.425   6.558  0.00  0.00     0.026 A 
HETATM   28  C   UNK N   1      32.545  16.799   6.175  0.00  0.00     0.124 A 
HETATM   29  N   UNK N   1      33.183  15.679   5.799  0.00  0.00    -0.307 N 
HETATM   30  C   UNK N   1      34.551  15.606   5.323  0.00  0.00     0.177 C 
HETATM   31  N   UNK N   1      32.384  14.632   5.917  0.00  0.00    -0.310 N 
HETATM   32  C   UNK N   1      31.194  15.056   6.385  0.00  0.00     0.122 A 
ATOM     33  HN  UNK N   1      32.628  13.667   5.693  1.00  0.00     0.186 HD
ENDBRANCH   1  27
TORSDOF 3
ENDMDL
MODEL 3
REMARK VINA RESULT:      -8.6      2.950      8.169
REMARK  3 active torsions:
REMARK  status: ('A' for Active; 'I' for Inactive)
REMARK    1  A    between atoms: C_4  and  C_8 
REMARK    2  A    between atoms: C_16  and  C_20 
REMARK    3  A    between atoms: C_20  and  C_21 
ROOT
HETATM    1  C   UNK N   1      29.031  16.773   6.047  0.00  0.00     0.061 A 
HETATM    2  C   UNK N   1      28.276  15.595   5.832  0.00  0.00     0.036 A 
HETATM    3  C   UNK N   1      28.871  14.484   5.219  0.00  0.00     0.054 A 
HETATM    4  C   UNK N   1      30.199  14.613   4.851  0.00  0.00     0.143 A 
HETATM    5  N   UNK N   1      30.984  13.686   4.274  0.00  0.00    -0.282 N 
ATOM      6  HN  UNK N   1      30.706  12.749   3.982  1.00  0.00     0.188 HD
HETATM    7  N   UNK N   1      32.194  14.230   4.157  0.00  0.00    -0.281 N 
ATOM      8  HN  UNK N   1      33.020  13.783   3.761  1.00  0.00     0.188 HD
HETATM    9  C   UNK N   1      32.128  15.488   4.663  0.00  0.00     0.198 A 
HETATM   10  N   UNK N   1      30.879  15.735   5.089  0.00  0.00    -0.218 N 
HETATM   11  N   UNK N   1      30.347  16.808   5.674  0.00  0.00    -0.290 N 
ATOM     12  HN  UNK N   1      30.911  17.642   5.839  1.00  0.00     0.187 HD
ENDROOT
BRANCH   9  13
HETATM   13  C   UNK N   1      33.341  16.369   4.844  0.00  0.00     0.331 C 
HETATM   14  F   UNK N   1      34.370  15.805   4.113  0.00  0.00    -0.192 F 
HETATM   15  F   UNK N   1      33.047  17.594   4.264  0.00  0.00    -0.192 F 
BRANCH  13  16
HETATM   16  C   UNK N   1      33.864  16.611   6.247  0.00  0.00     0.022 A 
HETATM   17  C   UNK N   1      33.691  17.850   6.887  0.00  0.00     0.016 A 
HETATM   18  C   UNK N   1      33.992  17.994   8.250  0.00  0.00     0.031 A 
HETATM   19  C   UNK N   1      34.449  16.896   8.988  0.00  0.00     0.042 A 
HETATM   20  C   UNK N   1      34.646  15.658   8.346  0.00  0.00    -0.009 A 
HETATM   21  N   UNK N   1      34.685  17.011  10.325  0.00  0.00    -0.365 N 
HETATM   22  C   UNK N   1      34.356  15.522   6.989  0.00  0.00     0.027 A 
HETATM   23  C   UNK N   1      35.089  14.563   9.089  0.00  0.00     0.015 A 
HETATM   24  C   UNK N   1      35.323  14.707  10.458  0.00  0.00     0.018 A 
HETATM   25  C   UNK N   1      35.110  15.948  11.065  0.00  0.00     0.088 A 
ATOM     26  HN  UNK N   1      34.542  17.912  10.781  1.00  0.00     0.165 HD
ENDBRANCH  13  16
ENDBRANCH   9  13
BRANCH   1  27
HETATM   27  C   UNK N   1      28.399  17.961   6.633  0.00  0.00     0.026 A 
HETATM   28  C   UNK N   1      27.906  19.060   5.957  0.00  0.00     0.124 A 
HETATM   29  N   UNK N   1      27.450  19.916   6.885  0.00  0.00    -0.307 N 
HETATM   30  C   UNK N   1      26.843  21.206   6.617  0.00  0.00     0.177 C 
HETATM   31  N   UNK N   1      27.634  19.423   8.097  0.00  0.00    -0.310 N 
HETATM   32  C   UNK N   1      28.218  18.214   7.980  0.00  0.00     0.122 A 
ATOM     33  HN  UNK N   1      27.377  19.880   8.972  1.00  0.00     0.186 HD
ENDBRANCH   1  27
TORSDOF 3
ENDMDL
MODEL 4
REMARK VINA RESULT:      -8.6      4.203      8.156
REMARK  3 active torsions:
REMARK  status: ('A' for Active; 'I' for Inactive)
REMARK    1  A    between atoms: C_4  and  C_8 
REMARK    2  A    between atoms: C_16  and  C_20 
REMARK    3  A    between atoms: C_20  and  C_21 
ROOT
HETATM    1  C   UNK N   1      22.604  17.200   5.247  0.00  0.00     0.061 A 
HETATM    2  C   UNK N   1      21.284  17.522   4.850  0.00  0.00     0.036 A 
HETATM    3  C   UNK N   1      21.052  18.625   4.018  0.00  0.00     0.054 A 
HETATM    4  C   UNK N   1      22.163  19.354   3.627  0.00  0.00     0.143 A 
HETATM    5  N   UNK N   1      22.196  20.430   2.821  0.00  0.00    -0.282 N 
ATOM      6  HN  UNK N   1      21.395  20.902   2.402  1.00  0.00     0.188 HD
HETATM    7  N   UNK N   1      23.478  20.761   2.679  0.00  0.00    -0.281 N 
ATOM      8  HN  UNK N   1      23.843  21.535   2.124  1.00  0.00     0.188 HD
HETATM    9  C   UNK N   1      24.212  19.880   3.407  0.00  0.00     0.198 A 
HETATM   10  N   UNK N   1      23.392  19.005   4.010  0.00  0.00    -0.218 N 
HETATM   11  N   UNK N   1      23.649  17.959   4.795  0.00  0.00    -0.290 N 
ATOM     12  HN  UNK N   1      24.608  17.730   5.056  1.00  0.00     0.187 HD
ENDROOT
BRANCH   9  13
HETATM   13  C   UNK N   1      25.721  19.840   3.375  0.00  0.00     0.331 C 
HETATM   14  F   UNK N   1      26.086  18.697   2.686  0.00  0.00    -0.192 F 
HETATM   15  F   UNK N   1      26.145  20.927   2.625  0.00  0.00    -0.192 F 
BRANCH  13  16
HETATM   16  C   UNK N   1      26.477  19.834   4.690  0.00  0.00     0.022 A 
HETATM   17  C   UNK N   1      26.285  20.847   5.646  0.00  0.00     0.016 A 
HETATM   18  C   UNK N   1      26.829  20.720   6.934  0.00  0.00     0.031 A 
HETATM   19  C   UNK N   1      27.552  19.573   7.282  0.00  0.00     0.042 A 
HETATM   20  C   UNK N   1      27.766  18.566   6.320  0.00  0.00    -0.009 A 
HETATM   21  N   UNK N   1      28.031  19.415   8.547  0.00  0.00    -0.365 N 
HETATM   22  C   UNK N   1      27.233  18.701   5.039  0.00  0.00     0.027 A 
HETATM   23  C   UNK N   1      28.476  17.419   6.676  0.00  0.00     0.015 A 
HETATM   24  C   UNK N   1      28.956  17.280   7.979  0.00  0.00     0.018 A 
HETATM   25  C   UNK N   1      28.718  18.296   8.911  0.00  0.00     0.088 A 
ATOM     26  HN  UNK N   1      27.873  20.150   9.236  1.00  0.00     0.165 HD
ENDBRANCH  13  16
ENDBRANCH   9  13
BRANCH   1  27
HETATM   27  C   UNK N   1      22.849  16.082   6.167  0.00  0.00     0.026 A 
HETATM   28  C   UNK N   1      24.034  15.395   6.345  0.00  0.00     0.124 A 
HETATM   29  N   UNK N   1      23.795  14.436   7.254  0.00  0.00    -0.307 N 
HETATM   30  C   UNK N   1      24.767  13.477   7.744  0.00  0.00     0.177 C 
HETATM   31  N   UNK N   1      22.534  14.479   7.649  0.00  0.00    -0.310 N 
HETATM   32  C   UNK N   1      21.919  15.485   6.998  0.00  0.00     0.122 A 
ATOM     33  HN  UNK N   1      22.102  13.855   8.331  1.00  0.00     0.186 HD
ENDBRANCH   1  27
TORSDOF 3
ENDMDL
MODEL 5
REMARK VINA RESULT:      -8.5      2.633      8.771
REMARK  3 active torsions:
REMARK  status: ('A' for Active; 'I' for Inactive)
REMARK    1  A    between atoms: C_4  and  C_8 
REMARK    2  A    between atoms: C_16  and  C_20 
REMARK    3  A    between atoms: C_20  and  C_21 
ROOT
HETATM    1  C   UNK N   1      24.147  18.252   4.848  0.00  0.00     0.061 A 
HETATM    2  C   UNK N   1      24.090  19.217   3.815  0.00  0.00     0.036 A 
HETATM    3  C   UNK N   1      25.267  19.821   3.354  0.00  0.00     0.054 A 
HETATM    4  C   UNK N   1      26.448  19.424   3.958  0.00  0.00     0.143 A 
HETATM    5  N   UNK N   1      27.695  19.839   3.675  0.00  0.00    -0.282 N 
ATOM      6  HN  UNK N   1      27.960  20.547   2.990  1.00  0.00     0.188 HD
HETATM    7  N   UNK N   1      28.516  19.149   4.463  0.00  0.00    -0.281 N 
ATOM      8  HN  UNK N   1      29.533  19.226   4.491  1.00  0.00     0.188 HD
HETATM    9  C   UNK N   1      27.754  18.320   5.222  0.00  0.00     0.198 A 
HETATM   10  N   UNK N   1      26.459  18.496   4.917  0.00  0.00    -0.218 N 
HETATM   11  N   UNK N   1      25.359  17.899   5.376  0.00  0.00    -0.290 N 
ATOM     12  HN  UNK N   1      25.421  17.191   6.107  1.00  0.00     0.187 HD
ENDROOT
BRANCH   9  13
HETATM   13  C   UNK N   1      28.338  17.268   6.136  0.00  0.00     0.331 C 
HETATM   14  F   UNK N   1      27.386  16.989   7.100  0.00  0.00    -0.192 F 
HETATM   15  F   UNK N   1      28.509  16.118   5.380  0.00  0.00    -0.192 F 
BRANCH  13  16
HETATM   16  C   UNK N   1      29.636  17.571   6.859  0.00  0.00     0.022 A 
HETATM   17  C   UNK N   1      29.641  18.096   8.162  0.00  0.00     0.016 A 
HETATM   18  C   UNK N   1      30.837  18.176   8.892  0.00  0.00     0.031 A 
HETATM   19  C   UNK N   1      32.033  17.713   8.333  0.00  0.00     0.042 A 
HETATM   20  C   UNK N   1      32.038  17.207   7.018  0.00  0.00    -0.009 A 
HETATM   21  N   UNK N   1      33.187  17.730   9.056  0.00  0.00    -0.365 N 
HETATM   22  C   UNK N   1      30.849  17.139   6.293  0.00  0.00     0.027 A 
HETATM   23  C   UNK N   1      33.231  16.735   6.470  0.00  0.00     0.015 A 
HETATM   24  C   UNK N   1      34.400  16.762   7.232  0.00  0.00     0.018 A 
HETATM   25  C   UNK N   1      34.358  17.264   8.537  0.00  0.00     0.088 A 
ATOM     26  HN  UNK N   1      33.175  18.101  10.007  1.00  0.00     0.165 HD
ENDBRANCH  13  16
ENDBRANCH   9  13
BRANCH   1  27
HETATM   27  C   UNK N   1      22.912  17.660   5.379  0.00  0.00     0.026 A 
HETATM   28  C   UNK N   1      22.767  16.413   5.953  0.00  0.00     0.124 A 
HETATM   29  N   UNK N   1      21.468  16.274   6.262  0.00  0.00    -0.307 N 
HETATM   30  C   UNK N   1      20.869  15.112   6.889  0.00  0.00     0.177 C 
HETATM   31  N   UNK N   1      20.793  17.356   5.911  0.00  0.00    -0.310 N 
HETATM   32  C   UNK N   1      21.654  18.234   5.362  0.00  0.00     0.122 A 
ATOM     33  HN  UNK N   1      19.791  17.500   6.036  1.00  0.00     0.186 HD
ENDBRANCH   1  27
TORSDOF 3
ENDMDL
MODEL 6
REMARK VINA RESULT:      -8.3      2.370      8.913
REMARK  3 active torsions:
REMARK  status: ('A' for Active; 'I' for Inactive)
REMARK    1  A    between atoms: C_4  and  C_8 
REMARK    2  A    between atoms: C_16  and  C_20 
REMARK    3  A    between atoms: C_20  and  C_21 
ROOT
HETATM    1  C   UNK N   1      23.867  18.624   4.401  0.00  0.00     0.061 A 
HETATM    2  C   UNK N   1      23.884  19.717   3.502  0.00  0.00     0.036 A 
HETATM    3  C   UNK N   1      25.100  20.328   3.165  0.00  0.00     0.054 A 
HETATM    4  C   UNK N   1      26.241  19.809   3.751  0.00  0.00     0.143 A 
HETATM    5  N   UNK N   1      27.512  20.207   3.567  0.00  0.00    -0.282 N 
ATOM      6  HN  UNK N   1      27.828  20.987   2.991  1.00  0.00     0.188 HD
HETATM    7  N   UNK N   1      28.277  19.387   4.284  0.00  0.00    -0.281 N 
ATOM      8  HN  UNK N   1      29.294  19.419   4.357  1.00  0.00     0.188 HD
HETATM    9  C   UNK N   1      27.457  18.497   4.901  0.00  0.00     0.198 A 
HETATM   10  N   UNK N   1      26.182  18.764   4.579  0.00  0.00    -0.218 N 
HETATM   11  N   UNK N   1      25.045  18.156   4.917  0.00  0.00    -0.290 N 
ATOM     12  HN  UNK N   1      25.053  17.357   5.550  1.00  0.00     0.187 HD
ENDROOT
BRANCH   9  13
HETATM   13  C   UNK N   1      27.968  17.313   5.687  0.00  0.00     0.331 C 
HETATM   14  F   UNK N   1      27.447  17.413   6.965  0.00  0.00    -0.192 F 
HETATM   15  F   UNK N   1      27.425  16.174   5.110  0.00  0.00    -0.192 F 
BRANCH  13  16
HETATM   16  C   UNK N   1      29.466  17.120   5.824  0.00  0.00     0.022 A 
HETATM   17  C   UNK N   1      30.277  16.884   4.701  0.00  0.00     0.016 A 
HETATM   18  C   UNK N   1      31.675  16.914   4.815  0.00  0.00     0.031 A 
HETATM   19  C   UNK N   1      32.273  17.201   6.047  0.00  0.00     0.042 A 
HETATM   20  C   UNK N   1      31.465  17.417   7.181  0.00  0.00    -0.009 A 
HETATM   21  N   UNK N   1      33.628  17.294   6.154  0.00  0.00    -0.365 N 
HETATM   22  C   UNK N   1      30.076  17.375   7.066  0.00  0.00     0.027 A 
HETATM   23  C   UNK N   1      32.066  17.715   8.405  0.00  0.00     0.015 A 
HETATM   24  C   UNK N   1      33.456  17.805   8.487  0.00  0.00     0.018 A 
HETATM   25  C   UNK N   1      34.228  17.593   7.341  0.00  0.00     0.088 A 
ATOM     26  HN  UNK N   1      34.206  17.134   5.329  1.00  0.00     0.165 HD
ENDBRANCH  13  16
ENDBRANCH   9  13
BRANCH   1  27
HETATM   27  C   UNK N   1      22.593  18.018   4.806  0.00  0.00     0.026 A 
HETATM   28  C   UNK N   1      21.662  17.410   3.986  0.00  0.00     0.124 A 
HETATM   29  N   UNK N   1      20.641  17.031   4.770  0.00  0.00    -0.307 N 
HETATM   30  C   UNK N   1      19.441  16.349   4.323  0.00  0.00     0.177 C 
HETATM   31  N   UNK N   1      20.874  17.369   6.027  0.00  0.00    -0.310 N 
HETATM   32  C   UNK N   1      22.073  17.981   6.087  0.00  0.00     0.122 A 
ATOM     33  HN  UNK N   1      20.252  17.196   6.816  1.00  0.00     0.186 HD
ENDBRANCH   1  27
TORSDOF 3
ENDMDL
MODEL 7
REMARK VINA RESULT:      -8.2      3.865      5.039
REMARK  3 active torsions:
REMARK  status: ('A' for Active; 'I' for Inactive)
REMARK    1  A    between atoms: C_4  and  C_8 
REMARK    2  A    between atoms: C_16  and  C_20 
REMARK    3  A    between atoms: C_20  and  C_21 
ROOT
HETATM    1  C   UNK N   1      35.003  15.072   7.767  0.00  0.00     0.061 A 
HETATM    2  C   UNK N   1      35.646  13.897   7.310  0.00  0.00     0.036 A 
HETATM    3  C   UNK N   1      35.439  13.448   5.999  0.00  0.00     0.054 A 
HETATM    4  C   UNK N   1      34.590  14.205   5.209  0.00  0.00     0.143 A 
HETATM    5  N   UNK N   1      34.255  13.992   3.925  0.00  0.00    -0.282 N 
ATOM      6  HN  UNK N   1      34.550  13.208   3.342  1.00  0.00     0.188 HD
HETATM    7  N   UNK N   1      33.465  15.000   3.563  0.00  0.00    -0.281 N 
ATOM      8  HN  UNK N   1      33.042  15.135   2.645  1.00  0.00     0.188 HD
HETATM    9  C   UNK N   1      33.324  15.816   4.639  0.00  0.00     0.198 A 
HETATM   10  N   UNK N   1      34.018  15.318   5.674  0.00  0.00    -0.218 N 
HETATM   11  N   UNK N   1      34.197  15.776   6.913  0.00  0.00    -0.290 N 
ATOM     12  HN  UNK N   1      33.742  16.635   7.219  1.00  0.00     0.187 HD
ENDROOT
BRANCH   9  13
HETATM   13  C   UNK N   1      32.618  17.150   4.575  0.00  0.00     0.331 C 
HETATM   14  F   UNK N   1      33.504  18.105   5.042  0.00  0.00    -0.192 F 
HETATM   15  F   UNK N   1      32.383  17.426   3.236  0.00  0.00    -0.192 F 
BRANCH  13  16
HETATM   16  C   UNK N   1      31.321  17.325   5.342  0.00  0.00     0.022 A 
HETATM   17  C   UNK N   1      30.077  17.083   4.735  0.00  0.00     0.016 A 
HETATM   18  C   UNK N   1      28.905  17.046   5.506  0.00  0.00     0.031 A 
HETATM   19  C   UNK N   1      28.970  17.231   6.892  0.00  0.00     0.042 A 
HETATM   20  C   UNK N   1      30.212  17.497   7.502  0.00  0.00    -0.009 A 
HETATM   21  N   UNK N   1      27.847  17.137   7.656  0.00  0.00    -0.365 N 
HETATM   22  C   UNK N   1      31.372  17.543   6.730  0.00  0.00     0.027 A 
HETATM   23  C   UNK N   1      30.273  17.667   8.885  0.00  0.00     0.015 A 
HETATM   24  C   UNK N   1      29.107  17.565   9.646  0.00  0.00     0.018 A 
HETATM   25  C   UNK N   1      27.893  17.292   9.009  0.00  0.00     0.088 A 
ATOM     26  HN  UNK N   1      26.951  16.946   7.205  1.00  0.00     0.165 HD
ENDBRANCH  13  16
ENDBRANCH   9  13
BRANCH   1  27
HETATM   27  C   UNK N   1      35.168  15.515   9.157  0.00  0.00     0.026 A 
HETATM   28  C   UNK N   1      35.644  14.769  10.217  0.00  0.00     0.124 A 
HETATM   29  N   UNK N   1      35.593  15.557  11.302  0.00  0.00    -0.307 N 
HETATM   30  C   UNK N   1      36.002  15.178  12.641  0.00  0.00     0.177 C 
HETATM   31  N   UNK N   1      35.110  16.746  10.986  0.00  0.00    -0.310 N 
HETATM   32  C   UNK N   1      34.837  16.757   9.667  0.00  0.00     0.122 A 
ATOM     33  HN  UNK N   1      34.969  17.523  11.631  1.00  0.00     0.186 HD
ENDBRANCH   1  27
TORSDOF 3
ENDMDL
MODEL 8
REMARK VINA RESULT:      -8.1      3.344      7.619
REMARK  3 active torsions:
REMARK  status: ('A' for Active; 'I' for Inactive)
REMARK    1  A    between atoms: C_4  and  C_8 
REMARK    2  A    between atoms: C_16  and  C_20 
REMARK    3  A    between atoms: C_20  and  C_21 
ROOT
HETATM    1  C   UNK N   1      24.073  16.671   5.439  0.00  0.00     0.061 A 
HETATM    2  C   UNK N   1      22.811  16.741   4.803  0.00  0.00     0.036 A 
HETATM    3  C   UNK N   1      22.479  17.857   4.024  0.00  0.00     0.054 A 
HETATM    4  C   UNK N   1      23.436  18.853   3.924  0.00  0.00     0.143 A 
HETATM    5  N   UNK N   1      23.360  19.998   3.223  0.00  0.00    -0.282 N 
ATOM      6  HN  UNK N   1      22.561  20.328   2.683  1.00  0.00     0.188 HD
HETATM    7  N   UNK N   1      24.530  20.616   3.373  0.00  0.00    -0.281 N 
ATOM      8  HN  UNK N   1      24.796  21.511   2.963  1.00  0.00     0.188 HD
HETATM    9  C   UNK N   1      25.305  19.838   4.171  0.00  0.00     0.198 A 
HETATM   10  N   UNK N   1      24.622  18.738   4.526  0.00  0.00    -0.218 N 
HETATM   11  N   UNK N   1      24.971  17.689   5.270  0.00  0.00    -0.290 N 
ATOM     12  HN  UNK N   1      25.893  17.646   5.705  1.00  0.00     0.187 HD
ENDROOT
BRANCH   9  13
HETATM   13  C   UNK N   1      26.760  20.133   4.449  0.00  0.00     0.331 C 
HETATM   14  F   UNK N   1      27.392  20.266   3.226  0.00  0.00    -0.192 F 
HETATM   15  F   UNK N   1      26.815  21.367   5.078  0.00  0.00    -0.192 F 
BRANCH  13  16
HETATM   16  C   UNK N   1      27.562  19.137   5.264  0.00  0.00     0.022 A 
HETATM   17  C   UNK N   1      28.405  18.197   4.646  0.00  0.00     0.016 A 
HETATM   18  C   UNK N   1      29.293  17.426   5.412  0.00  0.00     0.031 A 
HETATM   19  C   UNK N   1      29.360  17.602   6.798  0.00  0.00     0.042 A 
HETATM   20  C   UNK N   1      28.501  18.526   7.426  0.00  0.00    -0.009 A 
HETATM   21  N   UNK N   1      30.261  16.902   7.542  0.00  0.00    -0.365 N 
HETATM   22  C   UNK N   1      27.613  19.283   6.662  0.00  0.00     0.027 A 
HETATM   23  C   UNK N   1      28.581  18.708   8.807  0.00  0.00     0.015 A 
HETATM   24  C   UNK N   1      29.514  17.978   9.546  0.00  0.00     0.018 A 
HETATM   25  C   UNK N   1      30.356  17.075   8.890  0.00  0.00     0.088 A 
ATOM     26  HN  UNK N   1      30.877  16.233   7.080  1.00  0.00     0.165 HD
ENDBRANCH  13  16
ENDBRANCH   9  13
BRANCH   1  27
HETATM   27  C   UNK N   1      24.403  15.533   6.306  0.00  0.00     0.026 A 
HETATM   28  C   UNK N   1      23.527  14.602   6.829  0.00  0.00     0.124 A 
HETATM   29  N   UNK N   1      24.253  13.765   7.586  0.00  0.00    -0.307 N 
HETATM   30  C   UNK N   1      23.734  12.630   8.325  0.00  0.00     0.177 C 
HETATM   31  N   UNK N   1      25.527  14.119   7.574  0.00  0.00    -0.310 N 
HETATM   32  C   UNK N   1      25.657  15.209   6.791  0.00  0.00     0.122 A 
ATOM     33  HN  UNK N   1      26.282  13.648   8.072  1.00  0.00     0.186 HD
ENDBRANCH   1  27
TORSDOF 3
ENDMDL
MODEL 9
REMARK VINA RESULT:      -8.1     10.866     13.365
REMARK  3 active torsions:
REMARK  status: ('A' for Active; 'I' for Inactive)
REMARK    1  A    between atoms: C_4  and  C_8 
REMARK    2  A    between atoms: C_16  and  C_20 
REMARK    3  A    between atoms: C_20  and  C_21 
ROOT
HETATM    1  C   UNK N   1      30.210  25.192  -3.745  0.00  0.00     0.061 A 
HETATM    2  C   UNK N   1      31.205  26.157  -3.461  0.00  0.00     0.036 A 
HETATM    3  C   UNK N   1      30.890  27.522  -3.500  0.00  0.00     0.054 A 
HETATM    4  C   UNK N   1      29.585  27.850  -3.827  0.00  0.00     0.143 A 
HETATM    5  N   UNK N   1      29.042  29.077  -3.906  0.00  0.00    -0.282 N 
ATOM      6  HN  UNK N   1      29.526  29.966  -3.774  1.00  0.00     0.188 HD
HETATM    7  N   UNK N   1      27.753  28.907  -4.191  0.00  0.00    -0.281 N 
ATOM      8  HN  UNK N   1      27.060  29.646  -4.315  1.00  0.00     0.188 HD
HETATM    9  C   UNK N   1      27.527  27.572  -4.286  0.00  0.00     0.198 A 
HETATM   10  N   UNK N   1      28.672  26.907  -4.069  0.00  0.00    -0.218 N 
HETATM   11  N   UNK N   1      28.936  25.601  -4.035  0.00  0.00    -0.290 N 
ATOM     12  HN  UNK N   1      28.202  24.918  -4.223  1.00  0.00     0.187 HD
ENDROOT
BRANCH   9  13
HETATM   13  C   UNK N   1      26.148  26.978  -4.452  0.00  0.00     0.331 C 
HETATM   14  F   UNK N   1      25.916  26.171  -3.353  0.00  0.00    -0.192 F 
HETATM   15  F   UNK N   1      25.241  28.026  -4.392  0.00  0.00    -0.192 F 
BRANCH  13  16
HETATM   16  C   UNK N   1      25.854  26.153  -5.689  0.00  0.00     0.022 A 
HETATM   17  C   UNK N   1      25.868  26.729  -6.971  0.00  0.00     0.016 A 
HETATM   18  C   UNK N   1      25.800  25.919  -8.115  0.00  0.00     0.031 A 
HETATM   19  C   UNK N   1      25.739  24.527  -7.988  0.00  0.00     0.042 A 
HETATM   20  C   UNK N   1      25.702  23.945  -6.705  0.00  0.00    -0.009 A 
HETATM   21  N   UNK N   1      25.735  23.731  -9.092  0.00  0.00    -0.365 N 
HETATM   22  C   UNK N   1      25.758  24.754  -5.571  0.00  0.00     0.027 A 
HETATM   23  C   UNK N   1      25.653  22.557  -6.583  0.00  0.00     0.015 A 
HETATM   24  C   UNK N   1      25.651  21.762  -7.731  0.00  0.00     0.018 A 
HETATM   25  C   UNK N   1      25.697  22.372  -8.988  0.00  0.00     0.088 A 
ATOM     26  HN  UNK N   1      25.760  24.160 -10.017  1.00  0.00     0.165 HD
ENDBRANCH  13  16
ENDBRANCH   9  13
BRANCH   1  27
HETATM   27  C   UNK N   1      30.547  23.763  -3.765  0.00  0.00     0.026 A 
HETATM   28  C   UNK N   1      30.656  22.949  -4.875  0.00  0.00     0.124 A 
HETATM   29  N   UNK N   1      30.947  21.717  -4.429  0.00  0.00    -0.307 N 
HETATM   30  C   UNK N   1      31.152  20.545  -5.258  0.00  0.00     0.177 C 
HETATM   31  N   UNK N   1      31.022  21.711  -3.109  0.00  0.00    -0.310 N 
HETATM   32  C   UNK N   1      30.781  22.960  -2.664  0.00  0.00     0.122 A 
ATOM     33  HN  UNK N   1      31.227  20.899  -2.527  1.00  0.00     0.186 HD
ENDBRANCH   1  27
TORSDOF 3
ENDMDL
