MODEL 1
REMARK VINA RESULT:      -7.6      0.000      0.000
REMARK  8 active torsions:
REMARK  status: ('A' for Active; 'I' for Inactive)
REMARK    1  A    between atoms: C_4  and  N_25 
REMARK    2  A    between atoms: C_13  and  N_9 
REMARK    3  A    between atoms: C_14  and  O_24 
REMARK    4  A    between atoms: C_15  and  O_23 
REMARK    5  A    between atoms: C_16  and  C_18 
REMARK    6  A    between atoms: C_18  and  O_19 
REMARK    7  A    between atoms: O_19  and  N_20 
REMARK    8  A    between atoms: N_25  and  C_26 
ROOT
HETATM    1  C   UNK N   1      29.187  17.350   9.909  0.00  0.00     0.183 A 
HETATM    2  N   UNK N   1      28.222  17.647   8.976  0.00  0.00    -0.337 N 
ATOM      3  HN  UNK N   1      27.277  17.873   9.287  1.00  0.00     0.168 HD
HETATM    4  C   UNK N   1      28.503  17.644   7.638  0.00  0.00     0.133 A 
HETATM    5  C   UNK N   1      29.807  17.321   7.259  0.00  0.00     0.122 A 
HETATM    6  C   UNK N   1      30.738  17.037   8.191  0.00  0.00     0.142 A 
HETATM    7  N   UNK N   1      30.462  17.039   9.518  0.00  0.00    -0.336 N 
ATOM      8  HN  UNK N   1      31.182  16.816  10.205  1.00  0.00     0.168 HD
HETATM    9  N   UNK N   1      31.895  16.730   7.583  0.00  0.00    -0.297 N 
HETATM   10  C   UNK N   1      31.633  16.832   6.256  0.00  0.00     0.188 A 
HETATM   11  N   UNK N   1      30.347  17.207   6.031  0.00  0.00    -0.346 N 
ATOM     12  HN  UNK N   1      29.892  17.366   5.132  1.00  0.00     0.167 HD
ENDROOT
BRANCH   9  13
HETATM   13  C   UNK N   1      33.165  16.293   8.161  0.00  0.00     0.262 C 
HETATM   14  C   UNK N   1      33.986  17.432   8.702  0.00  0.00     0.198 C 
HETATM   15  C   UNK N   1      35.006  16.621   9.411  0.00  0.00     0.182 C 
HETATM   16  C   UNK N   1      34.146  15.524  10.019  0.00  0.00     0.182 C 
HETATM   17  O   UNK N   1      32.983  15.395   9.227  0.00  0.00    -0.353 OA
BRANCH  14  18
HETATM   18  O   UNK N   1      34.578  18.159   7.667  0.00  0.00    -0.388 OA
HETATM   19  H   UNK N   1      34.555  17.971   6.715  0.00  0.00     0.210 HD
ENDBRANCH  14  18
BRANCH  15  20
HETATM   20  O   UNK N   1      35.662  17.369  10.389  0.00  0.00    -0.390 OA
HETATM   21  H   UNK N   1      35.758  17.351  11.354  0.00  0.00     0.210 HD
ENDBRANCH  15  20
BRANCH  16  22
HETATM   22  C   UNK N   1      34.889  14.197  10.004  0.00  0.00     0.242 C 
BRANCH  22  23
HETATM   23  O   UNK N   1      35.876  14.166  10.961  0.00  0.00    -0.219 OA
BRANCH  23  24
HETATM   24  N   UNK N   1      35.616  14.421  12.230  0.00  0.00     0.005 N 
HETATM   25  O   UNK N   1      36.142  15.346  12.767  0.00  0.00    -0.511 OA
HETATM   26  O   UNK N   1      34.788  13.657  12.914  0.00  0.00    -0.511 OA
ENDBRANCH  23  24
ENDBRANCH  22  23
ENDBRANCH  16  22
ENDBRANCH   9  13
BRANCH   4  27
HETATM   27  N   UNK N   1      27.479  17.936   6.693  0.00  0.00    -0.370 N 
HETATM   28  H   UNK N   1      26.749  17.288   6.574  0.00  0.00     0.161 HD
BRANCH  27  29
HETATM   29  C   UNK N   1      27.469  19.145   5.903  0.00  0.00     0.083 C 
HETATM   30  C   UNK N   1      26.177  19.316   5.154  0.00  0.00     0.025 C 
HETATM   31  C   UNK N   1      26.152  20.800   4.831  0.00  0.00     0.002 C 
HETATM   32  C   UNK N   1      27.021  21.482   5.881  0.00  0.00     0.002 C 
HETATM   33  C   UNK N   1      27.542  20.377   6.775  0.00  0.00     0.025 C 
ENDBRANCH  27  29
ENDBRANCH   4  27
TORSDOF 8
ENDMDL
MODEL 2
REMARK VINA RESULT:      -7.4      4.800     10.044
REMARK  8 active torsions:
REMARK  status: ('A' for Active; 'I' for Inactive)
REMARK    1  A    between atoms: C_4  and  N_25 
REMARK    2  A    between atoms: C_13  and  N_9 
REMARK    3  A    between atoms: C_14  and  O_24 
REMARK    4  A    between atoms: C_15  and  O_23 
REMARK    5  A    between atoms: C_16  and  C_18 
REMARK    6  A    between atoms: C_18  and  O_19 
REMARK    7  A    between atoms: O_19  and  N_20 
REMARK    8  A    between atoms: N_25  and  C_26 
ROOT
HETATM    1  C   UNK N   1      34.318  11.158  12.936  0.00  0.00     0.183 A 
HETATM    2  N   UNK N   1      34.781  10.907  14.206  0.00  0.00    -0.337 N 
ATOM      3  HN  UNK N   1      34.518  10.039  14.672  1.00  0.00     0.168 HD
HETATM    4  C   UNK N   1      35.589  11.798  14.856  0.00  0.00     0.133 A 
HETATM    5  C   UNK N   1      35.917  12.975  14.181  0.00  0.00     0.122 A 
HETATM    6  C   UNK N   1      35.454  13.199  12.935  0.00  0.00     0.142 A 
HETATM    7  N   UNK N   1      34.654  12.317  12.289  0.00  0.00    -0.336 N 
ATOM      8  HN  UNK N   1      34.312  12.511  11.348  1.00  0.00     0.168 HD
HETATM    9  N   UNK N   1      35.877  14.402  12.515  0.00  0.00    -0.297 N 
HETATM   10  C   UNK N   1      36.604  14.899  13.547  0.00  0.00     0.188 A 
HETATM   11  N   UNK N   1      36.651  14.028  14.587  0.00  0.00    -0.346 N 
ATOM     12  HN  UNK N   1      37.135  14.145  15.478  1.00  0.00     0.167 HD
ENDROOT
BRANCH   9  13
HETATM   13  C   UNK N   1      35.585  15.110  11.270  0.00  0.00     0.262 C 
HETATM   14  C   UNK N   1      36.358  14.575  10.096  0.00  0.00     0.198 C 
HETATM   15  C   UNK N   1      35.634  15.312   9.031  0.00  0.00     0.182 C 
HETATM   16  C   UNK N   1      34.198  15.207   9.518  0.00  0.00     0.182 C 
HETATM   17  O   UNK N   1      34.226  15.031  10.920  0.00  0.00    -0.353 OA
BRANCH  14  18
HETATM   18  O   UNK N   1      37.692  14.982  10.146  0.00  0.00    -0.388 OA
HETATM   19  H   UNK N   1      38.355  14.947   9.439  0.00  0.00     0.210 HD
ENDBRANCH  14  18
BRANCH  15  20
HETATM   20  O   UNK N   1      35.805  14.707   7.785  0.00  0.00    -0.390 OA
HETATM   21  H   UNK N   1      36.158  14.954   6.916  0.00  0.00     0.210 HD
ENDBRANCH  15  20
BRANCH  16  22
HETATM   22  C   UNK N   1      33.437  16.487   9.208  0.00  0.00     0.242 C 
BRANCH  22  23
HETATM   23  O   UNK N   1      34.238  17.594   9.359  0.00  0.00    -0.219 OA
BRANCH  23  24
HETATM   24  N   UNK N   1      34.580  18.345   8.330  0.00  0.00     0.005 N 
HETATM   25  O   UNK N   1      35.319  19.267   8.490  0.00  0.00    -0.511 OA
HETATM   26  O   UNK N   1      34.104  18.093   7.126  0.00  0.00    -0.511 OA
ENDBRANCH  23  24
ENDBRANCH  22  23
ENDBRANCH  16  22
ENDBRANCH   9  13
BRANCH   4  27
HETATM   27  N   UNK N   1      36.037  11.521  16.178  0.00  0.00    -0.370 N 
HETATM   28  H   UNK N   1      36.923  11.111  16.300  0.00  0.00     0.161 HD
BRANCH  27  29
HETATM   29  C   UNK N   1      35.244  11.816  17.349  0.00  0.00     0.083 C 
HETATM   30  C   UNK N   1      35.715  11.052  18.554  0.00  0.00     0.025 C 
HETATM   31  C   UNK N   1      35.142  11.841  19.718  0.00  0.00     0.002 C 
HETATM   32  C   UNK N   1      34.943  13.266  19.213  0.00  0.00     0.002 C 
HETATM   33  C   UNK N   1      35.388  13.261  17.765  0.00  0.00     0.025 C 
ENDBRANCH  27  29
ENDBRANCH   4  27
TORSDOF 8
ENDMDL
MODEL 3
REMARK VINA RESULT:      -7.2      1.209      2.235
REMARK  8 active torsions:
REMARK  status: ('A' for Active; 'I' for Inactive)
REMARK    1  A    between atoms: C_4  and  N_25 
REMARK    2  A    between atoms: C_13  and  N_9 
REMARK    3  A    between atoms: C_14  and  O_24 
REMARK    4  A    between atoms: C_15  and  O_23 
REMARK    5  A    between atoms: C_16  and  C_18 
REMARK    6  A    between atoms: C_18  and  O_19 
REMARK    7  A    between atoms: O_19  and  N_20 
REMARK    8  A    between atoms: N_25  and  C_26 
ROOT
HETATM    1  C   UNK N   1      32.324  17.541   4.102  0.00  0.00     0.183 A 
HETATM    2  N   UNK N   1      30.998  17.848   3.908  0.00  0.00    -0.337 N 
ATOM      3  HN  UNK N   1      30.697  18.219   3.007  1.00  0.00     0.168 HD
HETATM    4  C   UNK N   1      30.074  17.666   4.900  0.00  0.00     0.133 A 
HETATM    5  C   UNK N   1      30.534  17.164   6.118  0.00  0.00     0.122 A 
HETATM    6  C   UNK N   1      31.838  16.866   6.285  0.00  0.00     0.142 A 
HETATM    7  N   UNK N   1      32.756  17.046   5.304  0.00  0.00    -0.336 N 
ATOM      8  HN  UNK N   1      33.738  16.818   5.455  1.00  0.00     0.168 HD
HETATM    9  N   UNK N   1      32.037  16.434   7.540  0.00  0.00    -0.297 N 
HETATM   10  C   UNK N   1      30.815  16.483   8.127  0.00  0.00     0.188 A 
HETATM   11  N   UNK N   1      29.866  16.924   7.261  0.00  0.00    -0.346 N 
ATOM     12  HN  UNK N   1      28.869  17.046   7.438  1.00  0.00     0.167 HD
ENDROOT
BRANCH   9  13
HETATM   13  C   UNK N   1      33.280  16.057   8.211  0.00  0.00     0.262 C 
HETATM   14  C   UNK N   1      34.048  17.242   8.731  0.00  0.00     0.198 C 
HETATM   15  C   UNK N   1      35.041  16.493   9.541  0.00  0.00     0.182 C 
HETATM   16  C   UNK N   1      34.168  15.414  10.161  0.00  0.00     0.182 C 
HETATM   17  O   UNK N   1      33.054  15.216   9.315  0.00  0.00    -0.353 OA
BRANCH  14  18
HETATM   18  O   UNK N   1      34.684  17.922   7.691  0.00  0.00    -0.388 OA
HETATM   19  H   UNK N   1      34.414  17.981   6.762  0.00  0.00     0.210 HD
ENDBRANCH  14  18
BRANCH  15  20
HETATM   20  O   UNK N   1      35.627  17.309  10.510  0.00  0.00    -0.390 OA
HETATM   21  H   UNK N   1      35.413  18.136  10.968  0.00  0.00     0.210 HD
ENDBRANCH  15  20
BRANCH  16  22
HETATM   22  C   UNK N   1      34.935  14.105  10.264  0.00  0.00     0.242 C 
BRANCH  22  23
HETATM   23  O   UNK N   1      35.931  14.181  11.208  0.00  0.00    -0.219 OA
BRANCH  23  24
HETATM   24  N   UNK N   1      35.662  14.417  12.478  0.00  0.00     0.005 N 
HETATM   25  O   UNK N   1      36.161  15.352  13.024  0.00  0.00    -0.511 OA
HETATM   26  O   UNK N   1      34.856  13.623  13.154  0.00  0.00    -0.511 OA
ENDBRANCH  23  24
ENDBRANCH  22  23
ENDBRANCH  16  22
ENDBRANCH   9  13
BRANCH   4  27
HETATM   27  N   UNK N   1      28.712  18.011   4.677  0.00  0.00    -0.370 N 
HETATM   28  H   UNK N   1      28.076  17.297   4.446  0.00  0.00     0.161 HD
BRANCH  27  29
HETATM   29  C   UNK N   1      28.225  19.368   4.776  0.00  0.00     0.083 C 
HETATM   30  C   UNK N   1      27.015  19.595   3.915  0.00  0.00     0.025 C 
HETATM   31  C   UNK N   1      26.378  20.833   4.521  0.00  0.00     0.002 C 
HETATM   32  C   UNK N   1      26.831  20.879   5.975  0.00  0.00     0.002 C 
HETATM   33  C   UNK N   1      27.732  19.678   6.170  0.00  0.00     0.025 C 
ENDBRANCH  27  29
ENDBRANCH   4  27
TORSDOF 8
ENDMDL
MODEL 4
REMARK VINA RESULT:      -6.8      3.489      8.724
REMARK  8 active torsions:
REMARK  status: ('A' for Active; 'I' for Inactive)
REMARK    1  A    between atoms: C_4  and  N_25 
REMARK    2  A    between atoms: C_13  and  N_9 
REMARK    3  A    between atoms: C_14  and  O_24 
REMARK    4  A    between atoms: C_15  and  O_23 
REMARK    5  A    between atoms: C_16  and  C_18 
REMARK    6  A    between atoms: C_18  and  O_19 
REMARK    7  A    between atoms: O_19  and  N_20 
REMARK    8  A    between atoms: N_25  and  C_26 
ROOT
HETATM    1  C   UNK N   1      34.842  12.329  10.134  0.00  0.00     0.183 A 
HETATM    2  N   UNK N   1      35.684  12.144  11.205  0.00  0.00    -0.337 N 
ATOM      3  HN  UNK N   1      35.925  11.196  11.495  1.00  0.00     0.168 HD
HETATM    4  C   UNK N   1      36.205  13.206  11.890  0.00  0.00     0.133 A 
HETATM    5  C   UNK N   1      35.842  14.484  11.462  0.00  0.00     0.122 A 
HETATM    6  C   UNK N   1      35.018  14.642  10.407  0.00  0.00     0.142 A 
HETATM    7  N   UNK N   1      34.500  13.591   9.726  0.00  0.00    -0.336 N 
ATOM      8  HN  UNK N   1      33.875  13.735   8.934  1.00  0.00     0.168 HD
HETATM    9  N   UNK N   1      34.795  15.951  10.211  0.00  0.00    -0.297 N 
HETATM   10  C   UNK N   1      35.504  16.578  11.183  0.00  0.00     0.188 A 
HETATM   11  N   UNK N   1      36.170  15.689  11.964  0.00  0.00    -0.346 N 
ATOM     12  HN  UNK N   1      36.781  15.890  12.755  1.00  0.00     0.167 HD
ENDROOT
BRANCH   9  13
HETATM   13  C   UNK N   1      33.926  16.614   9.240  0.00  0.00     0.262 C 
HETATM   14  C   UNK N   1      34.690  17.392   8.204  0.00  0.00     0.198 C 
HETATM   15  C   UNK N   1      33.555  17.673   7.291  0.00  0.00     0.182 C 
HETATM   16  C   UNK N   1      32.815  16.345   7.316  0.00  0.00     0.182 C 
HETATM   17  O   UNK N   1      33.122  15.700   8.535  0.00  0.00    -0.353 OA
BRANCH  14  18
HETATM   18  O   UNK N   1      35.189  18.582   8.739  0.00  0.00    -0.388 OA
HETATM   19  H   UNK N   1      34.856  19.483   8.605  0.00  0.00     0.210 HD
ENDBRANCH  14  18
BRANCH  15  20
HETATM   20  O   UNK N   1      34.001  17.995   6.008  0.00  0.00    -0.390 OA
HETATM   21  H   UNK N   1      33.621  18.060   5.118  0.00  0.00     0.210 HD
ENDBRANCH  15  20
BRANCH  16  22
HETATM   22  C   UNK N   1      31.313  16.573   7.256  0.00  0.00     0.242 C 
BRANCH  22  23
HETATM   23  O   UNK N   1      30.962  17.756   7.863  0.00  0.00    -0.219 OA
BRANCH  23  24
HETATM   24  N   UNK N   1      30.350  17.778   9.032  0.00  0.00     0.005 N 
HETATM   25  O   UNK N   1      30.141  16.756   9.609  0.00  0.00    -0.511 OA
HETATM   26  O   UNK N   1      29.955  18.918   9.564  0.00  0.00    -0.511 OA
ENDBRANCH  23  24
ENDBRANCH  22  23
ENDBRANCH  16  22
ENDBRANCH   9  13
BRANCH   4  27
HETATM   27  N   UNK N   1      37.059  12.984  13.008  0.00  0.00    -0.370 N 
HETATM   28  H   UNK N   1      38.031  13.058  12.881  0.00  0.00     0.161 HD
BRANCH  27  29
HETATM   29  C   UNK N   1      36.554  12.655  14.320  0.00  0.00     0.083 C 
HETATM   30  C   UNK N   1      36.768  13.774  15.301  0.00  0.00     0.025 C 
HETATM   31  C   UNK N   1      35.765  13.474  16.402  0.00  0.00     0.002 C 
HETATM   32  C   UNK N   1      34.657  12.648  15.759  0.00  0.00     0.002 C 
HETATM   33  C   UNK N   1      35.054  12.475  14.307  0.00  0.00     0.025 C 
ENDBRANCH  27  29
ENDBRANCH   4  27
TORSDOF 8
ENDMDL
MODEL 5
REMARK VINA RESULT:      -6.8      3.746      9.033
REMARK  8 active torsions:
REMARK  status: ('A' for Active; 'I' for Inactive)
REMARK    1  A    between atoms: C_4  and  N_25 
REMARK    2  A    between atoms: C_13  and  N_9 
REMARK    3  A    between atoms: C_14  and  O_24 
REMARK    4  A    between atoms: C_15  and  O_23 
REMARK    5  A    between atoms: C_16  and  C_18 
REMARK    6  A    between atoms: C_18  and  O_19 
REMARK    7  A    between atoms: O_19  and  N_20 
REMARK    8  A    between atoms: N_25  and  C_26 
ROOT
HETATM    1  C   UNK N   1      34.925  12.257  10.119  0.00  0.00     0.183 A 
HETATM    2  N   UNK N   1      35.743  12.101  11.212  0.00  0.00    -0.337 N 
ATOM      3  HN  UNK N   1      35.996  11.161  11.518  1.00  0.00     0.168 HD
HETATM    4  C   UNK N   1      36.226  13.181  11.898  0.00  0.00     0.133 A 
HETATM    5  C   UNK N   1      35.848  14.446  11.447  0.00  0.00     0.122 A 
HETATM    6  C   UNK N   1      35.047  14.576  10.370  0.00  0.00     0.142 A 
HETATM    7  N   UNK N   1      34.567  13.507   9.689  0.00  0.00    -0.336 N 
ATOM      8  HN  UNK N   1      33.958  13.630   8.880  1.00  0.00     0.168 HD
HETATM    9  N   UNK N   1      34.802  15.878  10.155  0.00  0.00    -0.297 N 
HETATM   10  C   UNK N   1      35.474  16.530  11.136  0.00  0.00     0.188 A 
HETATM   11  N   UNK N   1      36.138  15.663  11.944  0.00  0.00    -0.346 N 
ATOM     12  HN  UNK N   1      36.726  15.885  12.747  1.00  0.00     0.167 HD
ENDROOT
BRANCH   9  13
HETATM   13  C   UNK N   1      33.944  16.513   9.155  0.00  0.00     0.262 C 
HETATM   14  C   UNK N   1      34.713  17.339   8.161  0.00  0.00     0.198 C 
HETATM   15  C   UNK N   1      33.605  17.578   7.204  0.00  0.00     0.182 C 
HETATM   16  C   UNK N   1      32.927  16.218   7.184  0.00  0.00     0.182 C 
HETATM   17  O   UNK N   1      33.213  15.572   8.408  0.00  0.00    -0.353 OA
BRANCH  14  18
HETATM   18  O   UNK N   1      35.133  18.543   8.729  0.00  0.00    -0.388 OA
HETATM   19  H   UNK N   1      36.004  18.964   8.660  0.00  0.00     0.210 HD
ENDBRANCH  14  18
BRANCH  15  20
HETATM   20  O   UNK N   1      34.087  17.937   5.945  0.00  0.00    -0.390 OA
HETATM   21  H   UNK N   1      34.449  18.730   5.520  0.00  0.00     0.210 HD
ENDBRANCH  15  20
BRANCH  16  22
HETATM   22  C   UNK N   1      31.419  16.377   7.064  0.00  0.00     0.242 C 
BRANCH  22  23
HETATM   23  O   UNK N   1      31.092  17.411   6.219  0.00  0.00    -0.219 OA
BRANCH  23  24
HETATM   24  N   UNK N   1      30.926  17.219   4.924  0.00  0.00     0.005 N 
HETATM   25  O   UNK N   1      29.960  16.642   4.531  0.00  0.00    -0.511 OA
HETATM   26  O   UNK N   1      31.825  17.648   4.060  0.00  0.00    -0.511 OA
ENDBRANCH  23  24
ENDBRANCH  22  23
ENDBRANCH  16  22
ENDBRANCH   9  13
BRANCH   4  27
HETATM   27  N   UNK N   1      37.056  12.989  13.038  0.00  0.00    -0.370 N 
HETATM   28  H   UNK N   1      38.030  13.076  12.933  0.00  0.00     0.161 HD
BRANCH  27  29
HETATM   29  C   UNK N   1      36.525  12.670  14.343  0.00  0.00     0.083 C 
HETATM   30  C   UNK N   1      36.851  13.731  15.357  0.00  0.00     0.025 C 
HETATM   31  C   UNK N   1      35.827  13.496  16.454  0.00  0.00     0.002 C 
HETATM   32  C   UNK N   1      34.641  12.804  15.792  0.00  0.00     0.002 C 
HETATM   33  C   UNK N   1      35.014  12.638  14.334  0.00  0.00     0.025 C 
ENDBRANCH  27  29
ENDBRANCH   4  27
TORSDOF 8
ENDMDL
MODEL 6
REMARK VINA RESULT:      -6.6      5.899      9.856
REMARK  8 active torsions:
REMARK  status: ('A' for Active; 'I' for Inactive)
REMARK    1  A    between atoms: C_4  and  N_25 
REMARK    2  A    between atoms: C_13  and  N_9 
REMARK    3  A    between atoms: C_14  and  O_24 
REMARK    4  A    between atoms: C_15  and  O_23 
REMARK    5  A    between atoms: C_16  and  C_18 
REMARK    6  A    between atoms: C_18  and  O_19 
REMARK    7  A    between atoms: O_19  and  N_20 
REMARK    8  A    between atoms: N_25  and  C_26 
ROOT
HETATM    1  C   UNK N   1      28.272  18.251   9.099  0.00  0.00     0.183 A 
HETATM    2  N   UNK N   1      29.511  17.656   9.062  0.00  0.00    -0.337 N 
ATOM      3  HN  UNK N   1      30.025  17.517   9.932  1.00  0.00     0.168 HD
HETATM    4  C   UNK N   1      30.068  17.248   7.882  0.00  0.00     0.133 A 
HETATM    5  C   UNK N   1      29.330  17.466   6.717  0.00  0.00     0.122 A 
HETATM    6  C   UNK N   1      28.116  18.048   6.777  0.00  0.00     0.142 A 
HETATM    7  N   UNK N   1      27.562  18.454   7.945  0.00  0.00    -0.336 N 
ATOM      8  HN  UNK N   1      26.644  18.897   7.965  1.00  0.00     0.168 HD
HETATM    9  N   UNK N   1      27.625  18.177   5.534  0.00  0.00    -0.297 N 
HETATM   10  C   UNK N   1      28.581  17.660   4.722  0.00  0.00     0.188 A 
HETATM   11  N   UNK N   1      29.644  17.204   5.435  0.00  0.00    -0.346 N 
ATOM     12  HN  UNK N   1      30.490  16.762   5.077  1.00  0.00     0.167 HD
ENDROOT
BRANCH   9  13
HETATM   13  C   UNK N   1      26.382  18.801   5.083  0.00  0.00     0.262 C 
HETATM   14  C   UNK N   1      26.609  19.919   4.103  0.00  0.00     0.198 C 
HETATM   15  C   UNK N   1      25.197  20.106   3.686  0.00  0.00     0.182 C 
HETATM   16  C   UNK N   1      24.720  18.666   3.591  0.00  0.00     0.182 C 
HETATM   17  O   UNK N   1      25.528  17.883   4.446  0.00  0.00    -0.353 OA
BRANCH  14  18
HETATM   18  O   UNK N   1      27.080  21.063   4.749  0.00  0.00    -0.388 OA
HETATM   19  H   UNK N   1      27.016  21.287   5.690  0.00  0.00     0.210 HD
ENDBRANCH  14  18
BRANCH  15  20
HETATM   20  O   UNK N   1      25.111  20.764   2.459  0.00  0.00    -0.390 OA
HETATM   21  H   UNK N   1      25.705  20.981   1.724  0.00  0.00     0.210 HD
ENDBRANCH  15  20
BRANCH  16  22
HETATM   22  C   UNK N   1      23.276  18.553   4.055  0.00  0.00     0.242 C 
BRANCH  22  23
HETATM   23  O   UNK N   1      22.582  19.716   3.816  0.00  0.00    -0.219 OA
BRANCH  23  24
HETATM   24  N   UNK N   1      21.280  19.711   3.599  0.00  0.00     0.005 N 
HETATM   25  O   UNK N   1      20.693  18.675   3.551  0.00  0.00    -0.511 OA
HETATM   26  O   UNK N   1      20.623  20.841   3.424  0.00  0.00    -0.511 OA
ENDBRANCH  23  24
ENDBRANCH  22  23
ENDBRANCH  16  22
ENDBRANCH   9  13
BRANCH   4  27
HETATM   27  N   UNK N   1      31.361  16.652   7.872  0.00  0.00    -0.370 N 
HETATM   28  H   UNK N   1      31.488  15.810   7.381  0.00  0.00     0.161 HD
BRANCH  27  29
HETATM   29  C   UNK N   1      32.493  17.236   8.553  0.00  0.00     0.083 C 
HETATM   30  C   UNK N   1      33.465  16.192   9.024  0.00  0.00     0.025 C 
HETATM   31  C   UNK N   1      34.751  16.973   9.225  0.00  0.00     0.002 C 
HETATM   32  C   UNK N   1      34.660  18.191   8.314  0.00  0.00     0.002 C 
HETATM   33  C   UNK N   1      33.316  18.095   7.622  0.00  0.00     0.025 C 
ENDBRANCH  27  29
ENDBRANCH   4  27
TORSDOF 8
ENDMDL
MODEL 7
REMARK VINA RESULT:      -6.5      2.058      3.305
REMARK  8 active torsions:
REMARK  status: ('A' for Active; 'I' for Inactive)
REMARK    1  A    between atoms: C_4  and  N_25 
REMARK    2  A    between atoms: C_13  and  N_9 
REMARK    3  A    between atoms: C_14  and  O_24 
REMARK    4  A    between atoms: C_15  and  O_23 
REMARK    5  A    between atoms: C_16  and  C_18 
REMARK    6  A    between atoms: C_18  and  O_19 
REMARK    7  A    between atoms: O_19  and  N_20 
REMARK    8  A    between atoms: N_25  and  C_26 
ROOT
HETATM    1  C   UNK N   1      28.522  15.482   3.872  0.00  0.00     0.183 A 
HETATM    2  N   UNK N   1      27.304  16.119   3.908  0.00  0.00    -0.337 N 
ATOM      3  HN  UNK N   1      26.626  15.945   3.166  1.00  0.00     0.168 HD
HETATM    4  C   UNK N   1      26.984  16.982   4.920  0.00  0.00     0.133 A 
HETATM    5  C   UNK N   1      27.946  17.193   5.909  0.00  0.00     0.122 A 
HETATM    6  C   UNK N   1      29.132  16.555   5.855  0.00  0.00     0.142 A 
HETATM    7  N   UNK N   1      29.452  15.700   4.853  0.00  0.00    -0.336 N 
ATOM      8  HN  UNK N   1      30.358  15.233   4.831  1.00  0.00     0.168 HD
HETATM    9  N   UNK N   1      29.892  16.945   6.890  0.00  0.00    -0.297 N 
HETATM   10  C   UNK N   1      29.132  17.841   7.568  0.00  0.00     0.188 A 
HETATM   11  N   UNK N   1      27.917  18.004   6.983  0.00  0.00    -0.346 N 
ATOM     12  HN  UNK N   1      27.153  18.606   7.290  1.00  0.00     0.167 HD
ENDROOT
BRANCH   9  13
HETATM   13  C   UNK N   1      31.270  16.586   7.223  0.00  0.00     0.262 C 
HETATM   14  C   UNK N   1      32.286  17.445   6.523  0.00  0.00     0.198 C 
HETATM   15  C   UNK N   1      33.481  16.994   7.278  0.00  0.00     0.182 C 
HETATM   16  C   UNK N   1      32.927  16.909   8.691  0.00  0.00     0.182 C 
HETATM   17  O   UNK N   1      31.532  16.704   8.599  0.00  0.00    -0.353 OA
BRANCH  14  18
HETATM   18  O   UNK N   1      32.400  17.091   5.177  0.00  0.00    -0.388 OA
HETATM   19  H   UNK N   1      32.539  16.207   4.801  0.00  0.00     0.210 HD
ENDBRANCH  14  18
BRANCH  15  20
HETATM   20  O   UNK N   1      34.523  17.917   7.183  0.00  0.00    -0.390 OA
HETATM   21  H   UNK N   1      34.926  18.467   6.493  0.00  0.00     0.210 HD
ENDBRANCH  15  20
BRANCH  16  22
HETATM   22  C   UNK N   1      33.540  15.731   9.432  0.00  0.00     0.242 C 
BRANCH  22  23
HETATM   23  O   UNK N   1      34.914  15.791   9.416  0.00  0.00    -0.219 OA
BRANCH  23  24
HETATM   24  N   UNK N   1      35.583  16.530  10.280  0.00  0.00     0.005 N 
HETATM   25  O   UNK N   1      36.127  16.011  11.206  0.00  0.00    -0.511 OA
HETATM   26  O   UNK N   1      35.649  17.839  10.138  0.00  0.00    -0.511 OA
ENDBRANCH  23  24
ENDBRANCH  22  23
ENDBRANCH  16  22
ENDBRANCH   9  13
BRANCH   4  27
HETATM   27  N   UNK N   1      25.723  17.642   4.921  0.00  0.00    -0.370 N 
HETATM   28  H   UNK N   1      25.139  17.543   5.706  0.00  0.00     0.161 HD
BRANCH  27  29
HETATM   29  C   UNK N   1      25.267  18.453   3.816  0.00  0.00     0.083 C 
HETATM   30  C   UNK N   1      23.953  19.119   4.113  0.00  0.00     0.025 C 
HETATM   31  C   UNK N   1      23.907  20.266   3.119  0.00  0.00     0.002 C 
HETATM   32  C   UNK N   1      25.355  20.589   2.770  0.00  0.00     0.002 C 
HETATM   33  C   UNK N   1      26.202  19.611   3.556  0.00  0.00     0.025 C 
ENDBRANCH  27  29
ENDBRANCH   4  27
TORSDOF 8
ENDMDL
MODEL 8
REMARK VINA RESULT:      -6.5      5.068      9.420
REMARK  8 active torsions:
REMARK  status: ('A' for Active; 'I' for Inactive)
REMARK    1  A    between atoms: C_4  and  N_25 
REMARK    2  A    between atoms: C_13  and  N_9 
REMARK    3  A    between atoms: C_14  and  O_24 
REMARK    4  A    between atoms: C_15  and  O_23 
REMARK    5  A    between atoms: C_16  and  C_18 
REMARK    6  A    between atoms: C_18  and  O_19 
REMARK    7  A    between atoms: O_19  and  N_20 
REMARK    8  A    between atoms: N_25  and  C_26 
ROOT
HETATM    1  C   UNK N   1      34.562  11.579  11.439  0.00  0.00     0.183 A 
HETATM    2  N   UNK N   1      35.119  11.717  12.689  0.00  0.00    -0.337 N 
ATOM      3  HN  UNK N   1      35.156  10.911  13.312  1.00  0.00     0.168 HD
HETATM    4  C   UNK N   1      35.624  12.915  13.112  0.00  0.00     0.133 A 
HETATM    5  C   UNK N   1      35.545  13.992  12.227  0.00  0.00     0.122 A 
HETATM    6  C   UNK N   1      34.998  13.832  11.006  0.00  0.00     0.142 A 
HETATM    7  N   UNK N   1      34.497  12.646  10.583  0.00  0.00    -0.336 N 
ATOM      8  HN  UNK N   1      34.083  12.551   9.656  1.00  0.00     0.168 HD
HETATM    9  N   UNK N   1      35.008  15.009  10.359  0.00  0.00    -0.297 N 
HETATM   10  C   UNK N   1      35.572  15.884  11.229  0.00  0.00     0.188 A 
HETATM   11  N   UNK N   1      35.922  15.273  12.390  0.00  0.00    -0.346 N 
ATOM     12  HN  UNK N   1      36.371  15.693  13.204  1.00  0.00     0.167 HD
ENDROOT
BRANCH   9  13
HETATM   13  C   UNK N   1      34.470  15.355   9.044  0.00  0.00     0.262 C 
HETATM   14  C   UNK N   1      34.525  16.830   8.757  0.00  0.00     0.198 C 
HETATM   15  C   UNK N   1      34.176  16.765   7.317  0.00  0.00     0.182 C 
HETATM   16  C   UNK N   1      34.969  15.547   6.872  0.00  0.00     0.182 C 
HETATM   17  O   UNK N   1      35.170  14.722   8.001  0.00  0.00    -0.353 OA
BRANCH  14  18
HETATM   18  O   UNK N   1      33.536  17.515   9.466  0.00  0.00    -0.388 OA
HETATM   19  H   UNK N   1      32.663  17.798   9.152  0.00  0.00     0.210 HD
ENDBRANCH  14  18
BRANCH  15  20
HETATM   20  O   UNK N   1      34.574  17.920   6.643  0.00  0.00    -0.390 OA
HETATM   21  H   UNK N   1      35.292  18.568   6.704  0.00  0.00     0.210 HD
ENDBRANCH  15  20
BRANCH  16  22
HETATM   22  C   UNK N   1      34.192  14.758   5.830  0.00  0.00     0.242 C 
BRANCH  22  23
HETATM   23  O   UNK N   1      34.519  15.155   4.555  0.00  0.00    -0.219 OA
BRANCH  23  24
HETATM   24  N   UNK N   1      33.646  15.765   3.776  0.00  0.00     0.005 N 
HETATM   25  O   UNK N   1      32.966  16.637   4.220  0.00  0.00    -0.511 OA
HETATM   26  O   UNK N   1      33.511  15.412   2.513  0.00  0.00    -0.511 OA
ENDBRANCH  23  24
ENDBRANCH  22  23
ENDBRANCH  16  22
ENDBRANCH   9  13
BRANCH   4  27
HETATM   27  N   UNK N   1      36.177  13.034  14.418  0.00  0.00    -0.370 N 
HETATM   28  H   UNK N   1      37.099  13.363  14.512  0.00  0.00     0.161 HD
BRANCH  27  29
HETATM   29  C   UNK N   1      35.439  12.690  15.611  0.00  0.00     0.083 C 
HETATM   30  C   UNK N   1      35.963  11.438  16.256  0.00  0.00     0.025 C 
HETATM   31  C   UNK N   1      35.445  11.532  17.680  0.00  0.00     0.002 C 
HETATM   32  C   UNK N   1      35.226  13.014  17.960  0.00  0.00     0.002 C 
HETATM   33  C   UNK N   1      35.604  13.740  16.686  0.00  0.00     0.025 C 
ENDBRANCH  27  29
ENDBRANCH   4  27
TORSDOF 8
ENDMDL
MODEL 9
REMARK VINA RESULT:      -6.5      6.510     10.545
REMARK  8 active torsions:
REMARK  status: ('A' for Active; 'I' for Inactive)
REMARK    1  A    between atoms: C_4  and  N_25 
REMARK    2  A    between atoms: C_13  and  N_9 
REMARK    3  A    between atoms: C_14  and  O_24 
REMARK    4  A    between atoms: C_15  and  O_23 
REMARK    5  A    between atoms: C_16  and  C_18 
REMARK    6  A    between atoms: C_18  and  O_19 
REMARK    7  A    between atoms: O_19  and  N_20 
REMARK    8  A    between atoms: N_25  and  C_26 
ROOT
HETATM    1  C   UNK N   1      27.815  19.357   7.480  0.00  0.00     0.183 A 
HETATM    2  N   UNK N   1      28.977  18.645   7.666  0.00  0.00    -0.337 N 
ATOM      3  HN  UNK N   1      29.598  18.894   8.436  1.00  0.00     0.168 HD
HETATM    4  C   UNK N   1      29.316  17.611   6.838  0.00  0.00     0.133 A 
HETATM    5  C   UNK N   1      28.438  17.313   5.795  0.00  0.00     0.122 A 
HETATM    6  C   UNK N   1      27.303  18.022   5.634  0.00  0.00     0.142 A 
HETATM    7  N   UNK N   1      26.965  19.047   6.452  0.00  0.00    -0.336 N 
ATOM      8  HN  UNK N   1      26.103  19.572   6.308  1.00  0.00     0.168 HD
HETATM    9  N   UNK N   1      26.649  17.570   4.552  0.00  0.00    -0.297 N 
HETATM   10  C   UNK N   1      27.425  16.572   4.062  0.00  0.00     0.188 A 
HETATM   11  N   UNK N   1      28.536  16.388   4.822  0.00  0.00    -0.346 N 
ATOM     12  HN  UNK N   1      29.278  15.701   4.686  1.00  0.00     0.167 HD
ENDROOT
BRANCH   9  13
HETATM   13  C   UNK N   1      25.414  18.057   3.938  0.00  0.00     0.262 C 
HETATM   14  C   UNK N   1      24.177  17.509   4.594  0.00  0.00     0.198 C 
HETATM   15  C   UNK N   1      23.190  18.390   3.922  0.00  0.00     0.182 C 
HETATM   16  C   UNK N   1      23.921  19.723   3.937  0.00  0.00     0.182 C 
HETATM   17  O   UNK N   1      25.307  19.458   3.999  0.00  0.00    -0.353 OA
BRANCH  14  18
HETATM   18  O   UNK N   1      23.965  16.177   4.230  0.00  0.00    -0.388 OA
HETATM   19  H   UNK N   1      24.174  15.748   3.386  0.00  0.00     0.210 HD
ENDBRANCH  14  18
BRANCH  15  20
HETATM   20  O   UNK N   1      21.991  18.447   4.633  0.00  0.00    -0.390 OA
HETATM   21  H   UNK N   1      21.076  18.719   4.464  0.00  0.00     0.210 HD
ENDBRANCH  15  20
BRANCH  16  22
HETATM   22  C   UNK N   1      23.635  20.500   2.662  0.00  0.00     0.242 C 
BRANCH  22  23
HETATM   23  O   UNK N   1      22.350  20.990   2.652  0.00  0.00    -0.219 OA
BRANCH  23  24
HETATM   24  N   UNK N   1      21.430  20.500   1.843  0.00  0.00     0.005 N 
HETATM   25  O   UNK N   1      20.566  19.806   2.283  0.00  0.00    -0.511 OA
HETATM   26  O   UNK N   1      21.462  20.760   0.551  0.00  0.00    -0.511 OA
ENDBRANCH  23  24
ENDBRANCH  22  23
ENDBRANCH  16  22
ENDBRANCH   9  13
BRANCH   4  27
HETATM   27  N   UNK N   1      30.534  16.905   7.043  0.00  0.00    -0.370 N 
HETATM   28  H   UNK N   1      30.494  15.947   7.260  0.00  0.00     0.161 HD
BRANCH  27  29
HETATM   29  C   UNK N   1      31.829  17.538   6.943  0.00  0.00     0.083 C 
HETATM   30  C   UNK N   1      32.420  17.824   8.295  0.00  0.00     0.025 C 
HETATM   31  C   UNK N   1      33.902  17.986   8.004  0.00  0.00     0.002 C 
HETATM   32  C   UNK N   1      34.175  17.205   6.724  0.00  0.00     0.002 C 
HETATM   33  C   UNK N   1      32.844  16.625   6.296  0.00  0.00     0.025 C 
ENDBRANCH  27  29
ENDBRANCH   4  27
TORSDOF 8
ENDMDL
