MODEL 1
REMARK VINA RESULT:      -8.4      0.000      0.000
REMARK  8 active torsions:
REMARK  status: ('A' for Active; 'I' for Inactive)
REMARK    1  A    between atoms: C_2  and  O_4 
REMARK    2  A    between atoms: O_4  and  C_5 
REMARK    3  A    between atoms: C_7  and  O_29 
REMARK    4  A    between atoms: C_11  and  N_17 
REMARK    5  A    between atoms: N_17  and  C_18 
REMARK    6  A    between atoms: O_29  and  C_30 
REMARK    7  A    between atoms: C_30  and  C_31 
REMARK    8  A    between atoms: C_31  and  N_32 
REMARK       I    between atoms: N_35  and  C_38 
ROOT
HETATM    1  C   UNK N   1      31.049  17.499   7.146  0.00  0.00     0.088 A 
HETATM    2  C   UNK N   1      32.183  17.666   7.970  0.00  0.00     0.074 A 
HETATM    3  C   UNK N   1      33.486  17.608   7.432  0.00  0.00     0.073 A 
HETATM    4  C   UNK N   1      33.651  17.389   6.070  0.00  0.00     0.067 A 
HETATM    5  C   UNK N   1      32.552  17.231   5.235  0.00  0.00     0.052 A 
HETATM    6  C   UNK N   1      31.236  17.272   5.757  0.00  0.00     0.068 A 
HETATM    7  C   UNK N   1      30.161  17.116   4.841  0.00  0.00     0.122 A 
HETATM    8  N   UNK N   1      30.443  16.963   3.525  0.00  0.00    -0.338 N 
ATOM      9  HN  UNK N   1      29.672  16.868   2.865  1.00  0.00     0.168 HD
HETATM   10  C   UNK N   1      31.713  16.931   3.055  0.00  0.00     0.182 A 
HETATM   11  N   UNK N   1      32.756  17.060   3.907  0.00  0.00    -0.351 N 
ATOM     12  HN  UNK N   1      33.708  17.028   3.544  1.00  0.00     0.166 HD
ENDROOT
BRANCH   7  13
HETATM   13  N   UNK N   1      28.806  17.166   5.295  0.00  0.00    -0.338 N 
HETATM   14  H   UNK N   1      28.598  16.545   6.030  0.00  0.00     0.167 HD
BRANCH  13  15
HETATM   15  C   UNK N   1      27.699  17.967   4.861  0.00  0.00     0.095 A 
HETATM   16  C   UNK N   1      26.862  17.464   3.833  0.00  0.00     0.079 A 
HETATM   17  C   UNK N   1      25.746  18.212   3.402  0.00  0.00     0.116 A 
HETATM   18 Cl   UNK N   1      27.171  15.909   3.082  0.00  0.00    -0.080 Cl
HETATM   19  N   UNK N   1      25.466  19.423   3.960  0.00  0.00    -0.343 N 
HETATM   20  C   UNK N   1      26.282  19.899   4.931  0.00  0.00     0.181 A 
ATOM     21  HN  UNK N   1      24.656  19.962   3.655  1.00  0.00     0.167 HD
HETATM   22  C   UNK N   1      27.355  19.234   5.380  0.00  0.00     0.151 A 
HETATM   23  O   UNK N   1      26.160  21.057   5.569  0.00  0.00    -0.307 OA
HETATM   24  O   UNK N   1      27.941  19.982   6.315  0.00  0.00    -0.319 OA
HETATM   25  C   UNK N   1      27.212  21.163   6.480  0.00  0.00     0.354 A 
ENDBRANCH  13  15
ENDBRANCH   7  13
BRANCH   1  26
HETATM   26  O   UNK N   1      29.779  17.573   7.640  0.00  0.00    -0.345 OA
BRANCH  26  27
HETATM   27  C   UNK N   1      29.305  17.495   8.944  0.00  0.00     0.120 C 
HETATM   28  C   UNK N   1      29.616  18.754   9.726  0.00  0.00     0.040 C 
HETATM   29  C   UNK N   1      27.862  17.059   9.120  0.00  0.00     0.040 C 
ENDBRANCH  26  27
ENDBRANCH   1  26
BRANCH   3  30
HETATM   30  O   UNK N   1      34.596  17.779   8.190  0.00  0.00    -0.349 OA
BRANCH  30  31
HETATM   31  C   UNK N   1      34.844  17.089   9.351  0.00  0.00     0.206 C 
BRANCH  31  32
HETATM   32  C   UNK N   1      35.141  15.618   9.046  0.00  0.00     0.299 C 
BRANCH  32  33
HETATM   33  N   UNK N   1      35.383  14.826  10.257  0.00  0.00     0.093 N 
HETATM   34  C   UNK N   1      36.455  13.874  10.011  0.00  0.00     0.292 C 
HETATM   35  C   UNK N   1      36.651  12.960  11.218  0.00  0.00     0.156 C 
HETATM   36  N   UNK N   1      36.503  13.627  12.510  0.00  0.00    -0.349 N 
HETATM   37  C   UNK N   1      35.992  14.988  12.634  0.00  0.00     0.156 C 
HETATM   38  C   UNK N   1      36.805  12.935  13.647  0.00  0.00     0.215 C 
HETATM   39  C   UNK N   1      35.831  15.721  11.312  0.00  0.00     0.292 C 
HETATM   40  O   UNK N   1      37.207  11.783  13.580  0.00  0.00    -0.274 OA
HETATM   41  C   UNK N   1      36.659  13.565  14.999  0.00  0.00     0.117 C 
ENDBRANCH  32  33
ENDBRANCH  31  32
ENDBRANCH  30  31
ENDBRANCH   3  30
TORSDOF 8
ENDMDL
MODEL 2
REMARK VINA RESULT:      -8.2      3.499      5.746
REMARK  8 active torsions:
REMARK  status: ('A' for Active; 'I' for Inactive)
REMARK    1  A    between atoms: C_2  and  O_4 
REMARK    2  A    between atoms: O_4  and  C_5 
REMARK    3  A    between atoms: C_7  and  O_29 
REMARK    4  A    between atoms: C_11  and  N_17 
REMARK    5  A    between atoms: N_17  and  C_18 
REMARK    6  A    between atoms: O_29  and  C_30 
REMARK    7  A    between atoms: C_30  and  C_31 
REMARK    8  A    between atoms: C_31  and  N_32 
REMARK       I    between atoms: N_35  and  C_38 
ROOT
HETATM    1  C   UNK N   1      26.235  16.926   5.226  0.00  0.00     0.088 A 
HETATM    2  C   UNK N   1      27.564  16.686   5.640  0.00  0.00     0.074 A 
HETATM    3  C   UNK N   1      28.602  17.580   5.302  0.00  0.00     0.073 A 
HETATM    4  C   UNK N   1      28.307  18.715   4.557  0.00  0.00     0.067 A 
HETATM    5  C   UNK N   1      27.007  18.980   4.145  0.00  0.00     0.052 A 
HETATM    6  C   UNK N   1      25.953  18.088   4.462  0.00  0.00     0.068 A 
HETATM    7  C   UNK N   1      24.647  18.432   4.020  0.00  0.00     0.122 A 
HETATM    8  N   UNK N   1      24.472  19.594   3.346  0.00  0.00    -0.338 N 
ATOM      9  HN  UNK N   1      23.532  19.849   3.043  1.00  0.00     0.168 HD
HETATM   10  C   UNK N   1      25.499  20.428   3.061  0.00  0.00     0.182 A 
HETATM   11  N   UNK N   1      26.756  20.117   3.455  0.00  0.00    -0.351 N 
ATOM     12  HN  UNK N   1      27.525  20.749   3.229  1.00  0.00     0.166 HD
ENDROOT
BRANCH   7  13
HETATM   13  N   UNK N   1      23.533  17.588   4.321  0.00  0.00    -0.338 N 
HETATM   14  H   UNK N   1      23.670  16.987   5.088  0.00  0.00     0.167 HD
BRANCH  13  15
HETATM   15  C   UNK N   1      22.249  17.469   3.694  0.00  0.00     0.095 A 
HETATM   16  C   UNK N   1      21.824  16.188   3.258  0.00  0.00     0.079 A 
HETATM   17  C   UNK N   1      20.555  16.029   2.664  0.00  0.00     0.116 A 
HETATM   18 Cl   UNK N   1      22.843  14.774   3.452  0.00  0.00    -0.080 Cl
HETATM   19  N   UNK N   1      19.729  17.101   2.497  0.00  0.00    -0.343 N 
HETATM   20  C   UNK N   1      20.152  18.321   2.904  0.00  0.00     0.181 A 
ATOM     21  HN  UNK N   1      18.808  16.986   2.074  1.00  0.00     0.167 HD
HETATM   22  C   UNK N   1      21.347  18.532   3.473  0.00  0.00     0.151 A 
HETATM   23  O   UNK N   1      19.482  19.463   2.807  0.00  0.00    -0.307 OA
HETATM   24  O   UNK N   1      21.452  19.834   3.737  0.00  0.00    -0.319 OA
HETATM   25  C   UNK N   1      20.280  20.480   3.333  0.00  0.00     0.354 A 
ENDBRANCH  13  15
ENDBRANCH   7  13
BRANCH   1  26
HETATM   26  O   UNK N   1      25.212  16.087   5.560  0.00  0.00    -0.345 OA
BRANCH  26  27
HETATM   27  C   UNK N   1      25.205  14.909   6.297  0.00  0.00     0.120 C 
HETATM   28  C   UNK N   1      23.874  14.690   6.984  0.00  0.00     0.040 C 
HETATM   29  C   UNK N   1      25.691  13.659   5.587  0.00  0.00     0.040 C 
ENDBRANCH  26  27
ENDBRANCH   1  26
BRANCH   3  30
HETATM   30  O   UNK N   1      29.885  17.389   5.694  0.00  0.00    -0.349 OA
BRANCH  30  31
HETATM   31  C   UNK N   1      30.246  16.949   6.944  0.00  0.00     0.206 C 
BRANCH  31  32
HETATM   32  C   UNK N   1      31.168  15.731   6.836  0.00  0.00     0.299 C 
BRANCH  32  33
HETATM   33  N   UNK N   1      32.379  15.863   7.653  0.00  0.00     0.093 N 
HETATM   34  C   UNK N   1      32.579  17.260   8.006  0.00  0.00     0.292 C 
HETATM   35  C   UNK N   1      33.894  17.443   8.759  0.00  0.00     0.156 C 
HETATM   36  N   UNK N   1      34.205  16.366   9.697  0.00  0.00    -0.349 N 
HETATM   37  C   UNK N   1      33.444  15.123   9.742  0.00  0.00     0.156 C 
HETATM   38  C   UNK N   1      35.280  16.506  10.527  0.00  0.00     0.215 C 
HETATM   39  C   UNK N   1      32.184  15.127   8.892  0.00  0.00     0.292 C 
HETATM   40  O   UNK N   1      35.957  17.522  10.494  0.00  0.00    -0.274 OA
HETATM   41  C   UNK N   1      35.653  15.428  11.500  0.00  0.00     0.117 C 
ENDBRANCH  32  33
ENDBRANCH  31  32
ENDBRANCH  30  31
ENDBRANCH   3  30
TORSDOF 8
ENDMDL
MODEL 3
REMARK VINA RESULT:      -8.2      2.831      4.852
REMARK  8 active torsions:
REMARK  status: ('A' for Active; 'I' for Inactive)
REMARK    1  A    between atoms: C_2  and  O_4 
REMARK    2  A    between atoms: O_4  and  C_5 
REMARK    3  A    between atoms: C_7  and  O_29 
REMARK    4  A    between atoms: C_11  and  N_17 
REMARK    5  A    between atoms: N_17  and  C_18 
REMARK    6  A    between atoms: O_29  and  C_30 
REMARK    7  A    between atoms: C_30  and  C_31 
REMARK    8  A    between atoms: C_31  and  N_32 
REMARK       I    between atoms: N_35  and  C_38 
ROOT
HETATM    1  C   UNK N   1      28.219  17.779   4.568  0.00  0.00     0.088 A 
HETATM    2  C   UNK N   1      29.628  17.708   4.631  0.00  0.00     0.074 A 
HETATM    3  C   UNK N   1      30.344  16.789   3.835  0.00  0.00     0.073 A 
HETATM    4  C   UNK N   1      29.650  15.948   2.974  0.00  0.00     0.067 A 
HETATM    5  C   UNK N   1      28.264  16.004   2.886  0.00  0.00     0.052 A 
HETATM    6  C   UNK N   1      27.526  16.910   3.685  0.00  0.00     0.068 A 
HETATM    7  C   UNK N   1      26.114  16.921   3.531  0.00  0.00     0.122 A 
HETATM    8  N   UNK N   1      25.551  16.093   2.619  0.00  0.00    -0.338 N 
ATOM      9  HN  UNK N   1      24.539  16.112   2.495  1.00  0.00     0.168 HD
HETATM   10  C   UNK N   1      26.285  15.239   1.866  0.00  0.00     0.182 A 
HETATM   11  N   UNK N   1      27.630  15.195   2.004  0.00  0.00    -0.351 N 
ATOM     12  HN  UNK N   1      28.173  14.545   1.437  1.00  0.00     0.166 HD
ENDROOT
BRANCH   7  13
HETATM   13  N   UNK N   1      25.306  17.823   4.292  0.00  0.00    -0.338 N 
HETATM   14  H   UNK N   1      25.605  17.955   5.220  0.00  0.00     0.167 HD
BRANCH  13  15
HETATM   15  C   UNK N   1      24.135  18.567   3.932  0.00  0.00     0.095 A 
HETATM   16  C   UNK N   1      24.300  19.811   3.272  0.00  0.00     0.079 A 
HETATM   17  C   UNK N   1      23.169  20.557   2.877  0.00  0.00     0.116 A 
HETATM   18 Cl   UNK N   1      25.893  20.452   2.916  0.00  0.00    -0.080 Cl
HETATM   19  N   UNK N   1      21.912  20.094   3.130  0.00  0.00    -0.343 N 
HETATM   20  C   UNK N   1      21.768  18.912   3.774  0.00  0.00     0.181 A 
ATOM     21  HN  UNK N   1      21.093  20.628   2.838  1.00  0.00     0.167 HD
HETATM   22  C   UNK N   1      22.805  18.162   4.173  0.00  0.00     0.151 A 
HETATM   23  O   UNK N   1      20.623  18.326   4.105  0.00  0.00    -0.307 OA
HETATM   24  O   UNK N   1      22.319  17.081   4.782  0.00  0.00    -0.319 OA
HETATM   25  C   UNK N   1      20.922  17.132   4.763  0.00  0.00     0.354 A 
ENDBRANCH  13  15
ENDBRANCH   7  13
BRANCH   1  26
HETATM   26  O   UNK N   1      27.507  18.675   5.311  0.00  0.00    -0.345 OA
BRANCH  26  27
HETATM   27  C   UNK N   1      27.920  19.594   6.269  0.00  0.00     0.120 C 
HETATM   28  C   UNK N   1      27.119  20.876   6.192  0.00  0.00     0.040 C 
HETATM   29  C   UNK N   1      28.042  19.085   7.693  0.00  0.00     0.040 C 
ENDBRANCH  26  27
ENDBRANCH   1  26
BRANCH   3  30
HETATM   30  O   UNK N   1      31.697  16.703   3.859  0.00  0.00    -0.349 OA
BRANCH  30  31
HETATM   31  C   UNK N   1      32.476  17.182   4.883  0.00  0.00     0.206 C 
BRANCH  31  32
HETATM   32  C   UNK N   1      33.768  16.368   4.999  0.00  0.00     0.299 C 
BRANCH  32  33
HETATM   33  N   UNK N   1      34.286  16.319   6.369  0.00  0.00     0.093 N 
HETATM   34  C   UNK N   1      33.939  17.549   7.066  0.00  0.00     0.292 C 
HETATM   35  C   UNK N   1      34.564  17.574   8.458  0.00  0.00     0.156 C 
HETATM   36  N   UNK N   1      34.563  16.282   9.143  0.00  0.00    -0.349 N 
HETATM   37  C   UNK N   1      34.205  15.040   8.468  0.00  0.00     0.156 C 
HETATM   38  C   UNK N   1      34.961  16.229  10.447  0.00  0.00     0.215 C 
HETATM   39  C   UNK N   1      33.634  15.225   7.072  0.00  0.00     0.292 C 
HETATM   40  O   UNK N   1      35.296  17.247  11.033  0.00  0.00    -0.274 OA
HETATM   41  C   UNK N   1      34.992  14.929  11.194  0.00  0.00     0.117 C 
ENDBRANCH  32  33
ENDBRANCH  31  32
ENDBRANCH  30  31
ENDBRANCH   3  30
TORSDOF 8
ENDMDL
MODEL 4
REMARK VINA RESULT:      -8.2      3.385     11.339
REMARK  8 active torsions:
REMARK  status: ('A' for Active; 'I' for Inactive)
REMARK    1  A    between atoms: C_2  and  O_4 
REMARK    2  A    between atoms: O_4  and  C_5 
REMARK    3  A    between atoms: C_7  and  O_29 
REMARK    4  A    between atoms: C_11  and  N_17 
REMARK    5  A    between atoms: N_17  and  C_18 
REMARK    6  A    between atoms: O_29  and  C_30 
REMARK    7  A    between atoms: C_30  and  C_31 
REMARK    8  A    between atoms: C_31  and  N_32 
REMARK       I    between atoms: N_35  and  C_38 
ROOT
HETATM    1  C   UNK N   1      30.008  17.596   5.945  0.00  0.00     0.088 A 
HETATM    2  C   UNK N   1      29.215  18.407   5.103  0.00  0.00     0.074 A 
HETATM    3  C   UNK N   1      28.178  19.205   5.631  0.00  0.00     0.073 A 
HETATM    4  C   UNK N   1      27.940  19.194   7.000  0.00  0.00     0.067 A 
HETATM    5  C   UNK N   1      28.711  18.412   7.852  0.00  0.00     0.052 A 
HETATM    6  C   UNK N   1      29.748  17.595   7.340  0.00  0.00     0.068 A 
HETATM    7  C   UNK N   1      30.503  16.833   8.272  0.00  0.00     0.122 A 
HETATM    8  N   UNK N   1      30.215  16.945   9.591  0.00  0.00    -0.338 N 
ATOM      9  HN  UNK N   1      30.767  16.412  10.262  1.00  0.00     0.168 HD
HETATM   10  C   UNK N   1      29.218  17.739  10.050  0.00  0.00     0.182 A 
HETATM   11  N   UNK N   1      28.471  18.462   9.183  0.00  0.00    -0.351 N 
ATOM     12  HN  UNK N   1      27.719  19.052   9.538  1.00  0.00     0.166 HD
ENDROOT
BRANCH   7  13
HETATM   13  N   UNK N   1      31.578  16.001   7.830  0.00  0.00    -0.338 N 
HETATM   14  H   UNK N   1      31.438  15.587   6.948  0.00  0.00     0.167 HD
BRANCH  13  15
HETATM   15  C   UNK N   1      32.824  15.665   8.453  0.00  0.00     0.095 A 
HETATM   16  C   UNK N   1      33.744  16.708   8.731  0.00  0.00     0.079 A 
HETATM   17  C   UNK N   1      34.969  16.419   9.369  0.00  0.00     0.116 A 
HETATM   18 Cl   UNK N   1      33.391  18.374   8.308  0.00  0.00    -0.080 Cl
HETATM   19  N   UNK N   1      35.282  15.139   9.719  0.00  0.00    -0.343 N 
HETATM   20  C   UNK N   1      34.401  14.151   9.435  0.00  0.00     0.181 A 
ATOM     21  HN  UNK N   1      36.163  14.929  10.187  1.00  0.00     0.167 HD
HETATM   22  C   UNK N   1      33.226  14.366   8.829  0.00  0.00     0.151 A 
HETATM   23  O   UNK N   1      34.553  12.857   9.695  0.00  0.00    -0.307 OA
HETATM   24  O   UNK N   1      32.615  13.190   8.687  0.00  0.00    -0.319 OA
HETATM   25  C   UNK N   1      33.422  12.185   9.231  0.00  0.00     0.354 A 
ENDBRANCH  13  15
ENDBRANCH   7  13
BRANCH   1  26
HETATM   26  O   UNK N   1      31.031  16.834   5.460  0.00  0.00    -0.345 OA
BRANCH  26  27
HETATM   27  C   UNK N   1      31.940  17.077   4.438  0.00  0.00     0.120 C 
HETATM   28  C   UNK N   1      33.367  16.882   4.905  0.00  0.00     0.040 C 
HETATM   29  C   UNK N   1      31.677  16.386   3.113  0.00  0.00     0.040 C 
ENDBRANCH  26  27
ENDBRANCH   1  26
BRANCH   3  30
HETATM   30  O   UNK N   1      27.408  20.006   4.855  0.00  0.00    -0.349 OA
BRANCH  30  31
HETATM   31  C   UNK N   1      26.619  19.548   3.828  0.00  0.00     0.206 C 
BRANCH  31  32
HETATM   32  C   UNK N   1      25.500  18.654   4.371  0.00  0.00     0.299 C 
BRANCH  32  33
HETATM   33  N   UNK N   1      24.219  18.875   3.691  0.00  0.00     0.093 N 
HETATM   34  C   UNK N   1      23.125  18.597   4.609  0.00  0.00     0.292 C 
HETATM   35  C   UNK N   1      21.781  18.708   3.895  0.00  0.00     0.156 C 
HETATM   36  N   UNK N   1      21.704  19.796   2.921  0.00  0.00    -0.349 N 
HETATM   37  C   UNK N   1      22.875  20.560   2.508  0.00  0.00     0.156 C 
HETATM   38  C   UNK N   1      20.501  20.074   2.339  0.00  0.00     0.215 C 
HETATM   39  C   UNK N   1      24.128  20.278   3.321  0.00  0.00     0.292 C 
HETATM   40  O   UNK N   1      19.506  19.433   2.641  0.00  0.00    -0.274 OA
HETATM   41  C   UNK N   1      20.367  21.171   1.325  0.00  0.00     0.117 C 
ENDBRANCH  32  33
ENDBRANCH  31  32
ENDBRANCH  30  31
ENDBRANCH   3  30
TORSDOF 8
ENDMDL
MODEL 5
REMARK VINA RESULT:      -8.2      3.465     10.023
REMARK  8 active torsions:
REMARK  status: ('A' for Active; 'I' for Inactive)
REMARK    1  A    between atoms: C_2  and  O_4 
REMARK    2  A    between atoms: O_4  and  C_5 
REMARK    3  A    between atoms: C_7  and  O_29 
REMARK    4  A    between atoms: C_11  and  N_17 
REMARK    5  A    between atoms: N_17  and  C_18 
REMARK    6  A    between atoms: O_29  and  C_30 
REMARK    7  A    between atoms: C_30  and  C_31 
REMARK    8  A    between atoms: C_31  and  N_32 
REMARK       I    between atoms: N_35  and  C_38 
ROOT
HETATM    1  C   UNK N   1      29.805  17.669   5.732  0.00  0.00     0.088 A 
HETATM    2  C   UNK N   1      28.944  18.393   4.880  0.00  0.00     0.074 A 
HETATM    3  C   UNK N   1      27.861  19.133   5.400  0.00  0.00     0.073 A 
HETATM    4  C   UNK N   1      27.646  19.152   6.773  0.00  0.00     0.067 A 
HETATM    5  C   UNK N   1      28.484  18.455   7.635  0.00  0.00     0.052 A 
HETATM    6  C   UNK N   1      29.568  17.696   7.132  0.00  0.00     0.068 A 
HETATM    7  C   UNK N   1      30.390  17.022   8.074  0.00  0.00     0.122 A 
HETATM    8  N   UNK N   1      30.116  17.157   9.393  0.00  0.00    -0.338 N 
ATOM      9  HN  UNK N   1      30.715  16.687  10.071  1.00  0.00     0.168 HD
HETATM   10  C   UNK N   1      29.073  17.894   9.845  0.00  0.00     0.182 A 
HETATM   11  N   UNK N   1      28.263  18.532   8.969  0.00  0.00    -0.351 N 
ATOM     12  HN  UNK N   1      27.476  19.080   9.318  1.00  0.00     0.166 HD
ENDROOT
BRANCH   7  13
HETATM   13  N   UNK N   1      31.514  16.252   7.639  0.00  0.00    -0.338 N 
HETATM   14  H   UNK N   1      31.446  15.915   6.716  0.00  0.00     0.167 HD
BRANCH  13  15
HETATM   15  C   UNK N   1      32.722  15.887   8.318  0.00  0.00     0.095 A 
HETATM   16  C   UNK N   1      33.647  16.909   8.652  0.00  0.00     0.079 A 
HETATM   17  C   UNK N   1      34.832  16.589   9.347  0.00  0.00     0.116 A 
HETATM   18 Cl   UNK N   1      33.346  18.585   8.231  0.00  0.00    -0.080 Cl
HETATM   19  N   UNK N   1      35.104  15.301   9.697  0.00  0.00    -0.343 N 
HETATM   20  C   UNK N   1      34.220  14.332   9.360  0.00  0.00     0.181 A 
ATOM     21  HN  UNK N   1      35.957  15.069  10.206  1.00  0.00     0.167 HD
HETATM   22  C   UNK N   1      33.080  14.576   8.700  0.00  0.00     0.151 A 
HETATM   23  O   UNK N   1      34.335  13.033   9.613  0.00  0.00    -0.307 OA
HETATM   24  O   UNK N   1      32.455  13.413   8.516  0.00  0.00    -0.319 OA
HETATM   25  C   UNK N   1      33.215  12.388   9.087  0.00  0.00     0.354 A 
ENDBRANCH  13  15
ENDBRANCH   7  13
BRANCH   1  26
HETATM   26  O   UNK N   1      30.871  16.965   5.254  0.00  0.00    -0.345 OA
BRANCH  26  27
HETATM   27  C   UNK N   1      31.784  17.267   4.250  0.00  0.00     0.120 C 
HETATM   28  C   UNK N   1      33.176  17.474   4.808  0.00  0.00     0.040 C 
HETATM   29  C   UNK N   1      31.787  16.357   3.036  0.00  0.00     0.040 C 
ENDBRANCH  26  27
ENDBRANCH   1  26
BRANCH   3  30
HETATM   30  O   UNK N   1      27.023  19.852   4.613  0.00  0.00    -0.349 OA
BRANCH  30  31
HETATM   31  C   UNK N   1      25.676  19.608   4.505  0.00  0.00     0.206 C 
BRANCH  31  32
HETATM   32  C   UNK N   1      25.428  18.312   3.728  0.00  0.00     0.299 C 
BRANCH  32  33
HETATM   33  N   UNK N   1      24.480  17.420   4.403  0.00  0.00     0.093 N 
HETATM   34  C   UNK N   1      25.189  16.599   5.373  0.00  0.00     0.292 C 
HETATM   35  C   UNK N   1      24.246  15.581   6.010  0.00  0.00     0.156 C 
HETATM   36  N   UNK N   1      22.901  16.090   6.276  0.00  0.00    -0.349 N 
HETATM   37  C   UNK N   1      22.439  17.379   5.774  0.00  0.00     0.156 C 
HETATM   38  C   UNK N   1      22.029  15.309   6.978  0.00  0.00     0.215 C 
HETATM   39  C   UNK N   1      23.525  18.232   5.140  0.00  0.00     0.292 C 
HETATM   40  O   UNK N   1      22.376  14.212   7.388  0.00  0.00    -0.274 OA
HETATM   41  C   UNK N   1      20.635  15.775   7.270  0.00  0.00     0.117 C 
ENDBRANCH  32  33
ENDBRANCH  31  32
ENDBRANCH  30  31
ENDBRANCH   3  30
TORSDOF 8
ENDMDL
MODEL 6
REMARK VINA RESULT:      -8.2      6.461     11.039
REMARK  8 active torsions:
REMARK  status: ('A' for Active; 'I' for Inactive)
REMARK    1  A    between atoms: C_2  and  O_4 
REMARK    2  A    between atoms: O_4  and  C_5 
REMARK    3  A    between atoms: C_7  and  O_29 
REMARK    4  A    between atoms: C_11  and  N_17 
REMARK    5  A    between atoms: N_17  and  C_18 
REMARK    6  A    between atoms: O_29  and  C_30 
REMARK    7  A    between atoms: C_30  and  C_31 
REMARK    8  A    between atoms: C_31  and  N_32 
REMARK       I    between atoms: N_35  and  C_38 
ROOT
HETATM    1  C   UNK N   1      22.701  15.563   5.545  0.00  0.00     0.088 A 
HETATM    2  C   UNK N   1      22.853  16.405   4.422  0.00  0.00     0.074 A 
HETATM    3  C   UNK N   1      22.157  17.630   4.333  0.00  0.00     0.073 A 
HETATM    4  C   UNK N   1      21.315  18.011   5.370  0.00  0.00     0.067 A 
HETATM    5  C   UNK N   1      21.154  17.206   6.491  0.00  0.00     0.052 A 
HETATM    6  C   UNK N   1      21.833  15.968   6.593  0.00  0.00     0.068 A 
HETATM    7  C   UNK N   1      21.631  15.204   7.775  0.00  0.00     0.122 A 
HETATM    8  N   UNK N   1      20.828  15.704   8.744  0.00  0.00    -0.338 N 
ATOM      9  HN  UNK N   1      20.696  15.165   9.600  1.00  0.00     0.168 HD
HETATM   10  C   UNK N   1      20.195  16.895   8.618  0.00  0.00     0.182 A 
HETATM   11  N   UNK N   1      20.355  17.634   7.496  0.00  0.00    -0.351 N 
ATOM     12  HN  UNK N   1      19.869  18.526   7.408  1.00  0.00     0.166 HD
ENDROOT
BRANCH   7  13
HETATM   13  N   UNK N   1      22.299  13.953   7.955  0.00  0.00    -0.338 N 
HETATM   14  H   UNK N   1      22.465  13.455   7.123  0.00  0.00     0.167 HD
BRANCH  13  15
HETATM   15  C   UNK N   1      22.769  13.302   9.143  0.00  0.00     0.095 A 
HETATM   16  C   UNK N   1      24.166  13.135   9.316  0.00  0.00     0.079 A 
HETATM   17  C   UNK N   1      24.665  12.524  10.486  0.00  0.00     0.116 A 
HETATM   18 Cl   UNK N   1      25.309  13.685   8.104  0.00  0.00    -0.080 Cl
HETATM   19  N   UNK N   1      23.813  12.085  11.455  0.00  0.00    -0.343 N 
HETATM   20  C   UNK N   1      22.481  12.237  11.271  0.00  0.00     0.181 A 
ATOM     21  HN  UNK N   1      24.172  11.650  12.304  1.00  0.00     0.167 HD
HETATM   22  C   UNK N   1      21.950  12.808  10.181  0.00  0.00     0.151 A 
HETATM   23  O   UNK N   1      21.518  11.859  12.105  0.00  0.00    -0.307 OA
HETATM   24  O   UNK N   1      20.624  12.787  10.310  0.00  0.00    -0.319 OA
HETATM   25  C   UNK N   1      20.291  12.191  11.530  0.00  0.00     0.354 A 
ENDBRANCH  13  15
ENDBRANCH   7  13
BRANCH   1  26
HETATM   26  O   UNK N   1      23.380  14.386   5.663  0.00  0.00    -0.345 OA
BRANCH  26  27
HETATM   27  C   UNK N   1      23.970  13.576   4.700  0.00  0.00     0.120 C 
HETATM   28  C   UNK N   1      25.428  13.930   4.493  0.00  0.00     0.040 C 
HETATM   29  C   UNK N   1      23.763  12.080   4.849  0.00  0.00     0.040 C 
ENDBRANCH  26  27
ENDBRANCH   1  26
BRANCH   3  30
HETATM   30  O   UNK N   1      22.290  18.469   3.277  0.00  0.00    -0.349 OA
BRANCH  30  31
HETATM   31  C   UNK N   1      22.597  19.803   3.393  0.00  0.00     0.206 C 
BRANCH  31  32
HETATM   32  C   UNK N   1      24.089  20.033   3.135  0.00  0.00     0.299 C 
BRANCH  32  33
HETATM   33  N   UNK N   1      24.939  19.450   4.177  0.00  0.00     0.093 N 
HETATM   34  C   UNK N   1      25.786  18.420   3.595  0.00  0.00     0.292 C 
HETATM   35  C   UNK N   1      26.601  17.716   4.678  0.00  0.00     0.156 C 
HETATM   36  N   UNK N   1      27.090  18.600   5.734  0.00  0.00    -0.349 N 
HETATM   37  C   UNK N   1      26.649  19.985   5.862  0.00  0.00     0.156 C 
HETATM   38  C   UNK N   1      27.951  18.098   6.666  0.00  0.00     0.215 C 
HETATM   39  C   UNK N   1      25.815  20.489   4.695  0.00  0.00     0.292 C 
HETATM   40  O   UNK N   1      28.316  16.934   6.606  0.00  0.00    -0.274 OA
HETATM   41  C   UNK N   1      28.474  18.956   7.779  0.00  0.00     0.117 C 
ENDBRANCH  32  33
ENDBRANCH  31  32
ENDBRANCH  30  31
ENDBRANCH   3  30
TORSDOF 8
ENDMDL
MODEL 7
REMARK VINA RESULT:      -8.1      1.721      3.093
REMARK  8 active torsions:
REMARK  status: ('A' for Active; 'I' for Inactive)
REMARK    1  A    between atoms: C_2  and  O_4 
REMARK    2  A    between atoms: O_4  and  C_5 
REMARK    3  A    between atoms: C_7  and  O_29 
REMARK    4  A    between atoms: C_11  and  N_17 
REMARK    5  A    between atoms: N_17  and  C_18 
REMARK    6  A    between atoms: O_29  and  C_30 
REMARK    7  A    between atoms: C_30  and  C_31 
REMARK    8  A    between atoms: C_31  and  N_32 
REMARK       I    between atoms: N_35  and  C_38 
ROOT
HETATM    1  C   UNK N   1      30.599  17.005   6.098  0.00  0.00     0.088 A 
HETATM    2  C   UNK N   1      32.007  17.108   6.107  0.00  0.00     0.074 A 
HETATM    3  C   UNK N   1      32.696  17.542   7.260  0.00  0.00     0.073 A 
HETATM    4  C   UNK N   1      31.975  17.866   8.403  0.00  0.00     0.067 A 
HETATM    5  C   UNK N   1      30.589  17.764   8.424  0.00  0.00     0.052 A 
HETATM    6  C   UNK N   1      29.878  17.344   7.273  0.00  0.00     0.068 A 
HETATM    7  C   UNK N   1      28.464  17.250   7.373  0.00  0.00     0.122 A 
HETATM    8  N   UNK N   1      27.873  17.540   8.557  0.00  0.00    -0.338 N 
ATOM      9  HN  UNK N   1      26.860  17.458   8.635  1.00  0.00     0.168 HD
HETATM   10  C   UNK N   1      28.581  17.937   9.642  0.00  0.00     0.182 A 
HETATM   11  N   UNK N   1      29.928  18.051   9.570  0.00  0.00    -0.351 N 
ATOM     12  HN  UNK N   1      30.451  18.357  10.390  1.00  0.00     0.166 HD
ENDROOT
BRANCH   7  13
HETATM   13  N   UNK N   1      27.684  16.815   6.257  0.00  0.00    -0.338 N 
HETATM   14  H   UNK N   1      27.756  15.853   6.058  0.00  0.00     0.167 HD
BRANCH  13  15
HETATM   15  C   UNK N   1      26.814  17.540   5.378  0.00  0.00     0.095 A 
HETATM   16  C   UNK N   1      26.100  16.821   4.386  0.00  0.00     0.079 A 
HETATM   17  C   UNK N   1      25.214  17.498   3.523  0.00  0.00     0.116 A 
HETATM   18 Cl   UNK N   1      26.282  15.085   4.209  0.00  0.00    -0.080 Cl
HETATM   19  N   UNK N   1      25.039  18.846   3.628  0.00  0.00    -0.343 N 
HETATM   20  C   UNK N   1      25.738  19.523   4.570  0.00  0.00     0.181 A 
ATOM     21  HN  UNK N   1      24.393  19.336   3.010  1.00  0.00     0.167 HD
HETATM   22  C   UNK N   1      26.594  18.934   5.415  0.00  0.00     0.151 A 
HETATM   23  O   UNK N   1      25.694  20.831   4.798  0.00  0.00    -0.307 OA
HETATM   24  O   UNK N   1      27.118  19.879   6.194  0.00  0.00    -0.319 OA
HETATM   25  C   UNK N   1      26.573  21.118   5.844  0.00  0.00     0.354 A 
ENDBRANCH  13  15
ENDBRANCH   7  13
BRANCH   1  26
HETATM   26  O   UNK N   1      29.914  16.567   5.003  0.00  0.00    -0.345 OA
BRANCH  26  27
HETATM   27  C   UNK N   1      30.166  15.511   4.135  0.00  0.00     0.120 C 
HETATM   28  C   UNK N   1      29.847  14.176   4.777  0.00  0.00     0.040 C 
HETATM   29  C   UNK N   1      29.585  15.623   2.738  0.00  0.00     0.040 C 
ENDBRANCH  26  27
ENDBRANCH   1  26
BRANCH   3  30
HETATM   30  O   UNK N   1      34.047  17.638   7.310  0.00  0.00    -0.349 OA
BRANCH  30  31
HETATM   31  C   UNK N   1      34.807  17.210   8.371  0.00  0.00     0.206 C 
BRANCH  31  32
HETATM   32  C   UNK N   1      34.904  15.682   8.378  0.00  0.00     0.299 C 
BRANCH  32  33
HETATM   33  N   UNK N   1      35.402  15.153   9.651  0.00  0.00     0.093 N 
HETATM   34  C   UNK N   1      35.287  16.172  10.682  0.00  0.00     0.292 C 
HETATM   35  C   UNK N   1      35.904  15.687  11.991  0.00  0.00     0.156 C 
HETATM   36  N   UNK N   1      35.664  14.274  12.283  0.00  0.00    -0.349 N 
HETATM   37  C   UNK N   1      35.085  13.361  11.305  0.00  0.00     0.156 C 
HETATM   38  C   UNK N   1      36.044  13.780  13.497  0.00  0.00     0.215 C 
HETATM   39  C   UNK N   1      34.559  14.036  10.049  0.00  0.00     0.292 C 
HETATM   40  O   UNK N   1      36.560  14.512  14.328  0.00  0.00    -0.274 OA
HETATM   41  C   UNK N   1      35.834  12.337  13.845  0.00  0.00     0.117 C 
ENDBRANCH  32  33
ENDBRANCH  31  32
ENDBRANCH  30  31
ENDBRANCH   3  30
TORSDOF 8
ENDMDL
MODEL 8
REMARK VINA RESULT:      -8.0      2.192      3.651
REMARK  8 active torsions:
REMARK  status: ('A' for Active; 'I' for Inactive)
REMARK    1  A    between atoms: C_2  and  O_4 
REMARK    2  A    between atoms: O_4  and  C_5 
REMARK    3  A    between atoms: C_7  and  O_29 
REMARK    4  A    between atoms: C_11  and  N_17 
REMARK    5  A    between atoms: N_17  and  C_18 
REMARK    6  A    between atoms: O_29  and  C_30 
REMARK    7  A    between atoms: C_30  and  C_31 
REMARK    8  A    between atoms: C_31  and  N_32 
REMARK       I    between atoms: N_35  and  C_38 
ROOT
HETATM    1  C   UNK N   1      30.800  17.215   5.999  0.00  0.00     0.088 A 
HETATM    2  C   UNK N   1      32.199  17.222   6.193  0.00  0.00     0.074 A 
HETATM    3  C   UNK N   1      32.753  17.379   7.481  0.00  0.00     0.073 A 
HETATM    4  C   UNK N   1      31.907  17.523   8.573  0.00  0.00     0.067 A 
HETATM    5  C   UNK N   1      30.527  17.510   8.413  0.00  0.00     0.052 A 
HETATM    6  C   UNK N   1      29.951  17.367   7.127  0.00  0.00     0.068 A 
HETATM    7  C   UNK N   1      28.533  17.348   7.041  0.00  0.00     0.122 A 
HETATM    8  N   UNK N   1      27.809  17.442   8.183  0.00  0.00    -0.338 N 
ATOM      9  HN  UNK N   1      26.792  17.412   8.124  1.00  0.00     0.168 HD
HETATM   10  C   UNK N   1      28.390  17.574   9.399  0.00  0.00     0.182 A 
HETATM   11  N   UNK N   1      29.738  17.612   9.509  0.00  0.00    -0.351 N 
ATOM     12  HN  UNK N   1      30.165  17.719  10.428  1.00  0.00     0.166 HD
ENDROOT
BRANCH   7  13
HETATM   13  N   UNK N   1      27.882  17.188   5.778  0.00  0.00    -0.338 N 
HETATM   14  H   UNK N   1      28.357  16.602   5.145  0.00  0.00     0.167 HD
BRANCH  13  15
HETATM   15  C   UNK N   1      26.656  17.736   5.277  0.00  0.00     0.095 A 
HETATM   16  C   UNK N   1      26.685  19.019   4.673  0.00  0.00     0.079 A 
HETATM   17  C   UNK N   1      25.503  19.576   4.143  0.00  0.00     0.116 A 
HETATM   18 Cl   UNK N   1      28.174  19.939   4.554  0.00  0.00    -0.080 Cl
HETATM   19  N   UNK N   1      24.324  18.894   4.209  0.00  0.00    -0.343 N 
HETATM   20  C   UNK N   1      24.308  17.677   4.802  0.00  0.00     0.181 A 
ATOM     21  HN  UNK N   1      23.470  19.293   3.820  1.00  0.00     0.167 HD
HETATM   22  C   UNK N   1      25.398  17.098   5.323  0.00  0.00     0.151 A 
HETATM   23  O   UNK N   1      23.250  16.888   4.959  0.00  0.00    -0.307 OA
HETATM   24  O   UNK N   1      25.035  15.923   5.836  0.00  0.00    -0.319 OA
HETATM   25  C   UNK N   1      23.665  15.735   5.626  0.00  0.00     0.354 A 
ENDBRANCH  13  15
ENDBRANCH   7  13
BRANCH   1  26
HETATM   26  O   UNK N   1      30.242  17.042   4.767  0.00  0.00    -0.345 OA
BRANCH  26  27
HETATM   27  C   UNK N   1      30.691  16.338   3.656  0.00  0.00     0.120 C 
HETATM   28  C   UNK N   1      29.542  15.913   2.765  0.00  0.00     0.040 C 
HETATM   29  C   UNK N   1      31.822  16.966   2.863  0.00  0.00     0.040 C 
ENDBRANCH  26  27
ENDBRANCH   1  26
BRANCH   3  30
HETATM   30  O   UNK N   1      34.090  17.376   7.705  0.00  0.00    -0.349 OA
BRANCH  30  31
HETATM   31  C   UNK N   1      34.669  16.959   8.878  0.00  0.00     0.206 C 
BRANCH  31  32
HETATM   32  C   UNK N   1      35.170  15.518   8.745  0.00  0.00     0.299 C 
BRANCH  32  33
HETATM   33  N   UNK N   1      35.542  14.928  10.035  0.00  0.00     0.093 N 
HETATM   34  C   UNK N   1      35.557  15.960  11.059  0.00  0.00     0.292 C 
HETATM   35  C   UNK N   1      36.053  15.395  12.388  0.00  0.00     0.156 C 
HETATM   36  N   UNK N   1      35.588  14.040  12.676  0.00  0.00    -0.349 N 
HETATM   37  C   UNK N   1      34.902  13.220  11.684  0.00  0.00     0.156 C 
HETATM   38  C   UNK N   1      35.850  13.501  13.903  0.00  0.00     0.215 C 
HETATM   39  C   UNK N   1      34.525  13.959  10.411  0.00  0.00     0.292 C 
HETATM   40  O   UNK N   1      36.449  14.151  14.747  0.00  0.00    -0.274 OA
HETATM   41  C   UNK N   1      35.408  12.111  14.249  0.00  0.00     0.117 C 
ENDBRANCH  32  33
ENDBRANCH  31  32
ENDBRANCH  30  31
ENDBRANCH   3  30
TORSDOF 8
ENDMDL
MODEL 9
REMARK VINA RESULT:      -7.7      1.576      3.106
REMARK  8 active torsions:
REMARK  status: ('A' for Active; 'I' for Inactive)
REMARK    1  A    between atoms: C_2  and  O_4 
REMARK    2  A    between atoms: O_4  and  C_5 
REMARK    3  A    between atoms: C_7  and  O_29 
REMARK    4  A    between atoms: C_11  and  N_17 
REMARK    5  A    between atoms: N_17  and  C_18 
REMARK    6  A    between atoms: O_29  and  C_30 
REMARK    7  A    between atoms: C_30  and  C_31 
REMARK    8  A    between atoms: C_31  and  N_32 
REMARK       I    between atoms: N_35  and  C_38 
ROOT
HETATM    1  C   UNK N   1      31.669  16.193   6.204  0.00  0.00     0.088 A 
HETATM    2  C   UNK N   1      32.910  15.639   6.583  0.00  0.00     0.074 A 
HETATM    3  C   UNK N   1      33.439  15.856   7.874  0.00  0.00     0.073 A 
HETATM    4  C   UNK N   1      32.721  16.623   8.783  0.00  0.00     0.067 A 
HETATM    5  C   UNK N   1      31.492  17.172   8.439  0.00  0.00     0.052 A 
HETATM    6  C   UNK N   1      30.951  16.977   7.145  0.00  0.00     0.068 A 
HETATM    7  C   UNK N   1      29.683  17.557   6.869  0.00  0.00     0.122 A 
HETATM    8  N   UNK N   1      29.051  18.239   7.854  0.00  0.00    -0.338 N 
ATOM      9  HN  UNK N   1      28.133  18.642   7.663  1.00  0.00     0.168 HD
HETATM   10  C   UNK N   1      29.593  18.406   9.084  0.00  0.00     0.182 A 
HETATM   11  N   UNK N   1      30.806  17.879   9.368  0.00  0.00    -0.351 N 
ATOM     12  HN  UNK N   1      31.209  18.016  10.295  1.00  0.00     0.166 HD
ENDROOT
BRANCH   7  13
HETATM   13  N   UNK N   1      29.067  17.385   5.591  0.00  0.00    -0.338 N 
HETATM   14  H   UNK N   1      29.554  16.787   4.980  0.00  0.00     0.167 HD
BRANCH  13  15
HETATM   15  C   UNK N   1      27.861  17.936   5.048  0.00  0.00     0.095 A 
HETATM   16  C   UNK N   1      27.093  17.141   4.160  0.00  0.00     0.079 A 
HETATM   17  C   UNK N   1      25.885  17.640   3.629  0.00  0.00     0.116 A 
HETATM   18 Cl   UNK N   1      27.603  15.525   3.708  0.00  0.00    -0.080 Cl
HETATM   19  N   UNK N   1      25.448  18.889   3.957  0.00  0.00    -0.343 N 
HETATM   20  C   UNK N   1      26.198  19.644   4.793  0.00  0.00     0.181 A 
ATOM     21  HN  UNK N   1      24.571  19.249   3.580  1.00  0.00     0.167 HD
HETATM   22  C   UNK N   1      27.353  19.224   5.327  0.00  0.00     0.151 A 
HETATM   23  O   UNK N   1      25.926  20.878   5.204  0.00  0.00    -0.307 OA
HETATM   24  O   UNK N   1      27.838  20.206   6.085  0.00  0.00    -0.319 OA
HETATM   25  C   UNK N   1      26.959  21.293   6.046  0.00  0.00     0.354 A 
ENDBRANCH  13  15
ENDBRANCH   7  13
BRANCH   1  26
HETATM   26  O   UNK N   1      31.127  15.978   4.970  0.00  0.00    -0.345 OA
BRANCH  26  27
HETATM   27  C   UNK N   1      31.641  16.208   3.699  0.00  0.00     0.120 C 
HETATM   28  C   UNK N   1      32.396  17.519   3.634  0.00  0.00     0.040 C 
HETATM   29  C   UNK N   1      32.419  15.072   3.063  0.00  0.00     0.040 C 
ENDBRANCH  26  27
ENDBRANCH   1  26
BRANCH   3  30
HETATM   30  O   UNK N   1      34.620  15.327   8.276  0.00  0.00    -0.349 OA
BRANCH  30  31
HETATM   31  C   UNK N   1      35.100  15.414   9.560  0.00  0.00     0.206 C 
BRANCH  31  32
HETATM   32  C   UNK N   1      36.482  14.762   9.661  0.00  0.00     0.299 C 
BRANCH  32  33
HETATM   33  N   UNK N   1      36.767  14.245  11.003  0.00  0.00     0.093 N 
HETATM   34  C   UNK N   1      35.767  14.735  11.938  0.00  0.00     0.292 C 
HETATM   35  C   UNK N   1      36.105  14.307  13.363  0.00  0.00     0.156 C 
HETATM   36  N   UNK N   1      36.655  12.957  13.472  0.00  0.00    -0.349 N 
HETATM   37  C   UNK N   1      37.056  12.179  12.305  0.00  0.00     0.156 C 
HETATM   38  C   UNK N   1      36.850  12.424  14.713  0.00  0.00     0.215 C 
HETATM   39  C   UNK N   1      36.659  12.795  10.973  0.00  0.00     0.292 C 
HETATM   40  O   UNK N   1      36.554  13.061  15.712  0.00  0.00    -0.274 OA
HETATM   41  C   UNK N   1      37.424  11.049  14.884  0.00  0.00     0.117 C 
ENDBRANCH  32  33
ENDBRANCH  31  32
ENDBRANCH  30  31
ENDBRANCH   3  30
TORSDOF 8
ENDMDL
