MODEL 1
REMARK VINA RESULT:      -6.6      0.000      0.000
REMARK  6 active torsions:
REMARK  status: ('A' for Active; 'I' for Inactive)
REMARK    1  A    between atoms: O_21  and  C_2 
REMARK    2  A    between atoms: C_12  and  C_10 
REMARK    3  A    between atoms: N_19  and  C_10 
REMARK    4  A    between atoms: C_17  and  C_15 
REMARK    5  A    between atoms: N_18  and  C_16 
REMARK    6  A    between atoms: O_21  and  C_17 
ROOT
HETATM    1  C   UNK N   1      22.100  18.341   5.410  0.00  0.00     0.071 C 
HETATM    2  C   UNK N   1      21.220  17.665   6.461  0.00  0.00     0.278 C 
HETATM    3  C   UNK N   1      19.742  16.587   4.890  0.00  0.00     0.319 C 
HETATM    4  C   UNK N   1      21.332  18.436   4.129  0.00  0.00    -0.022 A 
HETATM    5  C   UNK N   1      20.220  17.622   3.907  0.00  0.00     0.020 A 
HETATM    6  C   UNK N   1      21.609  19.341   3.056  0.00  0.00     0.080 A 
HETATM    7  C   UNK N   1      20.668  19.224   2.020  0.00  0.00     0.085 A 
HETATM    8  N   UNK N   1      20.747  16.371   5.948  0.00  0.00     0.097 N 
HETATM    9  S   UNK N   1      19.578  18.040   2.438  0.00  0.00    -0.074 SA
ENDROOT
BRANCH   8  10
HETATM   10  C   UNK N   1      20.105  15.619   7.026  0.00  0.00     0.311 C 
BRANCH  10  11
HETATM   11  C   UNK N   1      21.049  14.763   7.841  0.00  0.00    -0.030 A 
HETATM   12  C   UNK N   1      20.689  14.427   9.152  0.00  0.00     0.009 A 
HETATM   13  C   UNK N   1      21.551  13.668   9.951  0.00  0.00     0.001 A 
HETATM   14  C   UNK N   1      22.785  13.249   9.446  0.00  0.00     0.000 A 
HETATM   15  C   UNK N   1      23.154  13.576   8.139  0.00  0.00     0.001 A 
HETATM   16  C   UNK N   1      22.287  14.325   7.339  0.00  0.00     0.009 A 
ENDBRANCH  10  11
ENDBRANCH   8  10
BRANCH   6  17
HETATM   17  C   UNK N   1      22.752  20.290   3.053  0.00  0.00     0.296 C 
HETATM   18  O   UNK N   1      22.551  21.485   2.890  0.00  0.00    -0.259 OA
BRANCH  17  19
HETATM   19  O   UNK N   1      24.014  19.835   3.250  0.00  0.00    -0.318 OA
BRANCH  19  20
HETATM   20  C   UNK N   1      25.105  20.454   2.684  0.00  0.00     0.174 C 
HETATM   21  C   UNK N   1      26.343  20.149   3.499  0.00  0.00     0.034 C 
ENDBRANCH  19  20
ENDBRANCH  17  19
ENDBRANCH   6  17
BRANCH   7  22
HETATM   22  N   UNK N   1      20.632  19.977   0.827  0.00  0.00    -0.393 N 
HETATM   23  H   UNK N   1      19.883  20.592   0.655  0.00  0.00     0.156 HD
HETATM   24  H   UNK N   1      21.356  19.886   0.167  0.00  0.00     0.156 HD
ENDBRANCH   7  22
TORSDOF 6
ENDMDL
MODEL 2
REMARK VINA RESULT:      -6.3      7.070     10.061
REMARK  6 active torsions:
REMARK  status: ('A' for Active; 'I' for Inactive)
REMARK    1  A    between atoms: O_21  and  C_2 
REMARK    2  A    between atoms: C_12  and  C_10 
REMARK    3  A    between atoms: N_19  and  C_10 
REMARK    4  A    between atoms: C_17  and  C_15 
REMARK    5  A    between atoms: N_18  and  C_16 
REMARK    6  A    between atoms: O_21  and  C_17 
ROOT
HETATM    1  C   UNK N   1      30.290  16.908   4.959  0.00  0.00     0.071 C 
HETATM    2  C   UNK N   1      28.796  16.586   4.938  0.00  0.00     0.278 C 
HETATM    3  C   UNK N   1      28.276  17.682   7.021  0.00  0.00     0.319 C 
HETATM    4  C   UNK N   1      30.698  17.199   6.369  0.00  0.00    -0.022 A 
HETATM    5  C   UNK N   1      29.742  17.542   7.327  0.00  0.00     0.020 A 
HETATM    6  C   UNK N   1      32.032  17.133   6.881  0.00  0.00     0.080 A 
HETATM    7  C   UNK N   1      32.075  17.403   8.259  0.00  0.00     0.085 A 
HETATM    8  N   UNK N   1      28.047  17.685   5.564  0.00  0.00     0.097 N 
HETATM    9  S   UNK N   1      30.527  17.721   8.775  0.00  0.00    -0.074 SA
ENDROOT
BRANCH   8  10
HETATM   10  C   UNK N   1      26.613  17.495   5.337  0.00  0.00     0.311 C 
BRANCH  10  11
HETATM   11  C   UNK N   1      25.970  18.557   4.473  0.00  0.00    -0.030 A 
HETATM   12  C   UNK N   1      26.790  19.512   3.860  0.00  0.00     0.009 A 
HETATM   13  C   UNK N   1      26.231  20.532   3.083  0.00  0.00     0.001 A 
HETATM   14  C   UNK N   1      24.845  20.609   2.921  0.00  0.00     0.000 A 
HETATM   15  C   UNK N   1      24.017  19.660   3.526  0.00  0.00     0.001 A 
HETATM   16  C   UNK N   1      24.577  18.636   4.293  0.00  0.00     0.009 A 
ENDBRANCH  10  11
ENDBRANCH   8  10
BRANCH   6  17
HETATM   17  C   UNK N   1      33.219  16.809   6.049  0.00  0.00     0.296 C 
HETATM   18  O   UNK N   1      34.122  17.625   5.932  0.00  0.00    -0.259 OA
BRANCH  17  19
HETATM   19  O   UNK N   1      33.311  15.604   5.435  0.00  0.00    -0.318 OA
BRANCH  19  20
HETATM   20  C   UNK N   1      34.073  15.421   4.303  0.00  0.00     0.174 C 
HETATM   21  C   UNK N   1      33.260  15.781   3.079  0.00  0.00     0.034 C 
ENDBRANCH  19  20
ENDBRANCH  17  19
ENDBRANCH   6  17
BRANCH   7  22
HETATM   22  N   UNK N   1      33.222  17.402   9.081  0.00  0.00    -0.393 N 
HETATM   23  H   UNK N   1      33.132  17.277  10.053  0.00  0.00     0.156 HD
HETATM   24  H   UNK N   1      34.113  17.527   8.682  0.00  0.00     0.156 HD
ENDBRANCH   7  22
TORSDOF 6
ENDMDL
MODEL 3
REMARK VINA RESULT:      -6.3     12.424     15.632
REMARK  6 active torsions:
REMARK  status: ('A' for Active; 'I' for Inactive)
REMARK    1  A    between atoms: O_21  and  C_2 
REMARK    2  A    between atoms: C_12  and  C_10 
REMARK    3  A    between atoms: N_19  and  C_10 
REMARK    4  A    between atoms: C_17  and  C_15 
REMARK    5  A    between atoms: N_18  and  C_16 
REMARK    6  A    between atoms: O_21  and  C_17 
ROOT
HETATM    1  C   UNK N   1      35.085  15.639  11.659  0.00  0.00     0.071 C 
HETATM    2  C   UNK N   1      35.327  16.646  10.535  0.00  0.00     0.278 C 
HETATM    3  C   UNK N   1      34.833  15.125   8.730  0.00  0.00     0.319 C 
HETATM    4  C   UNK N   1      35.215  14.257  11.101  0.00  0.00    -0.022 A 
HETATM    5  C   UNK N   1      35.113  14.034   9.727  0.00  0.00     0.020 A 
HETATM    6  C   UNK N   1      35.476  13.072  11.861  0.00  0.00     0.080 A 
HETATM    7  C   UNK N   1      35.602  11.942  11.036  0.00  0.00     0.085 A 
HETATM    8  N   UNK N   1      34.416  16.363   9.417  0.00  0.00     0.097 N 
HETATM    9  S   UNK N   1      35.377  12.420   9.460  0.00  0.00    -0.074 SA
ENDROOT
BRANCH   8  10
HETATM   10  C   UNK N   1      34.476  17.454   8.443  0.00  0.00     0.311 C 
BRANCH  10  11
HETATM   11  C   UNK N   1      33.398  17.408   7.383  0.00  0.00    -0.030 A 
HETATM   12  C   UNK N   1      32.062  17.291   7.788  0.00  0.00     0.009 A 
HETATM   13  C   UNK N   1      31.039  17.208   6.837  0.00  0.00     0.001 A 
HETATM   14  C   UNK N   1      31.347  17.230   5.474  0.00  0.00     0.000 A 
HETATM   15  C   UNK N   1      32.675  17.349   5.059  0.00  0.00     0.001 A 
HETATM   16  C   UNK N   1      33.695  17.442   6.009  0.00  0.00     0.009 A 
ENDBRANCH  10  11
ENDBRANCH   8  10
BRANCH   6  17
HETATM   17  C   UNK N   1      35.603  13.054  13.340  0.00  0.00     0.296 C 
HETATM   18  O   UNK N   1      36.709  13.128  13.858  0.00  0.00    -0.259 OA
BRANCH  17  19
HETATM   19  O   UNK N   1      34.495  12.976  14.118  0.00  0.00    -0.318 OA
BRANCH  19  20
HETATM   20  C   UNK N   1      34.327  11.971  15.044  0.00  0.00     0.174 C 
HETATM   21  C   UNK N   1      33.696  10.767  14.382  0.00  0.00     0.034 C 
ENDBRANCH  19  20
ENDBRANCH  17  19
ENDBRANCH   6  17
BRANCH   7  22
HETATM   22  N   UNK N   1      35.878  10.623  11.454  0.00  0.00    -0.393 N 
HETATM   23  H   UNK N   1      35.180  10.091  11.900  0.00  0.00     0.156 HD
HETATM   24  H   UNK N   1      36.769  10.235  11.300  0.00  0.00     0.156 HD
ENDBRANCH   7  22
TORSDOF 6
ENDMDL
MODEL 4
REMARK VINA RESULT:      -6.3     13.898     15.937
REMARK  6 active torsions:
REMARK  status: ('A' for Active; 'I' for Inactive)
REMARK    1  A    between atoms: O_21  and  C_2 
REMARK    2  A    between atoms: C_12  and  C_10 
REMARK    3  A    between atoms: N_19  and  C_10 
REMARK    4  A    between atoms: C_17  and  C_15 
REMARK    5  A    between atoms: N_18  and  C_16 
REMARK    6  A    between atoms: O_21  and  C_17 
ROOT
HETATM    1  C   UNK N   1      35.295  15.373  11.764  0.00  0.00     0.071 C 
HETATM    2  C   UNK N   1      35.330  14.303  12.855  0.00  0.00     0.278 C 
HETATM    3  C   UNK N   1      36.885  12.848  11.726  0.00  0.00     0.319 C 
HETATM    4  C   UNK N   1      35.741  14.757  10.475  0.00  0.00    -0.022 A 
HETATM    5  C   UNK N   1      36.469  13.566  10.472  0.00  0.00     0.020 A 
HETATM    6  C   UNK N   1      35.464  15.269   9.167  0.00  0.00     0.080 A 
HETATM    7  C   UNK N   1      35.970  14.428   8.161  0.00  0.00     0.085 A 
HETATM    8  N   UNK N   1      36.669  13.701  12.911  0.00  0.00     0.097 N 
HETATM    9  S   UNK N   1      36.728  13.141   8.892  0.00  0.00    -0.074 SA
ENDROOT
BRANCH   8  10
HETATM   10  C   UNK N   1      36.778  12.851  14.098  0.00  0.00     0.311 C 
BRANCH  10  11
HETATM   11  C   UNK N   1      36.548  13.573  15.407  0.00  0.00    -0.030 A 
HETATM   12  C   UNK N   1      35.616  13.047  16.310  0.00  0.00     0.009 A 
HETATM   13  C   UNK N   1      35.349  13.704  17.515  0.00  0.00     0.001 A 
HETATM   14  C   UNK N   1      36.005  14.900  17.821  0.00  0.00     0.000 A 
HETATM   15  C   UNK N   1      36.938  15.432  16.930  0.00  0.00     0.001 A 
HETATM   16  C   UNK N   1      37.213  14.769  15.731  0.00  0.00     0.009 A 
ENDBRANCH  10  11
ENDBRANCH   8  10
BRANCH   6  17
HETATM   17  C   UNK N   1      34.725  16.532   8.916  0.00  0.00     0.296 C 
HETATM   18  O   UNK N   1      35.116  17.577   9.417  0.00  0.00    -0.259 OA
BRANCH  17  19
HETATM   19  O   UNK N   1      33.630  16.532   8.116  0.00  0.00    -0.318 OA
BRANCH  19  20
HETATM   20  C   UNK N   1      33.272  17.636   7.375  0.00  0.00     0.174 C 
HETATM   21  C   UNK N   1      33.658  17.425   5.928  0.00  0.00     0.034 C 
ENDBRANCH  19  20
ENDBRANCH  17  19
ENDBRANCH   6  17
BRANCH   7  22
HETATM   22  N   UNK N   1      35.857  14.621   6.768  0.00  0.00    -0.393 N 
HETATM   23  H   UNK N   1      36.593  15.041   6.268  0.00  0.00     0.156 HD
HETATM   24  H   UNK N   1      35.041  14.336   6.297  0.00  0.00     0.156 HD
ENDBRANCH   7  22
TORSDOF 6
ENDMDL
MODEL 5
REMARK VINA RESULT:      -6.3     14.884     17.142
REMARK  6 active torsions:
REMARK  status: ('A' for Active; 'I' for Inactive)
REMARK    1  A    between atoms: O_21  and  C_2 
REMARK    2  A    between atoms: C_12  and  C_10 
REMARK    3  A    between atoms: N_19  and  C_10 
REMARK    4  A    between atoms: C_17  and  C_15 
REMARK    5  A    between atoms: N_18  and  C_16 
REMARK    6  A    between atoms: O_21  and  C_17 
ROOT
HETATM    1  C   UNK N   1      35.309  13.892  12.806  0.00  0.00     0.071 C 
HETATM    2  C   UNK N   1      34.945  12.672  13.652  0.00  0.00     0.278 C 
HETATM    3  C   UNK N   1      37.063  11.550  13.393  0.00  0.00     0.319 C 
HETATM    4  C   UNK N   1      36.441  13.526  11.899  0.00  0.00    -0.022 A 
HETATM    5  C   UNK N   1      37.243  12.417  12.177  0.00  0.00     0.020 A 
HETATM    6  C   UNK N   1      36.798  14.210  10.693  0.00  0.00     0.080 A 
HETATM    7  C   UNK N   1      37.871  13.583  10.037  0.00  0.00     0.085 A 
HETATM    8  N   UNK N   1      36.142  12.186  14.354  0.00  0.00     0.097 N 
HETATM    9  S   UNK N   1      38.337  12.268  10.942  0.00  0.00    -0.074 SA
ENDROOT
BRANCH   8  10
HETATM   10  C   UNK N   1      35.758  11.174  15.339  0.00  0.00     0.311 C 
BRANCH  10  11
HETATM   11  C   UNK N   1      35.546  11.711  16.737  0.00  0.00    -0.030 A 
HETATM   12  C   UNK N   1      35.338  13.085  16.905  0.00  0.00     0.009 A 
HETATM   13  C   UNK N   1      35.174  13.626  18.185  0.00  0.00     0.001 A 
HETATM   14  C   UNK N   1      35.228  12.796  19.308  0.00  0.00     0.000 A 
HETATM   15  C   UNK N   1      35.432  11.423  19.152  0.00  0.00     0.001 A 
HETATM   16  C   UNK N   1      35.585  10.883  17.873  0.00  0.00     0.009 A 
ENDBRANCH  10  11
ENDBRANCH   8  10
BRANCH   6  17
HETATM   17  C   UNK N   1      36.106  15.428  10.201  0.00  0.00     0.296 C 
HETATM   18  O   UNK N   1      36.413  16.525  10.648  0.00  0.00    -0.259 OA
BRANCH  17  19
HETATM   19  O   UNK N   1      35.151  15.329   9.245  0.00  0.00    -0.318 OA
BRANCH  19  20
HETATM   20  C   UNK N   1      33.960  16.014   9.334  0.00  0.00     0.174 C 
HETATM   21  C   UNK N   1      32.816  15.033   9.469  0.00  0.00     0.034 C 
ENDBRANCH  19  20
ENDBRANCH  17  19
ENDBRANCH   6  17
BRANCH   7  22
HETATM   22  N   UNK N   1      38.458  13.980   8.818  0.00  0.00    -0.393 N 
HETATM   23  H   UNK N   1      38.041  14.691   8.278  0.00  0.00     0.156 HD
HETATM   24  H   UNK N   1      39.285  13.548   8.506  0.00  0.00     0.156 HD
ENDBRANCH   7  22
TORSDOF 6
ENDMDL
MODEL 6
REMARK VINA RESULT:      -6.2     12.526     14.506
REMARK  6 active torsions:
REMARK  status: ('A' for Active; 'I' for Inactive)
REMARK    1  A    between atoms: O_21  and  C_2 
REMARK    2  A    between atoms: C_12  and  C_10 
REMARK    3  A    between atoms: N_19  and  C_10 
REMARK    4  A    between atoms: C_17  and  C_15 
REMARK    5  A    between atoms: N_18  and  C_16 
REMARK    6  A    between atoms: O_21  and  C_17 
ROOT
HETATM    1  C   UNK N   1      34.740  15.804  10.729  0.00  0.00     0.071 C 
HETATM    2  C   UNK N   1      34.504  14.526  11.533  0.00  0.00     0.278 C 
HETATM    3  C   UNK N   1      35.295  13.012   9.831  0.00  0.00     0.319 C 
HETATM    4  C   UNK N   1      34.791  15.454   9.275  0.00  0.00    -0.022 A 
HETATM    5  C   UNK N   1      35.034  14.139   8.870  0.00  0.00     0.020 A 
HETATM    6  C   UNK N   1      34.578  16.362   8.190  0.00  0.00     0.080 A 
HETATM    7  C   UNK N   1      34.633  15.711   6.946  0.00  0.00     0.085 A 
HETATM    8  N   UNK N   1      35.532  13.533  11.192  0.00  0.00     0.097 N 
HETATM    9  S   UNK N   1      34.949  14.101   7.216  0.00  0.00    -0.074 SA
ENDROOT
BRANCH   8  10
HETATM   10  C   UNK N   1      35.454  12.404  12.121  0.00  0.00     0.311 C 
BRANCH  10  11
HETATM   11  C   UNK N   1      35.619  12.779  13.577  0.00  0.00    -0.030 A 
HETATM   12  C   UNK N   1      34.681  12.306  14.503  0.00  0.00     0.009 A 
HETATM   13  C   UNK N   1      34.778  12.660  15.852  0.00  0.00     0.001 A 
HETATM   14  C   UNK N   1      35.808  13.501  16.284  0.00  0.00     0.000 A 
HETATM   15  C   UNK N   1      36.750  13.977  15.369  0.00  0.00     0.001 A 
HETATM   16  C   UNK N   1      36.659  13.614  14.023  0.00  0.00     0.009 A 
ENDBRANCH  10  11
ENDBRANCH   8  10
BRANCH   6  17
HETATM   17  C   UNK N   1      34.324  17.815   8.370  0.00  0.00     0.296 C 
HETATM   18  O   UNK N   1      35.199  18.534   8.830  0.00  0.00    -0.259 OA
BRANCH  17  19
HETATM   19  O   UNK N   1      33.131  18.346   8.006  0.00  0.00    -0.318 OA
BRANCH  19  20
HETATM   20  C   UNK N   1      31.937  17.822   8.448  0.00  0.00     0.174 C 
HETATM   21  C   UNK N   1      31.165  17.255   7.277  0.00  0.00     0.034 C 
ENDBRANCH  19  20
ENDBRANCH  17  19
ENDBRANCH   6  17
BRANCH   7  22
HETATM   22  N   UNK N   1      34.447  16.302   5.679  0.00  0.00    -0.393 N 
HETATM   23  H   UNK N   1      34.237  15.739   4.899  0.00  0.00     0.156 HD
HETATM   24  H   UNK N   1      34.527  17.277   5.575  0.00  0.00     0.156 HD
ENDBRANCH   7  22
TORSDOF 6
ENDMDL
MODEL 7
REMARK VINA RESULT:      -6.1      3.922      5.997
REMARK  6 active torsions:
REMARK  status: ('A' for Active; 'I' for Inactive)
REMARK    1  A    between atoms: O_21  and  C_2 
REMARK    2  A    between atoms: C_12  and  C_10 
REMARK    3  A    between atoms: N_19  and  C_10 
REMARK    4  A    between atoms: C_17  and  C_15 
REMARK    5  A    between atoms: N_18  and  C_16 
REMARK    6  A    between atoms: O_21  and  C_17 
ROOT
HETATM    1  C   UNK N   1      22.989  17.715   4.243  0.00  0.00     0.071 C 
HETATM    2  C   UNK N   1      24.337  18.267   3.779  0.00  0.00     0.278 C 
HETATM    3  C   UNK N   1      23.497  20.412   3.070  0.00  0.00     0.319 C 
HETATM    4  C   UNK N   1      21.898  18.483   3.565  0.00  0.00    -0.022 A 
HETATM    5  C   UNK N   1      22.155  19.736   3.005  0.00  0.00     0.020 A 
HETATM    6  C   UNK N   1      20.549  18.038   3.392  0.00  0.00     0.080 A 
HETATM    7  C   UNK N   1      19.785  18.963   2.660  0.00  0.00     0.085 A 
HETATM    8  N   UNK N   1      24.385  19.715   4.020  0.00  0.00     0.097 N 
HETATM    9  S   UNK N   1      20.757  20.258   2.283  0.00  0.00    -0.074 SA
ENDROOT
BRANCH   8  10
HETATM   10  C   UNK N   1      25.746  20.207   3.800  0.00  0.00     0.311 C 
BRANCH  10  11
HETATM   11  C   UNK N   1      26.778  19.638   4.749  0.00  0.00    -0.030 A 
HETATM   12  C   UNK N   1      26.792  20.089   6.074  0.00  0.00     0.009 A 
HETATM   13  C   UNK N   1      27.754  19.615   6.973  0.00  0.00     0.001 A 
HETATM   14  C   UNK N   1      28.715  18.694   6.549  0.00  0.00     0.000 A 
HETATM   15  C   UNK N   1      28.709  18.235   5.229  0.00  0.00     0.001 A 
HETATM   16  C   UNK N   1      27.742  18.701   4.335  0.00  0.00     0.009 A 
ENDBRANCH  10  11
ENDBRANCH   8  10
BRANCH   6  17
HETATM   17  C   UNK N   1      20.032  16.749   3.919  0.00  0.00     0.296 C 
HETATM   18  O   UNK N   1      19.170  16.748   4.786  0.00  0.00    -0.259 OA
BRANCH  17  19
HETATM   19  O   UNK N   1      20.501  15.576   3.426  0.00  0.00    -0.318 OA
BRANCH  19  20
HETATM   20  C   UNK N   1      20.075  15.075   2.217  0.00  0.00     0.174 C 
HETATM   21  C   UNK N   1      21.183  15.200   1.194  0.00  0.00     0.034 C 
ENDBRANCH  19  20
ENDBRANCH  17  19
ENDBRANCH   6  17
BRANCH   7  22
HETATM   22  N   UNK N   1      18.429  18.831   2.294  0.00  0.00    -0.393 N 
HETATM   23  H   UNK N   1      17.754  18.612   2.975  0.00  0.00     0.156 HD
HETATM   24  H   UNK N   1      18.159  18.957   1.356  0.00  0.00     0.156 HD
ENDBRANCH   7  22
TORSDOF 6
ENDMDL
MODEL 8
REMARK VINA RESULT:      -6.1     13.607     15.554
REMARK  6 active torsions:
REMARK  status: ('A' for Active; 'I' for Inactive)
REMARK    1  A    between atoms: O_21  and  C_2 
REMARK    2  A    between atoms: C_12  and  C_10 
REMARK    3  A    between atoms: N_19  and  C_10 
REMARK    4  A    between atoms: C_17  and  C_15 
REMARK    5  A    between atoms: N_18  and  C_16 
REMARK    6  A    between atoms: O_21  and  C_17 
ROOT
HETATM    1  C   UNK N   1      28.513  23.050  -6.165  0.00  0.00     0.071 C 
HETATM    2  C   UNK N   1      27.201  23.743  -5.797  0.00  0.00     0.278 C 
HETATM    3  C   UNK N   1      27.961  24.603  -3.678  0.00  0.00     0.319 C 
HETATM    4  C   UNK N   1      29.296  22.811  -4.913  0.00  0.00    -0.022 A 
HETATM    5  C   UNK N   1      29.015  23.533  -3.751  0.00  0.00     0.020 A 
HETATM    6  C   UNK N   1      30.344  21.849  -4.756  0.00  0.00     0.080 A 
HETATM    7  C   UNK N   1      30.839  21.827  -3.441  0.00  0.00     0.085 A 
HETATM    8  N   UNK N   1      27.488  24.962  -5.028  0.00  0.00     0.097 N 
HETATM    9  S   UNK N   1      30.012  22.966  -2.556  0.00  0.00    -0.074 SA
ENDROOT
BRANCH   8  10
HETATM   10  C   UNK N   1      26.263  25.749  -4.877  0.00  0.00     0.311 C 
BRANCH  10  11
HETATM   11  C   UNK N   1      26.486  27.242  -4.777  0.00  0.00    -0.030 A 
HETATM   12  C   UNK N   1      27.270  27.871  -5.752  0.00  0.00     0.009 A 
HETATM   13  C   UNK N   1      27.530  29.243  -5.674  0.00  0.00     0.001 A 
HETATM   14  C   UNK N   1      27.016  29.994  -4.614  0.00  0.00     0.000 A 
HETATM   15  C   UNK N   1      26.232  29.378  -3.636  0.00  0.00     0.001 A 
HETATM   16  C   UNK N   1      25.964  28.009  -3.721  0.00  0.00     0.009 A 
ENDBRANCH  10  11
ENDBRANCH   8  10
BRANCH   6  17
HETATM   17  C   UNK N   1      30.835  20.979  -5.854  0.00  0.00     0.296 C 
HETATM   18  O   UNK N   1      31.975  21.114  -6.276  0.00  0.00    -0.259 OA
BRANCH  17  19
HETATM   19  O   UNK N   1      30.028  20.022  -6.377  0.00  0.00    -0.318 OA
BRANCH  19  20
HETATM   20  C   UNK N   1      29.740  19.971  -7.722  0.00  0.00     0.174 C 
HETATM   21  C   UNK N   1      29.671  18.528  -8.173  0.00  0.00     0.034 C 
ENDBRANCH  19  20
ENDBRANCH  17  19
ENDBRANCH   6  17
BRANCH   7  22
HETATM   22  N   UNK N   1      31.855  20.988  -2.939  0.00  0.00    -0.393 N 
HETATM   23  H   UNK N   1      31.992  20.093  -3.326  0.00  0.00     0.156 HD
HETATM   24  H   UNK N   1      32.428  21.297  -2.200  0.00  0.00     0.156 HD
ENDBRANCH   7  22
TORSDOF 6
ENDMDL
MODEL 9
REMARK VINA RESULT:      -6.0      2.373      3.425
REMARK  6 active torsions:
REMARK  status: ('A' for Active; 'I' for Inactive)
REMARK    1  A    between atoms: O_21  and  C_2 
REMARK    2  A    between atoms: C_12  and  C_10 
REMARK    3  A    between atoms: N_19  and  C_10 
REMARK    4  A    between atoms: C_17  and  C_15 
REMARK    5  A    between atoms: N_18  and  C_16 
REMARK    6  A    between atoms: O_21  and  C_17 
ROOT
HETATM    1  C   UNK N   1      21.606  16.692   6.760  0.00  0.00     0.071 C 
HETATM    2  C   UNK N   1      21.080  15.960   7.994  0.00  0.00     0.278 C 
HETATM    3  C   UNK N   1      20.353  13.985   6.819  0.00  0.00     0.319 C 
HETATM    4  C   UNK N   1      20.952  16.115   5.544  0.00  0.00    -0.022 A 
HETATM    5  C   UNK N   1      20.354  14.854   5.592  0.00  0.00     0.020 A 
HETATM    6  C   UNK N   1      20.840  16.760   4.272  0.00  0.00     0.080 A 
HETATM    7  C   UNK N   1      20.116  15.980   3.354  0.00  0.00     0.085 A 
HETATM    8  N   UNK N   1      21.285  14.514   7.833  0.00  0.00     0.097 N 
HETATM    9  S   UNK N   1      19.674  14.567   4.109  0.00  0.00    -0.074 SA
ENDROOT
BRANCH   8  10
HETATM   10  C   UNK N   1      21.003  13.832   9.097  0.00  0.00     0.311 C 
BRANCH  10  11
HETATM   11  C   UNK N   1      22.219  13.238   9.773  0.00  0.00    -0.030 A 
HETATM   12  C   UNK N   1      23.475  13.424   9.182  0.00  0.00     0.009 A 
HETATM   13  C   UNK N   1      24.619  12.860   9.756  0.00  0.00     0.001 A 
HETATM   14  C   UNK N   1      24.513  12.095  10.921  0.00  0.00     0.000 A 
HETATM   15  C   UNK N   1      23.266  11.904  11.520  0.00  0.00     0.001 A 
HETATM   16  C   UNK N   1      22.126  12.477  10.952  0.00  0.00     0.009 A 
ENDBRANCH  10  11
ENDBRANCH   8  10
BRANCH   6  17
HETATM   17  C   UNK N   1      21.416  18.096   3.972  0.00  0.00     0.296 C 
HETATM   18  O   UNK N   1      22.598  18.198   3.679  0.00  0.00    -0.259 OA
BRANCH  17  19
HETATM   19  O   UNK N   1      20.627  19.199   4.003  0.00  0.00    -0.318 OA
BRANCH  19  20
HETATM   20  C   UNK N   1      20.055  19.714   2.862  0.00  0.00     0.174 C 
HETATM   21  C   UNK N   1      20.951  20.785   2.281  0.00  0.00     0.034 C 
ENDBRANCH  19  20
ENDBRANCH  17  19
ENDBRANCH   6  17
BRANCH   7  22
HETATM   22  N   UNK N   1      19.804  16.323   2.022  0.00  0.00    -0.393 N 
HETATM   23  H   UNK N   1      19.368  15.665   1.433  0.00  0.00     0.156 HD
HETATM   24  H   UNK N   1      20.021  17.220   1.681  0.00  0.00     0.156 HD
ENDBRANCH   7  22
TORSDOF 6
ENDMDL
