REMARK  0 active torsions:
REMARK  status: ('A' for Active; 'I' for Inactive)
REMARK       I    between atoms: C_1  and  N_4 
REMARK       I    between atoms: C_1  and  N_5 
REMARK       I    between atoms: N_5  and  C_6 
REMARK       I    between atoms: C_6  and  N_9 
ROOT
HETATM    1  C   UNK N   1       1.009   1.964   0.000  0.00  0.00     0.683 C 
HETATM    2  N   UNK N   1       1.712   3.034  -0.000  0.00  0.00    -0.234 N 
ATOM      3  HN  UNK N   1       1.254   3.945  -0.000  1.00  0.00     0.174 HD
HETATM    4  N   UNK N   1      -0.401   2.062   0.000  0.00  0.00    -0.234 N 
HETATM    5  N   UNK N   1       1.662   0.699  -0.000  0.00  0.00    -0.024 N 
HETATM    6  C   UNK N   1       0.999  -0.561  -0.000  0.00  0.00     0.683 C 
HETATM    7  N   UNK N   1       1.694  -1.637   0.000  0.00  0.00    -0.234 N 
ATOM      8  HN  UNK N   1       2.712  -1.586   0.000  1.00  0.00     0.174 HD
HETATM    9  N   UNK N   1      -0.412  -0.648  -0.000  0.00  0.00    -0.234 N 
HETATM   10  H   UNK N   1       2.695   2.977  -0.000  0.00  0.00     0.174 HD
HETATM   11  H   UNK N   1      -0.833   2.947  -0.000  0.00  0.00     0.174 HD
HETATM   12  H   UNK N   1      -0.951   1.246   0.000  0.00  0.00     0.174 HD
HETATM   13  H   UNK N   1       2.647   0.696  -0.000  0.00  0.00     0.203 HD
HETATM   14  H   UNK N   1       1.244  -2.513   0.000  0.00  0.00     0.174 HD
HETATM   15  H   UNK N   1      -0.956   0.173   0.000  0.00  0.00     0.174 HD
HETATM   16  H   UNK N   1      -0.851  -1.529  -0.000  0.00  0.00     0.174 HD
ENDROOT
TORSDOF 0
