MODEL 1
REMARK VINA RESULT:      -7.4      0.000      0.000
REMARK  5 active torsions:
REMARK  status: ('A' for Active; 'I' for Inactive)
REMARK    1  A    between atoms: C_3  and  O_26 
REMARK    2  A    between atoms: C_10  and  C_19 
REMARK    3  A    between atoms: C_11  and  C_12 
REMARK    4  A    between atoms: C_15  and  O_18 
REMARK    5  A    between atoms: C_22  and  O_25 
ROOT
HETATM    1  C   UNK N   1      26.562  20.719   7.178  0.00  0.00     0.054 C 
HETATM    2  C   UNK N   1      27.260  19.760   6.268  0.00  0.00     0.005 A 
HETATM    3  C   UNK N   1      26.849  19.634   4.931  0.00  0.00     0.074 A 
HETATM    4  C   UNK N   1      27.498  18.736   4.083  0.00  0.00     0.038 A 
HETATM    5  C   UNK N   1      28.555  17.958   4.557  0.00  0.00     0.013 A 
HETATM    6  C   UNK N   1      28.983  18.077   5.889  0.00  0.00    -0.015 A 
HETATM    7  C   UNK N   1      28.327  18.983   6.749  0.00  0.00     0.084 A 
HETATM    8  O   UNK N   1      28.730  19.118   8.039  0.00  0.00    -0.349 OA
HETATM    9  C   UNK N   1      29.703  18.326   8.620  0.00  0.00     0.186 C 
HETATM   10  C   UNK N   1      30.812  17.951   7.622  0.00  0.00     0.056 C 
HETATM   11  C   UNK N   1      30.136  17.246   6.424  0.00  0.00     0.065 C 
ENDROOT
BRANCH  10  12
HETATM   12  C   UNK N   1      31.887  17.103   8.277  0.00  0.00    -0.051 A 
HETATM   13  C   UNK N   1      31.597  15.836   8.815  0.00  0.00     0.010 A 
HETATM   14  C   UNK N   1      32.600  15.075   9.421  0.00  0.00     0.037 A 
HETATM   15  C   UNK N   1      33.901  15.574   9.503  0.00  0.00     0.065 A 
HETATM   16  C   UNK N   1      34.199  16.835   8.983  0.00  0.00     0.037 A 
HETATM   17  C   UNK N   1      33.198  17.597   8.376  0.00  0.00     0.010 A 
BRANCH  15  18
HETATM   18  O   UNK N   1      34.866  14.841  10.083  0.00  0.00    -0.361 OA
HETATM   19  H   UNK N   1      35.288  15.148  10.860  0.00  0.00     0.217 HD
ENDBRANCH  15  18
ENDBRANCH  10  12
BRANCH  11  20
HETATM   20  C   UNK N   1      31.067  16.745   5.350  0.00  0.00    -0.049 A 
HETATM   21  C   UNK N   1      31.068  15.381   5.037  0.00  0.00     0.011 A 
HETATM   22  C   UNK N   1      31.909  14.889   4.036  0.00  0.00     0.037 A 
HETATM   23  C   UNK N   1      32.746  15.762   3.335  0.00  0.00     0.065 A 
HETATM   24  C   UNK N   1      32.750  17.126   3.643  0.00  0.00     0.037 A 
HETATM   25  C   UNK N   1      31.916  17.619   4.653  0.00  0.00     0.011 A 
BRANCH  23  26
HETATM   26  O   UNK N   1      33.545  15.289   2.365  0.00  0.00    -0.361 OA
HETATM   27  H   UNK N   1      33.730  15.809   1.608  0.00  0.00     0.217 HD
ENDBRANCH  23  26
ENDBRANCH  11  20
BRANCH   3  28
HETATM   28  O   UNK N   1      25.832  20.376   4.457  0.00  0.00    -0.360 OA
HETATM   29  H   UNK N   1      25.532  20.256   3.578  0.00  0.00     0.217 HD
ENDBRANCH   3  28
TORSDOF 5
ENDMDL
MODEL 2
REMARK VINA RESULT:      -7.3     11.465     15.589
REMARK  5 active torsions:
REMARK  status: ('A' for Active; 'I' for Inactive)
REMARK    1  A    between atoms: C_3  and  O_26 
REMARK    2  A    between atoms: C_10  and  C_19 
REMARK    3  A    between atoms: C_11  and  C_12 
REMARK    4  A    between atoms: C_15  and  O_18 
REMARK    5  A    between atoms: C_22  and  O_25 
ROOT
HETATM    1  C   UNK N   1      32.122  20.186  -4.677  0.00  0.00     0.054 C 
HETATM    2  C   UNK N   1      31.265  21.285  -4.137  0.00  0.00     0.005 A 
HETATM    3  C   UNK N   1      31.490  21.779  -2.841  0.00  0.00     0.074 A 
HETATM    4  C   UNK N   1      30.688  22.802  -2.335  0.00  0.00     0.038 A 
HETATM    5  C   UNK N   1      29.660  23.340  -3.111  0.00  0.00     0.013 A 
HETATM    6  C   UNK N   1      29.426  22.863  -4.411  0.00  0.00    -0.015 A 
HETATM    7  C   UNK N   1      30.235  21.827  -4.923  0.00  0.00     0.084 A 
HETATM    8  O   UNK N   1      30.030  21.356  -6.181  0.00  0.00    -0.349 OA
HETATM    9  C   UNK N   1      28.981  21.761  -6.985  0.00  0.00     0.186 C 
HETATM   10  C   UNK N   1      28.635  23.245  -6.775  0.00  0.00     0.056 C 
HETATM   11  C   UNK N   1      28.318  23.438  -5.275  0.00  0.00     0.065 C 
ENDROOT
BRANCH  10  12
HETATM   12  C   UNK N   1      27.499  23.686  -7.681  0.00  0.00    -0.051 A 
HETATM   13  C   UNK N   1      26.255  23.029  -7.671  0.00  0.00     0.010 A 
HETATM   14  C   UNK N   1      25.225  23.445  -8.518  0.00  0.00     0.037 A 
HETATM   15  C   UNK N   1      25.428  24.516  -9.389  0.00  0.00     0.065 A 
HETATM   16  C   UNK N   1      26.662  25.169  -9.417  0.00  0.00     0.037 A 
HETATM   17  C   UNK N   1      27.692  24.755  -8.569  0.00  0.00     0.010 A 
BRANCH  15  18
HETATM   18  O   UNK N   1      24.437  24.918 -10.201  0.00  0.00    -0.361 OA
HETATM   19  H   UNK N   1      23.643  25.262  -9.843  0.00  0.00     0.217 HD
ENDBRANCH  15  18
ENDBRANCH  10  12
BRANCH  11  20
HETATM   20  C   UNK N   1      27.897  24.827  -4.869  0.00  0.00    -0.049 A 
HETATM   21  C   UNK N   1      26.667  25.000  -4.223  0.00  0.00     0.011 A 
HETATM   22  C   UNK N   1      26.256  26.273  -3.821  0.00  0.00     0.037 A 
HETATM   23  C   UNK N   1      27.079  27.379  -4.053  0.00  0.00     0.065 A 
HETATM   24  C   UNK N   1      28.309  27.213  -4.698  0.00  0.00     0.037 A 
HETATM   25  C   UNK N   1      28.717  25.940  -5.111  0.00  0.00     0.011 A 
BRANCH  23  26
HETATM   26  O   UNK N   1      26.687  28.600  -3.655  0.00  0.00    -0.361 OA
HETATM   27  H   UNK N   1      26.822  29.344  -4.208  0.00  0.00     0.217 HD
ENDBRANCH  23  26
ENDBRANCH  11  20
BRANCH   3  28
HETATM   28  O   UNK N   1      32.477  21.273  -2.080  0.00  0.00    -0.360 OA
HETATM   29  H   UNK N   1      32.279  20.659  -1.401  0.00  0.00     0.217 HD
ENDBRANCH   3  28
TORSDOF 5
ENDMDL
MODEL 3
REMARK VINA RESULT:      -7.2     11.997     15.388
REMARK  5 active torsions:
REMARK  status: ('A' for Active; 'I' for Inactive)
REMARK    1  A    between atoms: C_3  and  O_26 
REMARK    2  A    between atoms: C_10  and  C_19 
REMARK    3  A    between atoms: C_11  and  C_12 
REMARK    4  A    between atoms: C_15  and  O_18 
REMARK    5  A    between atoms: C_22  and  O_25 
ROOT
HETATM    1  C   UNK N   1      25.100  24.690 -10.040  0.00  0.00     0.054 C 
HETATM    2  C   UNK N   1      25.590  24.078  -8.767  0.00  0.00     0.005 A 
HETATM    3  C   UNK N   1      25.686  22.681  -8.651  0.00  0.00     0.074 A 
HETATM    4  C   UNK N   1      26.139  22.109  -7.462  0.00  0.00     0.038 A 
HETATM    5  C   UNK N   1      26.498  22.919  -6.384  0.00  0.00     0.013 A 
HETATM    6  C   UNK N   1      26.416  24.317  -6.486  0.00  0.00    -0.015 A 
HETATM    7  C   UNK N   1      25.955  24.897  -7.686  0.00  0.00     0.084 A 
HETATM    8  O   UNK N   1      25.875  26.248  -7.808  0.00  0.00    -0.349 OA
HETATM    9  C   UNK N   1      26.120  27.123  -6.766  0.00  0.00     0.186 C 
HETATM   10  C   UNK N   1      27.234  26.613  -5.837  0.00  0.00     0.056 C 
HETATM   11  C   UNK N   1      26.809  25.217  -5.328  0.00  0.00     0.065 C 
ENDROOT
BRANCH  10  12
HETATM   12  C   UNK N   1      27.512  27.593  -4.711  0.00  0.00    -0.051 A 
HETATM   13  C   UNK N   1      28.827  27.926  -4.336  0.00  0.00     0.010 A 
HETATM   14  C   UNK N   1      29.061  28.825  -3.291  0.00  0.00     0.037 A 
HETATM   15  C   UNK N   1      27.987  29.394  -2.606  0.00  0.00     0.065 A 
HETATM   16  C   UNK N   1      26.677  29.062  -2.961  0.00  0.00     0.037 A 
HETATM   17  C   UNK N   1      26.441  28.165  -4.007  0.00  0.00     0.010 A 
BRANCH  15  18
HETATM   18  O   UNK N   1      28.212  30.259  -1.604  0.00  0.00    -0.361 OA
HETATM   19  H   UNK N   1      29.076  30.365  -1.258  0.00  0.00     0.217 HD
ENDBRANCH  15  18
ENDBRANCH  10  12
BRANCH  11  20
HETATM   20  C   UNK N   1      27.749  24.563  -4.349  0.00  0.00    -0.049 A 
HETATM   21  C   UNK N   1      29.101  24.437  -4.688  0.00  0.00     0.011 A 
HETATM   22  C   UNK N   1      30.000  23.849  -3.795  0.00  0.00     0.037 A 
HETATM   23  C   UNK N   1      29.552  23.394  -2.551  0.00  0.00     0.065 A 
HETATM   24  C   UNK N   1      28.203  23.518  -2.205  0.00  0.00     0.037 A 
HETATM   25  C   UNK N   1      27.299  24.097  -3.104  0.00  0.00     0.011 A 
BRANCH  23  26
HETATM   26  O   UNK N   1      30.420  22.840  -1.689  0.00  0.00    -0.361 OA
HETATM   27  H   UNK N   1      30.195  22.748  -0.785  0.00  0.00     0.217 HD
ENDBRANCH  23  26
ENDBRANCH  11  20
BRANCH   3  28
HETATM   28  O   UNK N   1      25.344  21.886  -9.681  0.00  0.00    -0.360 OA
HETATM   29  H   UNK N   1      25.801  21.081  -9.826  0.00  0.00     0.217 HD
ENDBRANCH   3  28
TORSDOF 5
ENDMDL
MODEL 4
REMARK VINA RESULT:      -7.0     11.209     14.960
REMARK  5 active torsions:
REMARK  status: ('A' for Active; 'I' for Inactive)
REMARK    1  A    between atoms: C_3  and  O_26 
REMARK    2  A    between atoms: C_10  and  C_19 
REMARK    3  A    between atoms: C_11  and  C_12 
REMARK    4  A    between atoms: C_15  and  O_18 
REMARK    5  A    between atoms: C_22  and  O_25 
ROOT
HETATM    1  C   UNK N   1      32.424  21.382  -2.921  0.00  0.00     0.054 C 
HETATM    2  C   UNK N   1      31.521  21.577  -4.095  0.00  0.00     0.005 A 
HETATM    3  C   UNK N   1      31.477  20.612  -5.116  0.00  0.00     0.074 A 
HETATM    4  C   UNK N   1      30.637  20.796  -6.214  0.00  0.00     0.038 A 
HETATM    5  C   UNK N   1      29.837  21.936  -6.306  0.00  0.00     0.013 A 
HETATM    6  C   UNK N   1      29.863  22.906  -5.292  0.00  0.00    -0.015 A 
HETATM    7  C   UNK N   1      30.714  22.724  -4.181  0.00  0.00     0.084 A 
HETATM    8  O   UNK N   1      30.748  23.647  -3.185  0.00  0.00    -0.349 OA
HETATM    9  C   UNK N   1      30.064  24.847  -3.235  0.00  0.00     0.186 C 
HETATM   10  C   UNK N   1      28.712  24.710  -3.955  0.00  0.00     0.056 C 
HETATM   11  C   UNK N   1      28.996  24.150  -5.367  0.00  0.00     0.065 C 
ENDROOT
BRANCH  10  12
HETATM   12  C   UNK N   1      27.958  26.027  -3.981  0.00  0.00    -0.051 A 
HETATM   13  C   UNK N   1      28.548  27.200  -4.486  0.00  0.00     0.010 A 
HETATM   14  C   UNK N   1      27.839  28.405  -4.494  0.00  0.00     0.037 A 
HETATM   15  C   UNK N   1      26.538  28.452  -3.991  0.00  0.00     0.065 A 
HETATM   16  C   UNK N   1      25.946  27.296  -3.476  0.00  0.00     0.037 A 
HETATM   17  C   UNK N   1      26.653  26.091  -3.470  0.00  0.00     0.010 A 
BRANCH  15  18
HETATM   18  O   UNK N   1      25.856  29.609  -4.000  0.00  0.00    -0.361 OA
HETATM   19  H   UNK N   1      25.360  29.870  -3.250  0.00  0.00     0.217 HD
ENDBRANCH  15  18
ENDBRANCH  10  12
BRANCH  11  20
HETATM   20  C   UNK N   1      27.794  23.993  -6.263  0.00  0.00    -0.049 A 
HETATM   21  C   UNK N   1      27.769  24.668  -7.489  0.00  0.00     0.011 A 
HETATM   22  C   UNK N   1      26.675  24.530  -8.346  0.00  0.00     0.037 A 
HETATM   23  C   UNK N   1      25.604  23.707  -7.986  0.00  0.00     0.065 A 
HETATM   24  C   UNK N   1      25.623  23.030  -6.763  0.00  0.00     0.037 A 
HETATM   25  C   UNK N   1      26.713  23.175  -5.897  0.00  0.00     0.011 A 
BRANCH  23  26
HETATM   26  O   UNK N   1      24.559  23.566  -8.818  0.00  0.00    -0.361 OA
HETATM   27  H   UNK N   1      23.684  23.574  -8.484  0.00  0.00     0.217 HD
ENDBRANCH  23  26
ENDBRANCH  11  20
BRANCH   3  28
HETATM   28  O   UNK N   1      32.241  19.507  -5.043  0.00  0.00    -0.360 OA
HETATM   29  H   UNK N   1      33.001  19.425  -5.583  0.00  0.00     0.217 HD
ENDBRANCH   3  28
TORSDOF 5
ENDMDL
MODEL 5
REMARK VINA RESULT:      -6.9      2.802      7.200
REMARK  5 active torsions:
REMARK  status: ('A' for Active; 'I' for Inactive)
REMARK    1  A    between atoms: C_3  and  O_26 
REMARK    2  A    between atoms: C_10  and  C_19 
REMARK    3  A    between atoms: C_11  and  C_12 
REMARK    4  A    between atoms: C_15  and  O_18 
REMARK    5  A    between atoms: C_22  and  O_25 
ROOT
HETATM    1  C   UNK N   1      30.204  18.851   9.469  0.00  0.00     0.054 C 
HETATM    2  C   UNK N   1      30.015  17.973   8.275  0.00  0.00     0.005 A 
HETATM    3  C   UNK N   1      30.786  16.807   8.131  0.00  0.00     0.074 A 
HETATM    4  C   UNK N   1      30.613  15.989   7.015  0.00  0.00     0.038 A 
HETATM    5  C   UNK N   1      29.677  16.323   6.036  0.00  0.00     0.013 A 
HETATM    6  C   UNK N   1      28.892  17.479   6.167  0.00  0.00    -0.015 A 
HETATM    7  C   UNK N   1      29.067  18.310   7.294  0.00  0.00     0.084 A 
HETATM    8  O   UNK N   1      28.313  19.430   7.445  0.00  0.00    -0.349 OA
HETATM    9  C   UNK N   1      27.429  19.888   6.485  0.00  0.00     0.186 C 
HETATM   10  C   UNK N   1      26.746  18.733   5.734  0.00  0.00     0.056 C 
HETATM   11  C   UNK N   1      27.861  17.858   5.118  0.00  0.00     0.065 C 
ENDROOT
BRANCH  10  12
HETATM   12  C   UNK N   1      25.760  19.247   4.701  0.00  0.00    -0.051 A 
HETATM   13  C   UNK N   1      26.155  20.141   3.689  0.00  0.00     0.010 A 
HETATM   14  C   UNK N   1      25.229  20.609   2.753  0.00  0.00     0.037 A 
HETATM   15  C   UNK N   1      23.898  20.194   2.820  0.00  0.00     0.065 A 
HETATM   16  C   UNK N   1      23.491  19.315   3.827  0.00  0.00     0.037 A 
HETATM   17  C   UNK N   1      24.416  18.846   4.763  0.00  0.00     0.010 A 
BRANCH  15  18
HETATM   18  O   UNK N   1      23.009  20.641   1.919  0.00  0.00    -0.361 OA
HETATM   19  H   UNK N   1      22.424  21.338   2.139  0.00  0.00     0.217 HD
ENDBRANCH  15  18
ENDBRANCH  10  12
BRANCH  11  20
HETATM   20  C   UNK N   1      27.393  16.692   4.286  0.00  0.00    -0.049 A 
HETATM   21  C   UNK N   1      26.400  15.850   4.796  0.00  0.00     0.011 A 
HETATM   22  C   UNK N   1      25.935  14.770   4.042  0.00  0.00     0.037 A 
HETATM   23  C   UNK N   1      26.455  14.534   2.765  0.00  0.00     0.065 A 
HETATM   24  C   UNK N   1      27.449  15.372   2.249  0.00  0.00     0.037 A 
HETATM   25  C   UNK N   1      27.923  16.448   3.008  0.00  0.00     0.011 A 
BRANCH  23  26
HETATM   26  O   UNK N   1      25.999  13.503   2.037  0.00  0.00    -0.361 OA
HETATM   27  H   UNK N   1      26.386  12.655   2.123  0.00  0.00     0.217 HD
ENDBRANCH  23  26
ENDBRANCH  11  20
BRANCH   3  28
HETATM   28  O   UNK N   1      31.694  16.470   9.065  0.00  0.00    -0.360 OA
HETATM   29  H   UNK N   1      32.213  17.133   9.476  0.00  0.00     0.217 HD
ENDBRANCH   3  28
TORSDOF 5
ENDMDL
MODEL 6
REMARK VINA RESULT:      -6.8     12.762     16.298
REMARK  5 active torsions:
REMARK  status: ('A' for Active; 'I' for Inactive)
REMARK    1  A    between atoms: C_3  and  O_26 
REMARK    2  A    between atoms: C_10  and  C_19 
REMARK    3  A    between atoms: C_11  and  C_12 
REMARK    4  A    between atoms: C_15  and  O_18 
REMARK    5  A    between atoms: C_22  and  O_25 
ROOT
HETATM    1  C   UNK N   1      26.235  23.373 -11.263  0.00  0.00     0.054 C 
HETATM    2  C   UNK N   1      26.713  23.054  -9.884  0.00  0.00     0.005 A 
HETATM    3  C   UNK N   1      27.246  21.785  -9.601  0.00  0.00     0.074 A 
HETATM    4  C   UNK N   1      27.688  21.486  -8.312  0.00  0.00     0.038 A 
HETATM    5  C   UNK N   1      27.603  22.441  -7.299  0.00  0.00     0.013 A 
HETATM    6  C   UNK N   1      27.080  23.716  -7.566  0.00  0.00    -0.015 A 
HETATM    7  C   UNK N   1      26.630  24.021  -8.868  0.00  0.00     0.084 A 
HETATM    8  O   UNK N   1      26.127  25.251  -9.150  0.00  0.00    -0.349 OA
HETATM    9  C   UNK N   1      25.919  26.227  -8.192  0.00  0.00     0.186 C 
HETATM   10  C   UNK N   1      26.995  26.193  -7.093  0.00  0.00     0.056 C 
HETATM   11  C   UNK N   1      26.986  24.774  -6.481  0.00  0.00     0.065 C 
ENDROOT
BRANCH  10  12
HETATM   12  C   UNK N   1      26.771  27.283  -6.061  0.00  0.00    -0.051 A 
HETATM   13  C   UNK N   1      25.770  27.171  -5.079  0.00  0.00     0.010 A 
HETATM   14  C   UNK N   1      25.575  28.190  -4.143  0.00  0.00     0.037 A 
HETATM   15  C   UNK N   1      26.372  29.335  -4.183  0.00  0.00     0.065 A 
HETATM   16  C   UNK N   1      27.361  29.464  -5.161  0.00  0.00     0.037 A 
HETATM   17  C   UNK N   1      27.558  28.445  -6.096  0.00  0.00     0.010 A 
BRANCH  15  18
HETATM   18  O   UNK N   1      26.186  30.314  -3.282  0.00  0.00    -0.361 OA
HETATM   19  H   UNK N   1      26.058  31.197  -3.565  0.00  0.00     0.217 HD
ENDBRANCH  15  18
ENDBRANCH  10  12
BRANCH  11  20
HETATM   20  C   UNK N   1      27.939  24.549  -5.336  0.00  0.00    -0.049 A 
HETATM   21  C   UNK N   1      27.434  24.096  -4.112  0.00  0.00     0.011 A 
HETATM   22  C   UNK N   1      28.296  23.865  -3.037  0.00  0.00     0.037 A 
HETATM   23  C   UNK N   1      29.670  24.075  -3.185  0.00  0.00     0.065 A 
HETATM   24  C   UNK N   1      30.181  24.527  -4.405  0.00  0.00     0.037 A 
HETATM   25  C   UNK N   1      29.318  24.770  -5.480  0.00  0.00     0.011 A 
BRANCH  23  26
HETATM   26  O   UNK N   1      30.498  23.840  -2.154  0.00  0.00    -0.361 OA
HETATM   27  H   UNK N   1      30.562  22.982  -1.784  0.00  0.00     0.217 HD
ENDBRANCH  23  26
ENDBRANCH  11  20
BRANCH   3  28
HETATM   28  O   UNK N   1      27.336  20.852 -10.566  0.00  0.00    -0.360 OA
HETATM   29  H   UNK N   1      28.157  20.442 -10.749  0.00  0.00     0.217 HD
ENDBRANCH   3  28
TORSDOF 5
ENDMDL
MODEL 7
REMARK VINA RESULT:      -6.7      2.395      5.028
REMARK  5 active torsions:
REMARK  status: ('A' for Active; 'I' for Inactive)
REMARK    1  A    between atoms: C_3  and  O_26 
REMARK    2  A    between atoms: C_10  and  C_19 
REMARK    3  A    between atoms: C_11  and  C_12 
REMARK    4  A    between atoms: C_15  and  O_18 
REMARK    5  A    between atoms: C_22  and  O_25 
ROOT
HETATM    1  C   UNK N   1      27.524  17.395   6.425  0.00  0.00     0.054 C 
HETATM    2  C   UNK N   1      28.720  17.580   7.301  0.00  0.00     0.005 A 
HETATM    3  C   UNK N   1      28.650  18.435   8.414  0.00  0.00     0.074 A 
HETATM    4  C   UNK N   1      29.768  18.611   9.230  0.00  0.00     0.038 A 
HETATM    5  C   UNK N   1      30.959  17.942   8.947  0.00  0.00     0.013 A 
HETATM    6  C   UNK N   1      31.044  17.078   7.843  0.00  0.00    -0.015 A 
HETATM    7  C   UNK N   1      29.916  16.900   7.015  0.00  0.00     0.084 A 
HETATM    8  O   UNK N   1      29.975  16.063   5.947  0.00  0.00    -0.349 OA
HETATM    9  C   UNK N   1      31.135  15.433   5.536  0.00  0.00     0.186 C 
HETATM   10  C   UNK N   1      32.030  15.043   6.724  0.00  0.00     0.056 C 
HETATM   11  C   UNK N   1      32.328  16.334   7.520  0.00  0.00     0.065 C 
ENDROOT
BRANCH  10  12
HETATM   12  C   UNK N   1      33.288  14.329   6.264  0.00  0.00    -0.051 A 
HETATM   13  C   UNK N   1      33.550  12.996   6.628  0.00  0.00     0.010 A 
HETATM   14  C   UNK N   1      34.718  12.359   6.200  0.00  0.00     0.037 A 
HETATM   15  C   UNK N   1      35.640  13.049   5.411  0.00  0.00     0.065 A 
HETATM   16  C   UNK N   1      35.396  14.377   5.052  0.00  0.00     0.037 A 
HETATM   17  C   UNK N   1      34.228  15.014   5.478  0.00  0.00     0.010 A 
BRANCH  15  18
HETATM   18  O   UNK N   1      36.761  12.436   4.998  0.00  0.00    -0.361 OA
HETATM   19  H   UNK N   1      37.258  11.911   5.593  0.00  0.00     0.217 HD
ENDBRANCH  15  18
ENDBRANCH  10  12
BRANCH  11  20
HETATM   20  C   UNK N   1      33.246  16.175   8.705  0.00  0.00    -0.049 A 
HETATM   21  C   UNK N   1      33.042  15.103   9.581  0.00  0.00     0.011 A 
HETATM   22  C   UNK N   1      33.886  14.921  10.679  0.00  0.00     0.037 A 
HETATM   23  C   UNK N   1      34.947  15.805  10.900  0.00  0.00     0.065 A 
HETATM   24  C   UNK N   1      35.156  16.878  10.028  0.00  0.00     0.037 A 
HETATM   25  C   UNK N   1      34.305  17.068   8.934  0.00  0.00     0.011 A 
BRANCH  23  26
HETATM   26  O   UNK N   1      35.764  15.621  11.949  0.00  0.00    -0.361 OA
HETATM   27  H   UNK N   1      35.424  15.315  12.766  0.00  0.00     0.217 HD
ENDBRANCH  23  26
ENDBRANCH  11  20
BRANCH   3  28
HETATM   28  O   UNK N   1      27.510  19.088   8.702  0.00  0.00    -0.360 OA
HETATM   29  H   UNK N   1      27.384  19.462   9.551  0.00  0.00     0.217 HD
ENDBRANCH   3  28
TORSDOF 5
ENDMDL
MODEL 8
REMARK VINA RESULT:      -6.7      3.147      5.611
REMARK  5 active torsions:
REMARK  status: ('A' for Active; 'I' for Inactive)
REMARK    1  A    between atoms: C_3  and  O_26 
REMARK    2  A    between atoms: C_10  and  C_19 
REMARK    3  A    between atoms: C_11  and  C_12 
REMARK    4  A    between atoms: C_15  and  O_18 
REMARK    5  A    between atoms: C_22  and  O_25 
ROOT
HETATM    1  C   UNK N   1      27.127  12.350   1.867  0.00  0.00     0.054 C 
HETATM    2  C   UNK N   1      26.914  13.766   2.294  0.00  0.00     0.005 A 
HETATM    3  C   UNK N   1      25.668  14.383   2.088  0.00  0.00     0.074 A 
HETATM    4  C   UNK N   1      25.471  15.706   2.482  0.00  0.00     0.038 A 
HETATM    5  C   UNK N   1      26.506  16.424   3.082  0.00  0.00     0.013 A 
HETATM    6  C   UNK N   1      27.755  15.821   3.302  0.00  0.00    -0.015 A 
HETATM    7  C   UNK N   1      27.958  14.484   2.902  0.00  0.00     0.084 A 
HETATM    8  O   UNK N   1      29.156  13.879   3.112  0.00  0.00    -0.349 OA
HETATM    9  C   UNK N   1      30.265  14.538   3.612  0.00  0.00     0.186 C 
HETATM   10  C   UNK N   1      29.879  15.609   4.647  0.00  0.00     0.056 C 
HETATM   11  C   UNK N   1      28.893  16.581   3.960  0.00  0.00     0.065 C 
ENDROOT
BRANCH  10  12
HETATM   12  C   UNK N   1      31.104  16.307   5.208  0.00  0.00    -0.051 A 
HETATM   13  C   UNK N   1      32.021  16.969   4.370  0.00  0.00     0.010 A 
HETATM   14  C   UNK N   1      33.147  17.599   4.906  0.00  0.00     0.037 A 
HETATM   15  C   UNK N   1      33.374  17.569   6.283  0.00  0.00     0.065 A 
HETATM   16  C   UNK N   1      32.478  16.905   7.124  0.00  0.00     0.037 A 
HETATM   17  C   UNK N   1      31.350  16.277   6.589  0.00  0.00     0.010 A 
BRANCH  15  18
HETATM   18  O   UNK N   1      34.455  18.177   6.798  0.00  0.00    -0.361 OA
HETATM   19  H   UNK N   1      35.165  17.669   7.136  0.00  0.00     0.217 HD
ENDBRANCH  15  18
ENDBRANCH  10  12
BRANCH  11  20
HETATM   20  C   UNK N   1      28.435  17.747   4.797  0.00  0.00    -0.049 A 
HETATM   21  C   UNK N   1      28.305  19.004   4.195  0.00  0.00     0.011 A 
HETATM   22  C   UNK N   1      27.869  20.101   4.941  0.00  0.00     0.037 A 
HETATM   23  C   UNK N   1      27.548  19.943   6.293  0.00  0.00     0.065 A 
HETATM   24  C   UNK N   1      27.675  18.690   6.901  0.00  0.00     0.037 A 
HETATM   25  C   UNK N   1      28.123  17.593   6.157  0.00  0.00     0.011 A 
BRANCH  23  26
HETATM   26  O   UNK N   1      27.117  20.996   7.006  0.00  0.00    -0.361 OA
HETATM   27  H   UNK N   1      26.200  21.136   7.136  0.00  0.00     0.217 HD
ENDBRANCH  23  26
ENDBRANCH  11  20
BRANCH   3  28
HETATM   28  O   UNK N   1      24.659  13.705   1.511  0.00  0.00    -0.360 OA
HETATM   29  H   UNK N   1      24.055  14.149   0.950  0.00  0.00     0.217 HD
ENDBRANCH   3  28
TORSDOF 5
ENDMDL
MODEL 9
REMARK VINA RESULT:      -6.7     12.617     15.881
REMARK  5 active torsions:
REMARK  status: ('A' for Active; 'I' for Inactive)
REMARK    1  A    between atoms: C_3  and  O_26 
REMARK    2  A    between atoms: C_10  and  C_19 
REMARK    3  A    between atoms: C_11  and  C_12 
REMARK    4  A    between atoms: C_15  and  O_18 
REMARK    5  A    between atoms: C_22  and  O_25 
ROOT
HETATM    1  C   UNK N   1      25.892  22.506 -10.955  0.00  0.00     0.054 C 
HETATM    2  C   UNK N   1      25.962  23.767 -10.155  0.00  0.00     0.005 A 
HETATM    3  C   UNK N   1      25.383  24.947 -10.651  0.00  0.00     0.074 A 
HETATM    4  C   UNK N   1      25.451  26.124  -9.906  0.00  0.00     0.038 A 
HETATM    5  C   UNK N   1      26.094  26.138  -8.668  0.00  0.00     0.013 A 
HETATM    6  C   UNK N   1      26.671  24.965  -8.154  0.00  0.00    -0.015 A 
HETATM    7  C   UNK N   1      26.605  23.774  -8.906  0.00  0.00     0.084 A 
HETATM    8  O   UNK N   1      27.151  22.627  -8.424  0.00  0.00    -0.349 OA
HETATM    9  C   UNK N   1      27.886  22.566  -7.254  0.00  0.00     0.186 C 
HETATM   10  C   UNK N   1      27.352  23.538  -6.188  0.00  0.00     0.056 C 
HETATM   11  C   UNK N   1      27.369  24.955  -6.805  0.00  0.00     0.065 C 
ENDROOT
BRANCH  10  12
HETATM   12  C   UNK N   1      28.150  23.444  -4.900  0.00  0.00    -0.051 A 
HETATM   13  C   UNK N   1      27.549  23.663  -3.647  0.00  0.00     0.010 A 
HETATM   14  C   UNK N   1      28.303  23.580  -2.473  0.00  0.00     0.037 A 
HETATM   15  C   UNK N   1      29.666  23.286  -2.539  0.00  0.00     0.065 A 
HETATM   16  C   UNK N   1      30.276  23.078  -3.778  0.00  0.00     0.037 A 
HETATM   17  C   UNK N   1      29.523  23.159  -4.952  0.00  0.00     0.010 A 
BRANCH  15  18
HETATM   18  O   UNK N   1      30.389  23.204  -1.411  0.00  0.00    -0.361 OA
HETATM   19  H   UNK N   1      30.738  22.380  -1.133  0.00  0.00     0.217 HD
ENDBRANCH  15  18
ENDBRANCH  10  12
BRANCH  11  20
HETATM   20  C   UNK N   1      26.931  26.071  -5.892  0.00  0.00    -0.049 A 
HETATM   21  C   UNK N   1      27.874  27.023  -5.486  0.00  0.00     0.011 A 
HETATM   22  C   UNK N   1      27.495  28.077  -4.651  0.00  0.00     0.037 A 
HETATM   23  C   UNK N   1      26.167  28.191  -4.228  0.00  0.00     0.065 A 
HETATM   24  C   UNK N   1      25.221  27.244  -4.631  0.00  0.00     0.037 A 
HETATM   25  C   UNK N   1      25.601  26.180  -5.457  0.00  0.00     0.011 A 
BRANCH  23  26
HETATM   26  O   UNK N   1      25.803  29.212  -3.436  0.00  0.00    -0.361 OA
HETATM   27  H   UNK N   1      25.621  29.066  -2.529  0.00  0.00     0.217 HD
ENDBRANCH  23  26
ENDBRANCH  11  20
BRANCH   3  28
HETATM   28  O   UNK N   1      24.759  24.952 -11.843  0.00  0.00    -0.360 OA
HETATM   29  H   UNK N   1      23.848  25.164 -11.896  0.00  0.00     0.217 HD
ENDBRANCH   3  28
TORSDOF 5
ENDMDL
