MODEL 1
REMARK VINA RESULT:      -8.4      0.000      0.000
REMARK  6 active torsions:
REMARK  status: ('A' for Active; 'I' for Inactive)
REMARK    1  A    between atoms: C_5  and  O_19 
REMARK    2  A    between atoms: C_7  and  N_8 
REMARK       I    between atoms: N_8  and  C_9 
REMARK    3  A    between atoms: C_9  and  C_11 
REMARK    4  A    between atoms: O_19  and  C_20 
REMARK    5  A    between atoms: C_26  and  N_31 
REMARK       I    between atoms: N_31  and  C_32 
REMARK    6  A    between atoms: C_32  and  C_34 
ROOT
HETATM    1  C   UNK N   1      37.964  11.773  11.815  0.00  0.00     0.050 C 
HETATM    2  C   UNK N   1      37.258  13.065  11.648  0.00  0.00    -0.035 A 
HETATM    3  C   UNK N   1      37.390  13.626  10.387  0.00  0.00     0.012 A 
HETATM    4  C   UNK N   1      36.785  14.826  10.078  0.00  0.00     0.038 A 
HETATM    5  C   UNK N   1      36.007  15.520  11.009  0.00  0.00     0.080 A 
HETATM    6  C   UNK N   1      35.874  14.972  12.294  0.00  0.00     0.067 A 
HETATM    7  C   UNK N   1      36.487  13.746  12.649  0.00  0.00     0.043 A 
ENDROOT
BRANCH   5   8
HETATM    8  O   UNK N   1      35.395  16.711  10.694  0.00  0.00    -0.293 OA
BRANCH   8   9
HETATM    9  C   UNK N   1      34.528  16.922   9.649  0.00  0.00     0.163 A 
HETATM   10  C   UNK N   1      34.814  17.879   8.647  0.00  0.00     0.061 A 
HETATM   11  C   UNK N   1      33.925  18.131   7.616  0.00  0.00     0.055 A 
HETATM   12  C   UNK N   1      32.766  17.399   7.612  0.00  0.00     0.128 A 
HETATM   13  N   UNK N   1      31.776  17.524   6.728  0.00  0.00    -0.326 N 
HETATM   14  N   UNK N   1      32.514  16.478   8.550  0.00  0.00    -0.245 N 
HETATM   15  C   UNK N   1      30.853  16.627   7.135  0.00  0.00     0.127 A 
ATOM     16  HN  UNK N   1      31.727  18.153   5.926  1.00  0.00     0.169 HD
HETATM   17  C   UNK N   1      31.302  15.956   8.278  0.00  0.00     0.167 A 
HETATM   18  N   UNK N   1      33.352  16.214   9.561  0.00  0.00    -0.272 N 
ATOM     19  HN  UNK N   1      33.122  15.502  10.254  1.00  0.00     0.189 HD
BRANCH  15  20
HETATM   20  N   UNK N   1      29.588  16.472   6.500  0.00  0.00    -0.312 N 
HETATM   21  C   UNK N   1      28.619  17.433   6.556  0.00  0.00     0.227 C 
HETATM   22  O   UNK N   1      28.792  18.465   7.193  0.00  0.00    -0.273 OA
HETATM   23  H   UNK N   1      29.406  15.642   6.003  0.00  0.00     0.170 HD
BRANCH  21  24
HETATM   24  C   UNK N   1      27.296  17.215   5.890  0.00  0.00     0.078 A 
HETATM   25  C   UNK N   1      27.298  17.855   4.511  0.00  0.00     0.015 A 
HETATM   26  C   UNK N   1      27.469  16.361   4.649  0.00  0.00     0.015 A 
ENDBRANCH  21  24
ENDBRANCH  15  20
ENDBRANCH   8   9
ENDBRANCH   5   8
BRANCH   7  27
HETATM   27  N   UNK N   1      36.270  13.305  14.001  0.00  0.00    -0.321 N 
HETATM   28  C   UNK N   1      35.240  12.664  14.628  0.00  0.00     0.274 C 
HETATM   29  O   UNK N   1      34.226  12.347  14.042  0.00  0.00    -0.266 OA
HETATM   30  H   UNK N   1      37.024  13.506  14.600  0.00  0.00     0.169 HD
BRANCH  28  31
HETATM   31  C   UNK N   1      35.361  12.342  16.063  0.00  0.00     0.120 A 
HETATM   32  C   UNK N   1      34.953  13.159  17.100  0.00  0.00     0.063 A 
HETATM   33  C   UNK N   1      35.277  12.435  18.234  0.00  0.00     0.024 A 
HETATM   34  N   UNK N   1      35.841  11.261  17.893  0.00  0.00    -0.303 N 
HETATM   35  C   UNK N   1      35.045  12.870  19.635  0.00  0.00     0.070 C 
HETATM   36  N   UNK N   1      35.890  11.209  16.575  0.00  0.00    -0.291 N 
ATOM     37  HN  UNK N   1      36.171  10.543  18.537  1.00  0.00     0.186 HD
HETATM   38  C   UNK N   1      36.443  10.079  15.846  0.00  0.00     0.178 C 
ENDBRANCH  28  31
ENDBRANCH   7  27
TORSDOF 6
ENDMDL
MODEL 2
REMARK VINA RESULT:      -8.3      2.619     10.468
REMARK  6 active torsions:
REMARK  status: ('A' for Active; 'I' for Inactive)
REMARK    1  A    between atoms: C_5  and  O_19 
REMARK    2  A    between atoms: C_7  and  N_8 
REMARK       I    between atoms: N_8  and  C_9 
REMARK    3  A    between atoms: C_9  and  C_11 
REMARK    4  A    between atoms: O_19  and  C_20 
REMARK    5  A    between atoms: C_26  and  N_31 
REMARK       I    between atoms: N_31  and  C_32 
REMARK    6  A    between atoms: C_32  and  C_34 
ROOT
HETATM    1  C   UNK N   1      30.545  16.437   2.735  0.00  0.00     0.050 C 
HETATM    2  C   UNK N   1      31.614  16.375   3.759  0.00  0.00    -0.035 A 
HETATM    3  C   UNK N   1      32.724  15.639   3.378  0.00  0.00     0.012 A 
HETATM    4  C   UNK N   1      33.805  15.495   4.224  0.00  0.00     0.038 A 
HETATM    5  C   UNK N   1      33.834  16.091   5.487  0.00  0.00     0.080 A 
HETATM    6  C   UNK N   1      32.712  16.830   5.893  0.00  0.00     0.067 A 
HETATM    7  C   UNK N   1      31.583  16.992   5.055  0.00  0.00     0.043 A 
ENDROOT
BRANCH   5   8
HETATM    8  O   UNK N   1      34.918  15.955   6.324  0.00  0.00    -0.293 OA
BRANCH   8   9
HETATM    9  C   UNK N   1      34.872  15.810   7.690  0.00  0.00     0.163 A 
HETATM   10  C   UNK N   1      34.862  16.939   8.542  0.00  0.00     0.061 A 
HETATM   11  C   UNK N   1      34.862  16.802   9.919  0.00  0.00     0.055 A 
HETATM   12  C   UNK N   1      34.862  15.521  10.409  0.00  0.00     0.128 A 
HETATM   13  N   UNK N   1      34.899  15.186  11.699  0.00  0.00    -0.326 N 
HETATM   14  N   UNK N   1      34.846  14.458   9.595  0.00  0.00    -0.245 N 
HETATM   15  C   UNK N   1      34.904  13.837  11.692  0.00  0.00     0.127 A 
ATOM     16  HN  UNK N   1      34.919  15.809  12.508  1.00  0.00     0.169 HD
HETATM   17  C   UNK N   1      34.866  13.360  10.376  0.00  0.00     0.167 A 
HETATM   18  N   UNK N   1      34.849  14.559   8.259  0.00  0.00    -0.272 N 
ATOM     19  HN  UNK N   1      34.835  13.722   7.676  1.00  0.00     0.189 HD
BRANCH  15  20
HETATM   20  N   UNK N   1      35.006  13.054  12.877  0.00  0.00    -0.312 N 
HETATM   21  C   UNK N   1      35.768  13.437  13.944  0.00  0.00     0.227 C 
HETATM   22  O   UNK N   1      36.429  14.467  13.907  0.00  0.00    -0.273 OA
HETATM   23  H   UNK N   1      34.509  12.206  12.928  0.00  0.00     0.170 HD
BRANCH  21  24
HETATM   24  C   UNK N   1      35.860  12.569  15.160  0.00  0.00     0.078 A 
HETATM   25  C   UNK N   1      34.843  13.021  16.197  0.00  0.00     0.015 A 
HETATM   26  C   UNK N   1      34.568  11.799  15.352  0.00  0.00     0.015 A 
ENDBRANCH  21  24
ENDBRANCH  15  20
ENDBRANCH   8   9
ENDBRANCH   5   8
BRANCH   7  27
HETATM   27  N   UNK N   1      30.504  17.770   5.601  0.00  0.00    -0.321 N 
HETATM   28  C   UNK N   1      29.216  17.480   5.948  0.00  0.00     0.274 C 
HETATM   29  O   UNK N   1      28.746  16.369   5.814  0.00  0.00    -0.266 OA
HETATM   30  H   UNK N   1      30.746  18.711   5.759  0.00  0.00     0.169 HD
BRANCH  28  31
HETATM   31  C   UNK N   1      28.365  18.548   6.510  0.00  0.00     0.120 A 
HETATM   32  C   UNK N   1      27.784  19.569   5.781  0.00  0.00     0.063 A 
HETATM   33  C   UNK N   1      27.102  20.304   6.735  0.00  0.00     0.024 A 
HETATM   34  N   UNK N   1      27.265  19.754   7.953  0.00  0.00    -0.303 N 
HETATM   35  C   UNK N   1      26.298  21.526   6.476  0.00  0.00     0.070 C 
HETATM   36  N   UNK N   1      28.032  18.689   7.811  0.00  0.00    -0.291 N 
ATOM     37  HN  UNK N   1      26.867  20.098   8.826  1.00  0.00     0.186 HD
HETATM   38  C   UNK N   1      28.424  17.840   8.925  0.00  0.00     0.178 C 
ENDBRANCH  28  31
ENDBRANCH   7  27
TORSDOF 6
ENDMDL
MODEL 3
REMARK VINA RESULT:      -8.1      2.224     11.430
REMARK  6 active torsions:
REMARK  status: ('A' for Active; 'I' for Inactive)
REMARK    1  A    between atoms: C_5  and  O_19 
REMARK    2  A    between atoms: C_7  and  N_8 
REMARK       I    between atoms: N_8  and  C_9 
REMARK    3  A    between atoms: C_9  and  C_11 
REMARK    4  A    between atoms: O_19  and  C_20 
REMARK    5  A    between atoms: C_26  and  N_31 
REMARK       I    between atoms: N_31  and  C_32 
REMARK    6  A    between atoms: C_32  and  C_34 
ROOT
HETATM    1  C   UNK N   1      27.825  18.098   8.091  0.00  0.00     0.050 C 
HETATM    2  C   UNK N   1      29.276  17.893   7.870  0.00  0.00    -0.035 A 
HETATM    3  C   UNK N   1      30.080  18.380   8.889  0.00  0.00     0.012 A 
HETATM    4  C   UNK N   1      31.453  18.257   8.829  0.00  0.00     0.038 A 
HETATM    5  C   UNK N   1      32.090  17.632   7.753  0.00  0.00     0.080 A 
HETATM    6  C   UNK N   1      31.291  17.145   6.708  0.00  0.00     0.067 A 
HETATM    7  C   UNK N   1      29.880  17.260   6.732  0.00  0.00     0.043 A 
ENDROOT
BRANCH   5   8
HETATM    8  O   UNK N   1      33.459  17.501   7.703  0.00  0.00    -0.293 OA
BRANCH   8   9
HETATM    9  C   UNK N   1      34.218  16.650   8.470  0.00  0.00     0.163 A 
HETATM   10  C   UNK N   1      34.773  15.472   7.918  0.00  0.00     0.061 A 
HETATM   11  C   UNK N   1      35.501  14.586   8.695  0.00  0.00     0.055 A 
HETATM   12  C   UNK N   1      35.662  14.917  10.015  0.00  0.00     0.128 A 
HETATM   13  N   UNK N   1      36.296  14.177  10.926  0.00  0.00    -0.326 N 
HETATM   14  N   UNK N   1      35.155  16.047  10.523  0.00  0.00    -0.245 N 
HETATM   15  C   UNK N   1      36.182  14.886  12.068  0.00  0.00     0.127 A 
ATOM     16  HN  UNK N   1      36.763  13.280  10.789  1.00  0.00     0.169 HD
HETATM   17  C   UNK N   1      35.470  16.069  11.833  0.00  0.00     0.167 A 
HETATM   18  N   UNK N   1      34.445  16.921   9.799  0.00  0.00    -0.272 N 
ATOM     19  HN  UNK N   1      34.078  17.772  10.225  1.00  0.00     0.189 HD
BRANCH  15  20
HETATM   20  N   UNK N   1      36.669  14.423  13.322  0.00  0.00    -0.312 N 
HETATM   21  C   UNK N   1      35.976  13.535  14.095  0.00  0.00     0.227 C 
HETATM   22  O   UNK N   1      34.875  13.126  13.748  0.00  0.00    -0.273 OA
HETATM   23  H   UNK N   1      37.539  14.754  13.644  0.00  0.00     0.170 HD
BRANCH  21  24
HETATM   24  C   UNK N   1      36.521  13.093  15.417  0.00  0.00     0.078 A 
HETATM   25  C   UNK N   1      35.555  13.473  16.529  0.00  0.00     0.015 A 
HETATM   26  C   UNK N   1      35.613  12.047  16.035  0.00  0.00     0.015 A 
ENDBRANCH  21  24
ENDBRANCH  15  20
ENDBRANCH   8   9
ENDBRANCH   5   8
BRANCH   7  27
HETATM   27  N   UNK N   1      29.188  16.720   5.593  0.00  0.00    -0.321 N 
HETATM   28  C   UNK N   1      28.529  17.284   4.538  0.00  0.00     0.274 C 
HETATM   29  O   UNK N   1      28.421  18.486   4.413  0.00  0.00    -0.266 OA
HETATM   30  H   UNK N   1      29.191  15.737   5.567  0.00  0.00     0.169 HD
BRANCH  28  31
HETATM   31  C   UNK N   1      27.932  16.407   3.512  0.00  0.00     0.120 A 
HETATM   32  C   UNK N   1      26.587  16.352   3.197  0.00  0.00     0.063 A 
HETATM   33  C   UNK N   1      26.524  15.395   2.199  0.00  0.00     0.024 A 
HETATM   34  N   UNK N   1      27.753  14.913   1.936  0.00  0.00    -0.303 N 
HETATM   35  C   UNK N   1      25.290  14.949   1.503  0.00  0.00     0.070 C 
HETATM   36  N   UNK N   1      28.604  15.530   2.736  0.00  0.00    -0.291 N 
ATOM     37  HN  UNK N   1      27.984  14.199   1.245  1.00  0.00     0.186 HD
HETATM   38  C   UNK N   1      30.032  15.259   2.733  0.00  0.00     0.178 C 
ENDBRANCH  28  31
ENDBRANCH   7  27
TORSDOF 6
ENDMDL
MODEL 4
REMARK VINA RESULT:      -8.1      2.192     11.197
REMARK  6 active torsions:
REMARK  status: ('A' for Active; 'I' for Inactive)
REMARK    1  A    between atoms: C_5  and  O_19 
REMARK    2  A    between atoms: C_7  and  N_8 
REMARK       I    between atoms: N_8  and  C_9 
REMARK    3  A    between atoms: C_9  and  C_11 
REMARK    4  A    between atoms: O_19  and  C_20 
REMARK    5  A    between atoms: C_26  and  N_31 
REMARK       I    between atoms: N_31  and  C_32 
REMARK    6  A    between atoms: C_32  and  C_34 
ROOT
HETATM    1  C   UNK N   1      31.924  17.143   2.757  0.00  0.00     0.050 C 
HETATM    2  C   UNK N   1      32.128  17.197   4.223  0.00  0.00    -0.035 A 
HETATM    3  C   UNK N   1      33.428  17.488   4.607  0.00  0.00     0.012 A 
HETATM    4  C   UNK N   1      33.772  17.578   5.940  0.00  0.00     0.038 A 
HETATM    5  C   UNK N   1      32.831  17.394   6.956  0.00  0.00     0.080 A 
HETATM    6  C   UNK N   1      31.513  17.087   6.585  0.00  0.00     0.067 A 
HETATM    7  C   UNK N   1      31.126  16.979   5.228  0.00  0.00     0.043 A 
ENDROOT
BRANCH   5   8
HETATM    8  O   UNK N   1      33.174  17.497   8.285  0.00  0.00    -0.293 OA
BRANCH   8   9
HETATM    9  C   UNK N   1      33.629  16.474   9.083  0.00  0.00     0.163 A 
HETATM   10  C   UNK N   1      33.326  15.126   8.781  0.00  0.00     0.061 A 
HETATM   11  C   UNK N   1      33.740  14.093   9.605  0.00  0.00     0.055 A 
HETATM   12  C   UNK N   1      34.465  14.445  10.714  0.00  0.00     0.128 A 
HETATM   13  N   UNK N   1      34.918  13.601  11.642  0.00  0.00    -0.326 N 
HETATM   14  N   UNK N   1      34.768  15.721  10.979  0.00  0.00    -0.245 N 
HETATM   15  C   UNK N   1      35.543  14.395  12.536  0.00  0.00     0.127 A 
ATOM     16  HN  UNK N   1      34.816  12.586  11.668  1.00  0.00     0.169 HD
HETATM   17  C   UNK N   1      35.463  15.733  12.133  0.00  0.00     0.167 A 
HETATM   18  N   UNK N   1      34.379  16.742  10.203  0.00  0.00    -0.272 N 
ATOM     19  HN  UNK N   1      34.634  17.701  10.441  1.00  0.00     0.189 HD
BRANCH  15  20
HETATM   20  N   UNK N   1      36.125  13.903  13.739  0.00  0.00    -0.312 N 
HETATM   21  C   UNK N   1      35.463  13.051  14.576  0.00  0.00     0.227 C 
HETATM   22  O   UNK N   1      34.314  12.701  14.338  0.00  0.00    -0.273 OA
HETATM   23  H   UNK N   1      37.037  14.187  13.974  0.00  0.00     0.170 HD
BRANCH  21  24
HETATM   24  C   UNK N   1      36.109  12.577  15.841  0.00  0.00     0.078 A 
HETATM   25  C   UNK N   1      35.550  13.346  17.028  0.00  0.00     0.015 A 
HETATM   26  C   UNK N   1      35.075  11.939  16.750  0.00  0.00     0.015 A 
ENDBRANCH  21  24
ENDBRANCH  15  20
ENDBRANCH   8   9
ENDBRANCH   5   8
BRANCH   7  27
HETATM   27  N   UNK N   1      29.744  16.655   4.994  0.00  0.00    -0.321 N 
HETATM   28  C   UNK N   1      28.594  17.391   4.977  0.00  0.00     0.274 C 
HETATM   29  O   UNK N   1      28.589  18.584   5.199  0.00  0.00    -0.266 OA
HETATM   30  H   UNK N   1      29.597  15.701   4.803  0.00  0.00     0.169 HD
BRANCH  28  31
HETATM   31  C   UNK N   1      27.315  16.719   4.677  0.00  0.00     0.120 A 
HETATM   32  C   UNK N   1      26.758  16.595   3.418  0.00  0.00     0.063 A 
HETATM   33  C   UNK N   1      25.579  15.907   3.649  0.00  0.00     0.024 A 
HETATM   34  N   UNK N   1      25.445  15.637   4.961  0.00  0.00    -0.303 N 
HETATM   35  C   UNK N   1      24.589  15.512   2.614  0.00  0.00     0.070 C 
HETATM   36  N   UNK N   1      26.501  16.132   5.580  0.00  0.00    -0.291 N 
ATOM     37  HN  UNK N   1      24.668  15.141   5.396  1.00  0.00     0.186 HD
HETATM   38  C   UNK N   1      26.697  16.029   7.017  0.00  0.00     0.178 C 
ENDBRANCH  28  31
ENDBRANCH   7  27
TORSDOF 6
ENDMDL
MODEL 5
REMARK VINA RESULT:      -7.7      3.088      5.794
REMARK  6 active torsions:
REMARK  status: ('A' for Active; 'I' for Inactive)
REMARK    1  A    between atoms: C_5  and  O_19 
REMARK    2  A    between atoms: C_7  and  N_8 
REMARK       I    between atoms: N_8  and  C_9 
REMARK    3  A    between atoms: C_9  and  C_11 
REMARK    4  A    between atoms: O_19  and  C_20 
REMARK    5  A    between atoms: C_26  and  N_31 
REMARK       I    between atoms: N_31  and  C_32 
REMARK    6  A    between atoms: C_32  and  C_34 
ROOT
HETATM    1  C   UNK N   1      34.679  13.200  19.831  0.00  0.00     0.050 C 
HETATM    2  C   UNK N   1      35.225  13.092  18.457  0.00  0.00    -0.035 A 
HETATM    3  C   UNK N   1      35.729  14.280  17.951  0.00  0.00     0.012 A 
HETATM    4  C   UNK N   1      36.276  14.337  16.686  0.00  0.00     0.038 A 
HETATM    5  C   UNK N   1      36.358  13.206  15.868  0.00  0.00     0.080 A 
HETATM    6  C   UNK N   1      35.841  11.999  16.361  0.00  0.00     0.067 A 
HETATM    7  C   UNK N   1      35.265  11.905  17.651  0.00  0.00     0.043 A 
ENDROOT
BRANCH   5   8
HETATM    8  O   UNK N   1      36.915  13.264  14.611  0.00  0.00    -0.293 OA
BRANCH   8   9
HETATM    9  C   UNK N   1      36.258  13.595  13.450  0.00  0.00     0.163 A 
HETATM   10  C   UNK N   1      35.526  12.624  12.726  0.00  0.00     0.061 A 
HETATM   11  C   UNK N   1      34.900  12.938  11.532  0.00  0.00     0.055 A 
HETATM   12  C   UNK N   1      35.017  14.233  11.098  0.00  0.00     0.128 A 
HETATM   13  N   UNK N   1      34.519  14.715   9.960  0.00  0.00    -0.326 N 
HETATM   14  N   UNK N   1      35.691  15.151  11.802  0.00  0.00    -0.245 N 
HETATM   15  C   UNK N   1      34.899  16.010   9.953  0.00  0.00     0.127 A 
ATOM     16  HN  UNK N   1      33.972  14.219   9.255  1.00  0.00     0.169 HD
HETATM   17  C   UNK N   1      35.635  16.304  11.107  0.00  0.00     0.167 A 
HETATM   18  N   UNK N   1      36.310  14.878  12.959  0.00  0.00    -0.272 N 
ATOM     19  HN  UNK N   1      36.811  15.608  13.465  1.00  0.00     0.189 HD
BRANCH  15  20
HETATM   20  N   UNK N   1      34.629  16.893   8.870  0.00  0.00    -0.312 N 
HETATM   21  C   UNK N   1      33.403  16.965   8.272  0.00  0.00     0.227 C 
HETATM   22  O   UNK N   1      32.486  16.237   8.630  0.00  0.00    -0.273 OA
HETATM   23  H   UNK N   1      35.353  17.473   8.539  0.00  0.00     0.170 HD
BRANCH  21  24
HETATM   24  C   UNK N   1      33.173  17.895   7.122  0.00  0.00     0.078 A 
HETATM   25  C   UNK N   1      33.723  17.283   5.843  0.00  0.00     0.015 A 
HETATM   26  C   UNK N   1      32.237  17.258   6.113  0.00  0.00     0.015 A 
ENDBRANCH  21  24
ENDBRANCH  15  20
ENDBRANCH   8   9
ENDBRANCH   5   8
BRANCH   7  27
HETATM   27  N   UNK N   1      34.772  10.607  18.024  0.00  0.00    -0.321 N 
HETATM   28  C   UNK N   1      35.108   9.718  19.005  0.00  0.00     0.274 C 
HETATM   29  O   UNK N   1      36.002   9.938  19.796  0.00  0.00    -0.266 OA
HETATM   30  H   UNK N   1      34.034  10.294  17.453  0.00  0.00     0.169 HD
BRANCH  28  31
HETATM   31  C   UNK N   1      34.361   8.450  19.113  0.00  0.00     0.120 A 
HETATM   32  C   UNK N   1      33.151   8.292  19.762  0.00  0.00     0.063 A 
HETATM   33  C   UNK N   1      32.864   6.948  19.595  0.00  0.00     0.024 A 
HETATM   34  N   UNK N   1      33.841   6.345  18.891  0.00  0.00    -0.303 N 
HETATM   35  C   UNK N   1      31.659   6.249  20.111  0.00  0.00     0.070 C 
HETATM   36  N   UNK N   1      34.747   7.261  18.601  0.00  0.00    -0.291 N 
ATOM     37  HN  UNK N   1      33.874   5.360  18.630  1.00  0.00     0.186 HD
HETATM   38  C   UNK N   1      35.953   6.970  17.844  0.00  0.00     0.178 C 
ENDBRANCH  28  31
ENDBRANCH   7  27
TORSDOF 6
ENDMDL
MODEL 6
REMARK VINA RESULT:      -7.6      4.380     11.098
REMARK  6 active torsions:
REMARK  status: ('A' for Active; 'I' for Inactive)
REMARK    1  A    between atoms: C_5  and  O_19 
REMARK    2  A    between atoms: C_7  and  N_8 
REMARK       I    between atoms: N_8  and  C_9 
REMARK    3  A    between atoms: C_9  and  C_11 
REMARK    4  A    between atoms: O_19  and  C_20 
REMARK    5  A    between atoms: C_26  and  N_31 
REMARK       I    between atoms: N_31  and  C_32 
REMARK    6  A    between atoms: C_32  and  C_34 
ROOT
HETATM    1  C   UNK N   1      23.680  14.503   3.480  0.00  0.00     0.050 C 
HETATM    2  C   UNK N   1      24.692  15.402   4.082  0.00  0.00    -0.035 A 
HETATM    3  C   UNK N   1      25.313  16.247   3.176  0.00  0.00     0.012 A 
HETATM    4  C   UNK N   1      26.275  17.146   3.588  0.00  0.00     0.038 A 
HETATM    5  C   UNK N   1      26.655  17.254   4.928  0.00  0.00     0.080 A 
HETATM    6  C   UNK N   1      26.045  16.397   5.857  0.00  0.00     0.067 A 
HETATM    7  C   UNK N   1      25.061  15.457   5.469  0.00  0.00     0.043 A 
ENDROOT
BRANCH   5   8
HETATM    8  O   UNK N   1      27.606  18.161   5.338  0.00  0.00    -0.293 OA
BRANCH   8   9
HETATM    9  C   UNK N   1      28.489  17.992   6.377  0.00  0.00     0.163 A 
HETATM   10  C   UNK N   1      28.422  18.810   7.529  0.00  0.00     0.061 A 
HETATM   11  C   UNK N   1      29.336  18.678   8.560  0.00  0.00     0.055 A 
HETATM   12  C   UNK N   1      30.296  17.710   8.411  0.00  0.00     0.128 A 
HETATM   13  N   UNK N   1      31.280  17.456   9.273  0.00  0.00    -0.326 N 
HETATM   14  N   UNK N   1      30.336  16.923   7.328  0.00  0.00    -0.245 N 
HETATM   15  C   UNK N   1      31.974  16.451   8.699  0.00  0.00     0.127 A 
ATOM     16  HN  UNK N   1      31.465  17.917  10.165  1.00  0.00     0.169 HD
HETATM   17  C   UNK N   1      31.392  16.099   7.476  0.00  0.00     0.167 A 
HETATM   18  N   UNK N   1      29.468  17.029   6.313  0.00  0.00    -0.272 N 
ATOM     19  HN  UNK N   1      29.534  16.407   5.507  1.00  0.00     0.189 HD
BRANCH  15  20
HETATM   20  N   UNK N   1      33.164  15.909   9.262  0.00  0.00    -0.312 N 
HETATM   21  C   UNK N   1      34.306  16.643   9.408  0.00  0.00     0.227 C 
HETATM   22  O   UNK N   1      34.360  17.804   9.022  0.00  0.00    -0.273 OA
HETATM   23  H   UNK N   1      33.162  14.969   9.557  0.00  0.00     0.170 HD
BRANCH  21  24
HETATM   24  C   UNK N   1      35.539  16.021   9.987  0.00  0.00     0.078 A 
HETATM   25  C   UNK N   1      35.479  16.069  11.505  0.00  0.00     0.015 A 
HETATM   26  C   UNK N   1      35.176  14.780  10.779  0.00  0.00     0.015 A 
ENDBRANCH  21  24
ENDBRANCH  15  20
ENDBRANCH   8   9
ENDBRANCH   5   8
BRANCH   7  27
HETATM   27  N   UNK N   1      24.523  14.641   6.524  0.00  0.00    -0.321 N 
HETATM   28  C   UNK N   1      24.591  13.307   6.810  0.00  0.00     0.274 C 
HETATM   29  O   UNK N   1      25.193  12.526   6.103  0.00  0.00    -0.266 OA
HETATM   30  H   UNK N   1      23.997  15.151   7.179  0.00  0.00     0.169 HD
BRANCH  28  31
HETATM   31  C   UNK N   1      23.915  12.796   8.018  0.00  0.00     0.120 A 
HETATM   32  C   UNK N   1      24.468  12.758   9.284  0.00  0.00     0.063 A 
HETATM   33  C   UNK N   1      23.468  12.200  10.061  0.00  0.00     0.024 A 
HETATM   34  N   UNK N   1      22.388  11.924   9.306  0.00  0.00    -0.303 N 
HETATM   35  C   UNK N   1      23.551  11.933  11.520  0.00  0.00     0.070 C 
HETATM   36  N   UNK N   1      22.664  12.288   8.067  0.00  0.00    -0.291 N 
ATOM     37  HN  UNK N   1      21.516  11.510   9.632  1.00  0.00     0.186 HD
HETATM   38  C   UNK N   1      21.723  12.137   6.969  0.00  0.00     0.178 C 
ENDBRANCH  28  31
ENDBRANCH   7  27
TORSDOF 6
ENDMDL
MODEL 7
REMARK VINA RESULT:      -7.6      3.811     13.028
REMARK  6 active torsions:
REMARK  status: ('A' for Active; 'I' for Inactive)
REMARK    1  A    between atoms: C_5  and  O_19 
REMARK    2  A    between atoms: C_7  and  N_8 
REMARK       I    between atoms: N_8  and  C_9 
REMARK    3  A    between atoms: C_9  and  C_11 
REMARK    4  A    between atoms: O_19  and  C_20 
REMARK    5  A    between atoms: C_26  and  N_31 
REMARK       I    between atoms: N_31  and  C_32 
REMARK    6  A    between atoms: C_32  and  C_34 
ROOT
HETATM    1  C   UNK N   1      25.932  14.475   1.901  0.00  0.00     0.050 C 
HETATM    2  C   UNK N   1      26.895  15.345   2.616  0.00  0.00    -0.035 A 
HETATM    3  C   UNK N   1      28.164  14.804   2.743  0.00  0.00     0.012 A 
HETATM    4  C   UNK N   1      29.172  15.499   3.379  0.00  0.00     0.038 A 
HETATM    5  C   UNK N   1      28.963  16.774   3.911  0.00  0.00     0.080 A 
HETATM    6  C   UNK N   1      27.680  17.331   3.802  0.00  0.00     0.067 A 
HETATM    7  C   UNK N   1      26.621  16.644   3.163  0.00  0.00     0.043 A 
ENDROOT
BRANCH   5   8
HETATM    8  O   UNK N   1      29.973  17.470   4.535  0.00  0.00    -0.293 OA
BRANCH   8   9
HETATM    9  C   UNK N   1      30.520  17.175   5.761  0.00  0.00     0.163 A 
HETATM   10  C   UNK N   1      29.881  17.576   6.958  0.00  0.00     0.061 A 
HETATM   11  C   UNK N   1      30.447  17.323   8.196  0.00  0.00     0.055 A 
HETATM   12  C   UNK N   1      31.647  16.659   8.199  0.00  0.00     0.128 A 
HETATM   13  N   UNK N   1      32.362  16.360   9.283  0.00  0.00    -0.326 N 
HETATM   14  N   UNK N   1      32.232  16.262   7.062  0.00  0.00    -0.245 N 
HETATM   15  C   UNK N   1      33.456  15.736   8.797  0.00  0.00     0.127 A 
ATOM     16  HN  UNK N   1      32.134  16.556  10.258  1.00  0.00     0.169 HD
HETATM   17  C   UNK N   1      33.390  15.661   7.401  0.00  0.00     0.167 A 
HETATM   18  N   UNK N   1      31.711  16.494   5.850  0.00  0.00    -0.272 N 
ATOM     19  HN  UNK N   1      32.190  16.172   5.009  1.00  0.00     0.189 HD
BRANCH  15  20
HETATM   20  N   UNK N   1      34.531  15.298   9.622  0.00  0.00    -0.312 N 
HETATM   21  C   UNK N   1      35.370  16.171  10.255  0.00  0.00     0.227 C 
HETATM   22  O   UNK N   1      35.248  17.380  10.107  0.00  0.00    -0.273 OA
HETATM   23  H   UNK N   1      34.674  14.331   9.740  0.00  0.00     0.170 HD
BRANCH  21  24
HETATM   24  C   UNK N   1      36.500  15.661  11.095  0.00  0.00     0.078 A 
HETATM   25  C   UNK N   1      35.953  14.963  12.330  0.00  0.00     0.015 A 
HETATM   26  C   UNK N   1      36.459  14.147  11.164  0.00  0.00     0.015 A 
ENDBRANCH  21  24
ENDBRANCH  15  20
ENDBRANCH   8   9
ENDBRANCH   5   8
BRANCH   7  27
HETATM   27  N   UNK N   1      25.358  17.332   3.127  0.00  0.00    -0.321 N 
HETATM   28  C   UNK N   1      24.415  17.617   4.072  0.00  0.00     0.274 C 
HETATM   29  O   UNK N   1      24.534  17.270   5.229  0.00  0.00    -0.266 OA
HETATM   30  H   UNK N   1      25.126  17.669   2.233  0.00  0.00     0.169 HD
BRANCH  28  31
HETATM   31  C   UNK N   1      23.211  18.376   3.680  0.00  0.00     0.120 A 
HETATM   32  C   UNK N   1      21.928  17.864   3.628  0.00  0.00     0.063 A 
HETATM   33  C   UNK N   1      21.164  18.939   3.209  0.00  0.00     0.024 A 
HETATM   34  N   UNK N   1      21.942  20.021   3.024  0.00  0.00    -0.303 N 
HETATM   35  C   UNK N   1      19.695  18.923   2.987  0.00  0.00     0.070 C 
HETATM   36  N   UNK N   1      23.183  19.675   3.311  0.00  0.00    -0.291 N 
ATOM     37  HN  UNK N   1      21.628  20.942   2.717  1.00  0.00     0.186 HD
HETATM   38  C   UNK N   1      24.304  20.597   3.221  0.00  0.00     0.178 C 
ENDBRANCH  28  31
ENDBRANCH   7  27
TORSDOF 6
ENDMDL
MODEL 8
REMARK VINA RESULT:      -7.5      4.061     10.476
REMARK  6 active torsions:
REMARK  status: ('A' for Active; 'I' for Inactive)
REMARK    1  A    between atoms: C_5  and  O_19 
REMARK    2  A    between atoms: C_7  and  N_8 
REMARK       I    between atoms: N_8  and  C_9 
REMARK    3  A    between atoms: C_9  and  C_11 
REMARK    4  A    between atoms: O_19  and  C_20 
REMARK    5  A    between atoms: C_26  and  N_31 
REMARK       I    between atoms: N_31  and  C_32 
REMARK    6  A    between atoms: C_32  and  C_34 
ROOT
HETATM    1  C   UNK N   1      26.228  12.962   2.978  0.00  0.00     0.050 C 
HETATM    2  C   UNK N   1      26.983  14.113   3.527  0.00  0.00    -0.035 A 
HETATM    3  C   UNK N   1      27.693  14.832   2.579  0.00  0.00     0.012 A 
HETATM    4  C   UNK N   1      28.440  15.935   2.938  0.00  0.00     0.038 A 
HETATM    5  C   UNK N   1      28.505  16.381   4.261  0.00  0.00     0.080 A 
HETATM    6  C   UNK N   1      27.802  15.657   5.235  0.00  0.00     0.067 A 
HETATM    7  C   UNK N   1      27.032  14.516   4.905  0.00  0.00     0.043 A 
ENDROOT
BRANCH   5   8
HETATM    8  O   UNK N   1      29.241  17.489   4.613  0.00  0.00    -0.293 OA
BRANCH   8   9
HETATM    9  C   UNK N   1      30.467  17.480   5.235  0.00  0.00     0.163 A 
HETATM   10  C   UNK N   1      31.665  17.481   4.483  0.00  0.00     0.061 A 
HETATM   11  C   UNK N   1      32.903  17.426   5.100  0.00  0.00     0.055 A 
HETATM   12  C   UNK N   1      32.905  17.382   6.470  0.00  0.00     0.128 A 
HETATM   13  N   UNK N   1      33.990  17.289   7.239  0.00  0.00    -0.326 N 
HETATM   14  N   UNK N   1      31.767  17.407   7.175  0.00  0.00    -0.245 N 
HETATM   15  C   UNK N   1      33.503  17.257   8.498  0.00  0.00     0.127 A 
ATOM     16  HN  UNK N   1      34.966  17.251   6.944  1.00  0.00     0.169 HD
HETATM   17  C   UNK N   1      32.106  17.334   8.477  0.00  0.00     0.167 A 
HETATM   18  N   UNK N   1      30.555  17.457   6.607  0.00  0.00    -0.272 N 
ATOM     19  HN  UNK N   1      29.712  17.476   7.182  1.00  0.00     0.189 HD
BRANCH  15  20
HETATM   20  N   UNK N   1      34.329  17.094   9.646  0.00  0.00    -0.312 N 
HETATM   21  C   UNK N   1      35.238  16.081   9.756  0.00  0.00     0.227 C 
HETATM   22  O   UNK N   1      35.355  15.242   8.872  0.00  0.00    -0.273 OA
HETATM   23  H   UNK N   1      34.240  17.736  10.387  0.00  0.00     0.170 HD
BRANCH  21  24
HETATM   24  C   UNK N   1      36.069  15.939  10.993  0.00  0.00     0.078 A 
HETATM   25  C   UNK N   1      35.372  15.018  11.982  0.00  0.00     0.015 A 
HETATM   26  C   UNK N   1      36.526  14.502  11.155  0.00  0.00     0.015 A 
ENDBRANCH  21  24
ENDBRANCH  15  20
ENDBRANCH   8   9
ENDBRANCH   5   8
BRANCH   7  27
HETATM   27  N   UNK N   1      26.367  13.869   6.003  0.00  0.00    -0.321 N 
HETATM   28  C   UNK N   1      25.230  14.141   6.708  0.00  0.00     0.274 C 
HETATM   29  O   UNK N   1      24.538  15.109   6.468  0.00  0.00    -0.266 OA
HETATM   30  H   UNK N   1      26.829  13.057   6.312  0.00  0.00     0.169 HD
BRANCH  28  31
HETATM   31  C   UNK N   1      24.822  13.229   7.794  0.00  0.00     0.120 A 
HETATM   32  C   UNK N   1      25.022  13.458   9.143  0.00  0.00     0.063 A 
HETATM   33  C   UNK N   1      24.482  12.336   9.748  0.00  0.00     0.024 A 
HETATM   34  N   UNK N   1      23.991  11.495   8.819  0.00  0.00    -0.303 N 
HETATM   35  C   UNK N   1      24.440  12.076  11.211  0.00  0.00     0.070 C 
HETATM   36  N   UNK N   1      24.199  12.041   7.636  0.00  0.00    -0.291 N 
ATOM     37  HN  UNK N   1      23.540  10.598   8.999  1.00  0.00     0.186 HD
HETATM   38  C   UNK N   1      23.798  11.409   6.390  0.00  0.00     0.178 C 
ENDBRANCH  28  31
ENDBRANCH   7  27
TORSDOF 6
ENDMDL
MODEL 9
REMARK VINA RESULT:      -7.4      2.457      4.189
REMARK  6 active torsions:
REMARK  status: ('A' for Active; 'I' for Inactive)
REMARK    1  A    between atoms: C_5  and  O_19 
REMARK    2  A    between atoms: C_7  and  N_8 
REMARK       I    between atoms: N_8  and  C_9 
REMARK    3  A    between atoms: C_9  and  C_11 
REMARK    4  A    between atoms: O_19  and  C_20 
REMARK    5  A    between atoms: C_26  and  N_31 
REMARK       I    between atoms: N_31  and  C_32 
REMARK    6  A    between atoms: C_32  and  C_34 
ROOT
HETATM    1  C   UNK N   1      36.410  13.864   7.403  0.00  0.00     0.050 C 
HETATM    2  C   UNK N   1      35.453  14.935   7.767  0.00  0.00    -0.035 A 
HETATM    3  C   UNK N   1      34.935  15.628   6.685  0.00  0.00     0.012 A 
HETATM    4  C   UNK N   1      34.026  16.650   6.865  0.00  0.00     0.038 A 
HETATM    5  C   UNK N   1      33.580  17.022   8.137  0.00  0.00     0.080 A 
HETATM    6  C   UNK N   1      34.105  16.339   9.245  0.00  0.00     0.067 A 
HETATM    7  C   UNK N   1      35.044  15.290   9.097  0.00  0.00     0.043 A 
ENDROOT
BRANCH   5   8
HETATM    8  O   UNK N   1      32.664  18.034   8.313  0.00  0.00    -0.293 OA
BRANCH   8   9
HETATM    9  C   UNK N   1      31.301  17.922   8.179  0.00  0.00     0.163 A 
HETATM   10  C   UNK N   1      30.426  18.575   9.078  0.00  0.00     0.061 A 
HETATM   11  C   UNK N   1      29.053  18.431   8.979  0.00  0.00     0.055 A 
HETATM   12  C   UNK N   1      28.590  17.636   7.963  0.00  0.00     0.128 A 
HETATM   13  N   UNK N   1      27.310  17.346   7.729  0.00  0.00    -0.326 N 
HETATM   14  N   UNK N   1      29.424  17.042   7.102  0.00  0.00    -0.245 N 
HETATM   15  C   UNK N   1      27.345  16.527   6.657  0.00  0.00     0.127 A 
ATOM     16  HN  UNK N   1      26.490  17.672   8.242  1.00  0.00     0.169 HD
HETATM   17  C   UNK N   1      28.668  16.327   6.245  0.00  0.00     0.167 A 
HETATM   18  N   UNK N   1      30.757  17.159   7.173  0.00  0.00    -0.272 N 
ATOM     19  HN  UNK N   1      31.357  16.690   6.494  1.00  0.00     0.189 HD
BRANCH  15  20
HETATM   20  N   UNK N   1      26.182  15.920   6.105  0.00  0.00    -0.312 N 
HETATM   21  C   UNK N   1      25.306  16.605   5.312  0.00  0.00     0.227 C 
HETATM   22  O   UNK N   1      25.473  17.794   5.071  0.00  0.00    -0.273 OA
HETATM   23  H   UNK N   1      26.003  14.972   6.302  0.00  0.00     0.170 HD
BRANCH  21  24
HETATM   24  C   UNK N   1      24.084  15.928   4.771  0.00  0.00     0.078 A 
HETATM   25  C   UNK N   1      22.900  16.185   5.690  0.00  0.00     0.015 A 
HETATM   26  C   UNK N   1      23.036  16.960   4.400  0.00  0.00     0.015 A 
ENDBRANCH  21  24
ENDBRANCH  15  20
ENDBRANCH   8   9
ENDBRANCH   5   8
BRANCH   7  27
HETATM   27  N   UNK N   1      35.500  14.681  10.318  0.00  0.00    -0.321 N 
HETATM   28  C   UNK N   1      35.282  13.467  10.903  0.00  0.00     0.274 C 
HETATM   29  O   UNK N   1      34.564  12.628  10.398  0.00  0.00    -0.266 OA
HETATM   30  H   UNK N   1      36.098  15.262  10.841  0.00  0.00     0.169 HD
BRANCH  28  31
HETATM   31  C   UNK N   1      35.940  13.159  12.187  0.00  0.00     0.120 A 
HETATM   32  C   UNK N   1      35.411  13.421  13.437  0.00  0.00     0.063 A 
HETATM   33  C   UNK N   1      36.386  12.965  14.307  0.00  0.00     0.024 A 
HETATM   34  N   UNK N   1      37.428  12.462  13.619  0.00  0.00    -0.303 N 
HETATM   35  C   UNK N   1      36.314  13.013  15.790  0.00  0.00     0.070 C 
HETATM   36  N   UNK N   1      37.153  12.582  12.334  0.00  0.00    -0.291 N 
ATOM     37  HN  UNK N   1      38.276  12.062  14.020  1.00  0.00     0.186 HD
HETATM   38  C   UNK N   1      38.060  12.143  11.285  0.00  0.00     0.178 C 
ENDBRANCH  28  31
ENDBRANCH   7  27
TORSDOF 6
ENDMDL
