MODEL 1
REMARK VINA RESULT:      -8.6      0.000      0.000
REMARK  7 active torsions:
REMARK  status: ('A' for Active; 'I' for Inactive)
REMARK    1  A    between atoms: C_2  and  C_3 
REMARK    2  A    between atoms: C_2  and  O_12 
REMARK    3  A    between atoms: O_12  and  C_13 
REMARK    4  A    between atoms: C_15  and  C_22 
REMARK    5  A    between atoms: C_20  and  N_21 
REMARK       I    between atoms: C_22  and  N_24 
REMARK    6  A    between atoms: N_24  and  C_25 
REMARK    7  A    between atoms: C_28  and  C_31 
REMARK       I    between atoms: C_31  and  N_33 
ROOT
HETATM    1  C   UNK N   1      34.442  13.708  10.998  0.00  0.00     0.117 A 
HETATM    2  C   UNK N   1      34.458  15.086  10.921  0.00  0.00     0.077 A 
HETATM    3  C   UNK N   1      34.410  15.715   9.684  0.00  0.00     0.119 A 
HETATM    4  N   UNK N   1      34.326  14.953   8.556  0.00  0.00    -0.294 N 
ATOM      5  HN  UNK N   1      34.311  15.410   7.645  1.00  0.00     0.187 HD
HETATM    6  N   UNK N   1      34.262  13.625   8.619  0.00  0.00    -0.283 N 
ATOM      7  HN  UNK N   1      34.154  13.090   7.757  1.00  0.00     0.188 HD
HETATM    8  C   UNK N   1      34.339  12.963   9.808  0.00  0.00     0.147 A 
ENDROOT
BRANCH   3   9
HETATM    9  C   UNK N   1      34.690  17.158   9.585  0.00  0.00     0.274 C 
HETATM   10  O   UNK N   1      35.751  17.577  10.019  0.00  0.00    -0.266 OA
HETATM   11  N   UNK N   1      33.775  18.059   9.134  0.00  0.00    -0.322 N 
HETATM   12  H   UNK N   1      33.782  18.947   9.559  0.00  0.00     0.169 HD
BRANCH  11  13
HETATM   13  C   UNK N   1      32.810  17.849   8.112  0.00  0.00     0.035 C 
HETATM   14  C   UNK N   1      33.289  17.629   6.816  0.00  0.00     0.030 C 
HETATM   15  C   UNK N   1      32.578  16.817   5.932  0.00  0.00     0.019 C 
HETATM   16  C   UNK N   1      31.388  16.215   6.348  0.00  0.00     0.032 C 
HETATM   17  C   UNK N   1      30.827  16.582   7.579  0.00  0.00     0.019 C 
HETATM   18  C   UNK N   1      31.535  17.386   8.459  0.00  0.00     0.030 C 
BRANCH  16  19
HETATM   19  C   UNK N   1      31.231  14.801   5.952  0.00  0.00     0.253 C 
HETATM   20  O   UNK N   1      31.821  13.919   6.561  0.00  0.00    -0.267 OA
HETATM   21  N   UNK N   1      30.300  14.483   4.987  0.00  0.00    -0.345 N 
HETATM   22  C   UNK N   1      30.063  13.130   4.558  0.00  0.00     0.156 C 
HETATM   23  C   UNK N   1      29.463  15.496   4.382  0.00  0.00     0.156 C 
HETATM   24  C   UNK N   1      30.182  13.077   3.022  0.00  0.00     0.291 C 
HETATM   25  N   UNK N   1      29.445  14.152   2.325  0.00  0.00     0.087 N 
HETATM   26  C   UNK N   1      29.712  15.482   2.882  0.00  0.00     0.291 C 
HETATM   27  C   UNK N   1      28.011  13.897   2.335  0.00  0.00     0.310 C 
ENDBRANCH  16  19
ENDBRANCH  11  13
ENDBRANCH   3   9
BRANCH   1  28
HETATM   28  O   UNK N   1      34.575  13.148  12.221  0.00  0.00    -0.338 OA
BRANCH  28  29
HETATM   29  C   UNK N   1      35.715  13.264  12.977  0.00  0.00     0.161 C 
HETATM   30  C   UNK N   1      36.872  12.555  12.300  0.00  0.00     0.045 C 
BRANCH  29  31
HETATM   31  C   UNK N   1      35.537  12.769  14.408  0.00  0.00     0.017 A 
HETATM   32  C   UNK N   1      36.102  13.539  15.453  0.00  0.00     0.044 A 
HETATM   33  C   UNK N   1      35.977  13.131  16.781  0.00  0.00     0.028 A 
HETATM   34 Cl   UNK N   1      36.960  15.040  15.129  0.00  0.00    -0.084 Cl
HETATM   35  C   UNK N   1      35.297  11.960  17.100  0.00  0.00     0.046 A 
HETATM   36  C   UNK N   1      34.727  11.186  16.094  0.00  0.00     0.138 A 
HETATM   37  C   UNK N   1      34.834  11.573  14.748  0.00  0.00     0.083 A 
HETATM   38  F   UNK N   1      34.072  10.047  16.430  0.00  0.00    -0.204 F 
HETATM   39 Cl   UNK N   1      34.091  10.512  13.548  0.00  0.00    -0.080 Cl
ENDBRANCH  29  31
ENDBRANCH  28  29
ENDBRANCH   1  28
BRANCH   8  40
HETATM   40  N   UNK N   1      34.308  11.556   9.824  0.00  0.00    -0.382 N 
HETATM   41  H   UNK N   1      33.564  10.913   9.805  0.00  0.00     0.157 HD
HETATM   42  H   UNK N   1      35.199  11.138   9.859  0.00  0.00     0.157 HD
ENDBRANCH   8  40
TORSDOF 7
ENDMDL
MODEL 2
REMARK VINA RESULT:      -8.5      4.818     10.721
REMARK  7 active torsions:
REMARK  status: ('A' for Active; 'I' for Inactive)
REMARK    1  A    between atoms: C_2  and  C_3 
REMARK    2  A    between atoms: C_2  and  O_12 
REMARK    3  A    between atoms: O_12  and  C_13 
REMARK    4  A    between atoms: C_15  and  C_22 
REMARK    5  A    between atoms: C_20  and  N_21 
REMARK       I    between atoms: C_22  and  N_24 
REMARK    6  A    between atoms: N_24  and  C_25 
REMARK    7  A    between atoms: C_28  and  C_31 
REMARK       I    between atoms: C_31  and  N_33 
ROOT
HETATM    1  C   UNK N   1      29.577  17.607   7.279  0.00  0.00     0.117 A 
HETATM    2  C   UNK N   1      30.881  17.282   6.967  0.00  0.00     0.077 A 
HETATM    3  C   UNK N   1      31.894  17.503   7.891  0.00  0.00     0.119 A 
HETATM    4  N   UNK N   1      31.576  18.022   9.111  0.00  0.00    -0.294 N 
ATOM      5  HN  UNK N   1      32.319  18.204   9.785  1.00  0.00     0.187 HD
HETATM    6  N   UNK N   1      30.317  18.296   9.442  0.00  0.00    -0.283 N 
ATOM      7  HN  UNK N   1      30.111  18.640  10.380  1.00  0.00     0.188 HD
HETATM    8  C   UNK N   1      29.294  18.127   8.557  0.00  0.00     0.147 A 
ENDROOT
BRANCH   3   9
HETATM    9  C   UNK N   1      33.303  17.405   7.470  0.00  0.00     0.274 C 
HETATM   10  O   UNK N   1      33.673  18.070   6.516  0.00  0.00    -0.266 OA
HETATM   11  N   UNK N   1      34.181  16.526   8.026  0.00  0.00    -0.322 N 
HETATM   12  H   UNK N   1      34.855  16.135   7.425  0.00  0.00     0.169 HD
BRANCH  11  13
HETATM   13  C   UNK N   1      34.224  16.114   9.386  0.00  0.00     0.035 C 
HETATM   14  C   UNK N   1      33.714  14.846   9.686  0.00  0.00     0.030 C 
HETATM   15  C   UNK N   1      34.250  14.104  10.739  0.00  0.00     0.019 C 
HETATM   16  C   UNK N   1      35.305  14.627  11.489  0.00  0.00     0.032 C 
HETATM   17  C   UNK N   1      35.688  15.962  11.297  0.00  0.00     0.019 C 
HETATM   18  C   UNK N   1      35.159  16.698  10.249  0.00  0.00     0.030 C 
BRANCH  16  19
HETATM   19  C   UNK N   1      36.390  13.672  11.792  0.00  0.00     0.253 C 
HETATM   20  O   UNK N   1      37.330  13.539  11.022  0.00  0.00    -0.267 OA
HETATM   21  N   UNK N   1      36.397  13.047  13.021  0.00  0.00    -0.345 N 
HETATM   22  C   UNK N   1      37.427  12.121  13.411  0.00  0.00     0.156 C 
HETATM   23  C   UNK N   1      35.387  13.329  14.018  0.00  0.00     0.156 C 
HETATM   24  C   UNK N   1      36.757  10.815  13.881  0.00  0.00     0.291 C 
HETATM   25  N   UNK N   1      35.634  11.020  14.818  0.00  0.00     0.087 N 
HETATM   26  C   UNK N   1      34.677  12.027  14.352  0.00  0.00     0.291 C 
HETATM   27  C   UNK N   1      36.116  11.380  16.145  0.00  0.00     0.310 C 
ENDBRANCH  16  19
ENDBRANCH  11  13
ENDBRANCH   3   9
BRANCH   1  28
HETATM   28  O   UNK N   1      28.644  17.450   6.313  0.00  0.00    -0.338 OA
BRANCH  28  29
HETATM   29  C   UNK N   1      28.835  17.854   5.015  0.00  0.00     0.161 C 
HETATM   30  C   UNK N   1      28.264  19.243   4.806  0.00  0.00     0.045 C 
BRANCH  29  31
HETATM   31  C   UNK N   1      28.269  16.874   3.994  0.00  0.00     0.017 A 
HETATM   32  C   UNK N   1      29.176  16.223   3.124  0.00  0.00     0.044 A 
HETATM   33  C   UNK N   1      28.714  15.321   2.164  0.00  0.00     0.028 A 
HETATM   34 Cl   UNK N   1      30.909  16.502   3.225  0.00  0.00    -0.084 Cl
HETATM   35  C   UNK N   1      27.355  15.050   2.046  0.00  0.00     0.046 A 
HETATM   36  C   UNK N   1      26.441  15.672   2.891  0.00  0.00     0.138 A 
HETATM   37  C   UNK N   1      26.876  16.581   3.868  0.00  0.00     0.083 A 
HETATM   38  F   UNK N   1      25.121  15.393   2.754  0.00  0.00    -0.204 F 
HETATM   39 Cl   UNK N   1      25.635  17.328   4.879  0.00  0.00    -0.080 Cl
ENDBRANCH  29  31
ENDBRANCH  28  29
ENDBRANCH   1  28
BRANCH   8  40
HETATM   40  N   UNK N   1      27.983  18.467   8.936  0.00  0.00    -0.382 N 
HETATM   41  H   UNK N   1      27.491  18.356   9.781  0.00  0.00     0.157 HD
HETATM   42  H   UNK N   1      27.460  18.899   8.222  0.00  0.00     0.157 HD
ENDBRANCH   8  40
TORSDOF 7
ENDMDL
MODEL 3
REMARK VINA RESULT:      -8.4      7.554     11.186
REMARK  7 active torsions:
REMARK  status: ('A' for Active; 'I' for Inactive)
REMARK    1  A    between atoms: C_2  and  C_3 
REMARK    2  A    between atoms: C_2  and  O_12 
REMARK    3  A    between atoms: O_12  and  C_13 
REMARK    4  A    between atoms: C_15  and  C_22 
REMARK    5  A    between atoms: C_20  and  N_21 
REMARK       I    between atoms: C_22  and  N_24 
REMARK    6  A    between atoms: N_24  and  C_25 
REMARK    7  A    between atoms: C_28  and  C_31 
REMARK       I    between atoms: C_31  and  N_33 
ROOT
HETATM    1  C   UNK N   1      21.346  15.671   7.476  0.00  0.00     0.117 A 
HETATM    2  C   UNK N   1      22.189  15.736   6.386  0.00  0.00     0.077 A 
HETATM    3  C   UNK N   1      22.287  16.909   5.649  0.00  0.00     0.119 A 
HETATM    4  N   UNK N   1      21.557  17.995   6.032  0.00  0.00    -0.294 N 
ATOM      5  HN  UNK N   1      21.611  18.851   5.482  1.00  0.00     0.187 HD
HETATM    6  N   UNK N   1      20.775  17.961   7.109  0.00  0.00    -0.283 N 
ATOM      7  HN  UNK N   1      20.279  18.806   7.392  1.00  0.00     0.188 HD
HETATM    8  C   UNK N   1      20.623  16.823   7.843  0.00  0.00     0.147 A 
ENDROOT
BRANCH   3   9
HETATM    9  C   UNK N   1      22.976  16.900   4.347  0.00  0.00     0.274 C 
HETATM   10  O   UNK N   1      22.309  17.042   3.334  0.00  0.00    -0.266 OA
HETATM   11  N   UNK N   1      24.304  16.631   4.214  0.00  0.00    -0.322 N 
HETATM   12  H   UNK N   1      24.576  16.136   3.408  0.00  0.00     0.169 HD
BRANCH  11  13
HETATM   13  C   UNK N   1      25.337  16.993   5.120  0.00  0.00     0.035 C 
HETATM   14  C   UNK N   1      25.934  15.962   5.855  0.00  0.00     0.030 C 
HETATM   15  C   UNK N   1      27.273  16.052   6.233  0.00  0.00     0.019 C 
HETATM   16  C   UNK N   1      28.023  17.172   5.868  0.00  0.00     0.032 C 
HETATM   17  C   UNK N   1      27.375  18.273   5.291  0.00  0.00     0.019 C 
HETATM   18  C   UNK N   1      26.045  18.183   4.912  0.00  0.00     0.030 C 
BRANCH  16  19
HETATM   19  C   UNK N   1      29.384  16.879   5.374  0.00  0.00     0.253 C 
HETATM   20  O   UNK N   1      29.561  16.554   4.208  0.00  0.00    -0.267 OA
HETATM   21  N   UNK N   1      30.456  17.122   6.204  0.00  0.00    -0.345 N 
HETATM   22  C   UNK N   1      31.817  16.889   5.798  0.00  0.00     0.156 C 
HETATM   23  C   UNK N   1      30.276  17.677   7.528  0.00  0.00     0.156 C 
HETATM   24  C   UNK N   1      32.496  15.994   6.853  0.00  0.00     0.291 C 
HETATM   25  N   UNK N   1      32.265  16.428   8.247  0.00  0.00     0.087 N 
HETATM   26  C   UNK N   1      30.854  16.696   8.535  0.00  0.00     0.291 C 
HETATM   27  C   UNK N   1      33.063  17.603   8.569  0.00  0.00     0.310 C 
ENDBRANCH  16  19
ENDBRANCH  11  13
ENDBRANCH   3   9
BRANCH   1  28
HETATM   28  O   UNK N   1      21.226  14.482   8.107  0.00  0.00    -0.338 OA
BRANCH  28  29
HETATM   29  C   UNK N   1      22.075  13.427   7.881  0.00  0.00     0.161 C 
HETATM   30  C   UNK N   1      21.337  12.292   7.198  0.00  0.00     0.045 C 
BRANCH  29  31
HETATM   31  C   UNK N   1      22.772  12.938   9.145  0.00  0.00     0.017 A 
HETATM   32  C   UNK N   1      24.172  12.738   9.098  0.00  0.00     0.044 A 
HETATM   33  C   UNK N   1      24.862  12.284  10.223  0.00  0.00     0.028 A 
HETATM   34 Cl   UNK N   1      25.100  13.066   7.640  0.00  0.00    -0.084 Cl
HETATM   35  C   UNK N   1      24.184  12.021  11.409  0.00  0.00     0.046 A 
HETATM   36  C   UNK N   1      22.808  12.214  11.486  0.00  0.00     0.138 A 
HETATM   37  C   UNK N   1      22.087  12.672  10.371  0.00  0.00     0.083 A 
HETATM   38  F   UNK N   1      22.169  11.947  12.652  0.00  0.00    -0.204 F 
HETATM   39 Cl   UNK N   1      20.343  12.868  10.569  0.00  0.00    -0.080 Cl
ENDBRANCH  29  31
ENDBRANCH  28  29
ENDBRANCH   1  28
BRANCH   8  40
HETATM   40  N   UNK N   1      19.755  16.821   8.951  0.00  0.00    -0.382 N 
HETATM   41  H   UNK N   1      18.793  16.628   9.034  0.00  0.00     0.157 HD
HETATM   42  H   UNK N   1      20.191  17.058   9.801  0.00  0.00     0.157 HD
ENDBRANCH   8  40
TORSDOF 7
ENDMDL
MODEL 4
REMARK VINA RESULT:      -8.3      1.409      2.219
REMARK  7 active torsions:
REMARK  status: ('A' for Active; 'I' for Inactive)
REMARK    1  A    between atoms: C_2  and  C_3 
REMARK    2  A    between atoms: C_2  and  O_12 
REMARK    3  A    between atoms: O_12  and  C_13 
REMARK    4  A    between atoms: C_15  and  C_22 
REMARK    5  A    between atoms: C_20  and  N_21 
REMARK       I    between atoms: C_22  and  N_24 
REMARK    6  A    between atoms: N_24  and  C_25 
REMARK    7  A    between atoms: C_28  and  C_31 
REMARK       I    between atoms: C_31  and  N_33 
ROOT
HETATM    1  C   UNK N   1      34.601  13.084   9.992  0.00  0.00     0.117 A 
HETATM    2  C   UNK N   1      35.113  14.349  10.199  0.00  0.00     0.077 A 
HETATM    3  C   UNK N   1      34.329  15.468   9.952  0.00  0.00     0.119 A 
HETATM    4  N   UNK N   1      33.045  15.295   9.527  0.00  0.00    -0.294 N 
ATOM      5  HN  UNK N   1      32.472  16.114   9.325  1.00  0.00     0.187 HD
HETATM    6  N   UNK N   1      32.522  14.081   9.369  0.00  0.00    -0.283 N 
ATOM      7  HN  UNK N   1      31.544  13.991   9.093  1.00  0.00     0.188 HD
HETATM    8  C   UNK N   1      33.264  12.955   9.567  0.00  0.00     0.147 A 
ENDROOT
BRANCH   3   9
HETATM    9  C   UNK N   1      34.948  16.804   9.918  0.00  0.00     0.274 C 
HETATM   10  O   UNK N   1      36.004  16.971  10.509  0.00  0.00    -0.266 OA
HETATM   11  N   UNK N   1      34.345  17.885   9.353  0.00  0.00    -0.322 N 
HETATM   12  H   UNK N   1      34.497  18.754   9.789  0.00  0.00     0.169 HD
BRANCH  11  13
HETATM   13  C   UNK N   1      33.516  17.887   8.198  0.00  0.00     0.035 C 
HETATM   14  C   UNK N   1      34.045  17.324   7.031  0.00  0.00     0.030 C 
HETATM   15  C   UNK N   1      33.206  16.700   6.109  0.00  0.00     0.019 C 
HETATM   16  C   UNK N   1      31.833  16.630   6.357  0.00  0.00     0.032 C 
HETATM   17  C   UNK N   1      31.293  17.347   7.433  0.00  0.00     0.019 C 
HETATM   18  C   UNK N   1      32.127  17.964   8.352  0.00  0.00     0.030 C 
BRANCH  16  19
HETATM   19  C   UNK N   1      31.211  15.323   6.062  0.00  0.00     0.253 C 
HETATM   20  O   UNK N   1      31.475  14.344   6.747  0.00  0.00    -0.267 OA
HETATM   21  N   UNK N   1      30.222  15.261   5.104  0.00  0.00    -0.345 N 
HETATM   22  C   UNK N   1      29.545  14.037   4.770  0.00  0.00     0.156 C 
HETATM   23  C   UNK N   1      29.769  16.446   4.408  0.00  0.00     0.156 C 
HETATM   24  C   UNK N   1      29.632  13.830   3.245  0.00  0.00     0.291 C 
HETATM   25  N   UNK N   1      29.294  15.033   2.456  0.00  0.00     0.087 N 
HETATM   26  C   UNK N   1      29.993  16.236   2.920  0.00  0.00     0.291 C 
HETATM   27  C   UNK N   1      27.857  15.273   2.454  0.00  0.00     0.310 C 
ENDBRANCH  16  19
ENDBRANCH  11  13
ENDBRANCH   3   9
BRANCH   1  28
HETATM   28  O   UNK N   1      35.434  12.034  10.168  0.00  0.00    -0.338 OA
BRANCH  28  29
HETATM   29  C   UNK N   1      36.216  11.879  11.285  0.00  0.00     0.161 C 
HETATM   30  C   UNK N   1      37.190  10.733  11.092  0.00  0.00     0.045 C 
BRANCH  29  31
HETATM   31  C   UNK N   1      35.404  11.692  12.562  0.00  0.00     0.017 A 
HETATM   32  C   UNK N   1      34.549  10.568  12.649  0.00  0.00     0.044 A 
HETATM   33  C   UNK N   1      33.777  10.351  13.791  0.00  0.00     0.028 A 
HETATM   34 Cl   UNK N   1      34.434   9.396  11.342  0.00  0.00    -0.084 Cl
HETATM   35  C   UNK N   1      33.835  11.236  14.862  0.00  0.00     0.046 A 
HETATM   36  C   UNK N   1      34.672  12.346  14.807  0.00  0.00     0.138 A 
HETATM   37  C   UNK N   1      35.462  12.590  13.673  0.00  0.00     0.083 A 
HETATM   38  F   UNK N   1      34.709  13.196  15.864  0.00  0.00    -0.204 F 
HETATM   39 Cl   UNK N   1      36.477  14.036  13.697  0.00  0.00    -0.080 Cl
ENDBRANCH  29  31
ENDBRANCH  28  29
ENDBRANCH   1  28
BRANCH   8  40
HETATM   40  N   UNK N   1      32.683  11.692   9.350  0.00  0.00    -0.382 N 
HETATM   41  H   UNK N   1      31.851  11.418   8.900  0.00  0.00     0.157 HD
HETATM   42  H   UNK N   1      33.207  10.943   9.715  0.00  0.00     0.157 HD
ENDBRANCH   8  40
TORSDOF 7
ENDMDL
MODEL 5
REMARK VINA RESULT:      -8.2      4.185      9.978
REMARK  7 active torsions:
REMARK  status: ('A' for Active; 'I' for Inactive)
REMARK    1  A    between atoms: C_2  and  C_3 
REMARK    2  A    between atoms: C_2  and  O_12 
REMARK    3  A    between atoms: O_12  and  C_13 
REMARK    4  A    between atoms: C_15  and  C_22 
REMARK    5  A    between atoms: C_20  and  N_21 
REMARK       I    between atoms: C_22  and  N_24 
REMARK    6  A    between atoms: N_24  and  C_25 
REMARK    7  A    between atoms: C_28  and  C_31 
REMARK       I    between atoms: C_31  and  N_33 
ROOT
HETATM    1  C   UNK N   1      30.339  17.058   7.033  0.00  0.00     0.117 A 
HETATM    2  C   UNK N   1      31.702  16.852   6.986  0.00  0.00     0.077 A 
HETATM    3  C   UNK N   1      32.524  17.400   7.961  0.00  0.00     0.119 A 
HETATM    4  N   UNK N   1      31.962  18.121   8.972  0.00  0.00    -0.294 N 
ATOM      5  HN  UNK N   1      32.564  18.542   9.680  1.00  0.00     0.187 HD
HETATM    6  N   UNK N   1      30.644  18.288   9.057  0.00  0.00    -0.283 N 
ATOM      7  HN  UNK N   1      30.256  18.795   9.852  1.00  0.00     0.188 HD
HETATM    8  C   UNK N   1      29.802  17.797   8.105  0.00  0.00     0.147 A 
ENDROOT
BRANCH   3   9
HETATM    9  C   UNK N   1      33.985  17.404   7.770  0.00  0.00     0.274 C 
HETATM   10  O   UNK N   1      34.461  18.156   6.934  0.00  0.00    -0.266 OA
HETATM   11  N   UNK N   1      34.816  16.531   8.402  0.00  0.00    -0.322 N 
HETATM   12  H   UNK N   1      35.600  16.221   7.894  0.00  0.00     0.169 HD
BRANCH  11  13
HETATM   13  C   UNK N   1      34.668  16.022   9.721  0.00  0.00     0.035 C 
HETATM   14  C   UNK N   1      34.130  14.737   9.853  0.00  0.00     0.030 C 
HETATM   15  C   UNK N   1      34.516  13.920  10.916  0.00  0.00     0.019 C 
HETATM   16  C   UNK N   1      35.450  14.384  11.844  0.00  0.00     0.032 C 
HETATM   17  C   UNK N   1      35.846  15.729  11.806  0.00  0.00     0.019 C 
HETATM   18  C   UNK N   1      35.466  16.540  10.748  0.00  0.00     0.030 C 
BRANCH  16  19
HETATM   19  C   UNK N   1      36.488  13.407  12.230  0.00  0.00     0.253 C 
HETATM   20  O   UNK N   1      37.460  13.221  11.511  0.00  0.00    -0.267 OA
HETATM   21  N   UNK N   1      36.416  12.822  13.476  0.00  0.00    -0.345 N 
HETATM   22  C   UNK N   1      37.396  11.878  13.945  0.00  0.00     0.156 C 
HETATM   23  C   UNK N   1      35.368  13.166  14.413  0.00  0.00     0.156 C 
HETATM   24  C   UNK N   1      36.662  10.608  14.421  0.00  0.00     0.291 C 
HETATM   25  N   UNK N   1      35.502  10.877  15.295  0.00  0.00     0.087 N 
HETATM   26  C   UNK N   1      34.601  11.898  14.752  0.00  0.00     0.291 C 
HETATM   27  C   UNK N   1      35.931  11.265  16.632  0.00  0.00     0.310 C 
ENDBRANCH  16  19
ENDBRANCH  11  13
ENDBRANCH   3   9
BRANCH   1  28
HETATM   28  O   UNK N   1      29.595  16.573   6.014  0.00  0.00    -0.338 OA
BRANCH  28  29
HETATM   29  C   UNK N   1      29.936  16.740   4.694  0.00  0.00     0.161 C 
HETATM   30  C   UNK N   1      28.723  17.156   3.884  0.00  0.00     0.045 C 
BRANCH  29  31
HETATM   31  C   UNK N   1      30.599  15.509   4.087  0.00  0.00     0.017 A 
HETATM   32  C   UNK N   1      31.858  15.671   3.462  0.00  0.00     0.044 A 
HETATM   33  C   UNK N   1      32.508  14.581   2.883  0.00  0.00     0.028 A 
HETATM   34 Cl   UNK N   1      32.662  17.234   3.406  0.00  0.00    -0.084 Cl
HETATM   35  C   UNK N   1      31.928  13.317   2.909  0.00  0.00     0.046 A 
HETATM   36  C   UNK N   1      30.692  13.127   3.521  0.00  0.00     0.138 A 
HETATM   37  C   UNK N   1      30.016  14.204   4.114  0.00  0.00     0.083 A 
HETATM   38  F   UNK N   1      30.146  11.885   3.530  0.00  0.00    -0.204 F 
HETATM   39 Cl   UNK N   1      28.447  13.859   4.849  0.00  0.00    -0.080 Cl
ENDBRANCH  29  31
ENDBRANCH  28  29
ENDBRANCH   1  28
BRANCH   8  40
HETATM   40  N   UNK N   1      28.418  18.032   8.213  0.00  0.00    -0.382 N 
HETATM   41  H   UNK N   1      27.781  18.501   7.627  0.00  0.00     0.157 HD
HETATM   42  H   UNK N   1      28.012  17.655   9.027  0.00  0.00     0.157 HD
ENDBRANCH   8  40
TORSDOF 7
ENDMDL
MODEL 6
REMARK VINA RESULT:      -8.2      4.694      8.883
REMARK  7 active torsions:
REMARK  status: ('A' for Active; 'I' for Inactive)
REMARK    1  A    between atoms: C_2  and  C_3 
REMARK    2  A    between atoms: C_2  and  O_12 
REMARK    3  A    between atoms: O_12  and  C_13 
REMARK    4  A    between atoms: C_15  and  C_22 
REMARK    5  A    between atoms: C_20  and  N_21 
REMARK       I    between atoms: C_22  and  N_24 
REMARK    6  A    between atoms: N_24  and  C_25 
REMARK    7  A    between atoms: C_28  and  C_31 
REMARK       I    between atoms: C_31  and  N_33 
ROOT
HETATM    1  C   UNK N   1      28.666  17.316   5.397  0.00  0.00     0.117 A 
HETATM    2  C   UNK N   1      28.765  16.957   6.726  0.00  0.00     0.077 A 
HETATM    3  C   UNK N   1      28.383  17.848   7.719  0.00  0.00     0.119 A 
HETATM    4  N   UNK N   1      27.891  19.068   7.361  0.00  0.00    -0.294 N 
ATOM      5  HN  UNK N   1      27.628  19.733   8.088  1.00  0.00     0.187 HD
HETATM    6  N   UNK N   1      27.745  19.411   6.083  0.00  0.00    -0.283 N 
ATOM      7  HN  UNK N   1      27.331  20.314   5.853  1.00  0.00     0.188 HD
HETATM    8  C   UNK N   1      28.137  18.581   5.075  0.00  0.00     0.147 A 
ENDROOT
BRANCH   3   9
HETATM    9  C   UNK N   1      28.731  17.572   9.124  0.00  0.00     0.274 C 
HETATM   10  O   UNK N   1      27.826  17.457   9.936  0.00  0.00    -0.266 OA
HETATM   11  N   UNK N   1      30.013  17.549   9.578  0.00  0.00    -0.322 N 
HETATM   12  H   UNK N   1      30.165  17.886  10.490  0.00  0.00     0.169 HD
BRANCH  11  13
HETATM   13  C   UNK N   1      31.156  17.088   8.869  0.00  0.00     0.035 C 
HETATM   14  C   UNK N   1      32.103  18.046   8.490  0.00  0.00     0.030 C 
HETATM   15  C   UNK N   1      33.452  17.705   8.405  0.00  0.00     0.019 C 
HETATM   16  C   UNK N   1      33.860  16.404   8.710  0.00  0.00     0.032 C 
HETATM   17  C   UNK N   1      32.891  15.412   8.914  0.00  0.00     0.019 C 
HETATM   18  C   UNK N   1      31.550  15.751   9.002  0.00  0.00     0.030 C 
BRANCH  16  19
HETATM   19  C   UNK N   1      35.080  16.308   9.536  0.00  0.00     0.253 C 
HETATM   20  O   UNK N   1      35.405  17.233  10.269  0.00  0.00    -0.267 OA
HETATM   21  N   UNK N   1      35.759  15.110   9.579  0.00  0.00    -0.345 N 
HETATM   22  C   UNK N   1      36.942  14.919  10.376  0.00  0.00     0.156 C 
HETATM   23  C   UNK N   1      35.286  13.948   8.857  0.00  0.00     0.156 C 
HETATM   24  C   UNK N   1      38.056  14.360   9.470  0.00  0.00     0.291 C 
HETATM   25  N   UNK N   1      37.625  13.238   8.610  0.00  0.00     0.087 N 
HETATM   26  C   UNK N   1      36.378  13.515   7.892  0.00  0.00     0.291 C 
HETATM   27  C   UNK N   1      37.483  12.010   9.382  0.00  0.00     0.310 C 
ENDBRANCH  16  19
ENDBRANCH  11  13
ENDBRANCH   3   9
BRANCH   1  28
HETATM   28  O   UNK N   1      29.129  16.444   4.475  0.00  0.00    -0.338 OA
BRANCH  28  29
HETATM   29  C   UNK N   1      30.381  16.536   3.920  0.00  0.00     0.161 C 
HETATM   30  C   UNK N   1      30.302  16.400   2.412  0.00  0.00     0.045 C 
BRANCH  29  31
HETATM   31  C   UNK N   1      31.371  15.535   4.505  0.00  0.00     0.017 A 
HETATM   32  C   UNK N   1      32.653  16.005   4.876  0.00  0.00     0.044 A 
HETATM   33  C   UNK N   1      33.601  15.132   5.409  0.00  0.00     0.028 A 
HETATM   34 Cl   UNK N   1      33.097  17.698   4.702  0.00  0.00    -0.084 Cl
HETATM   35  C   UNK N   1      33.302  13.785   5.583  0.00  0.00     0.046 A 
HETATM   36  C   UNK N   1      32.048  13.295   5.232  0.00  0.00     0.138 A 
HETATM   37  C   UNK N   1      31.072  14.150   4.696  0.00  0.00     0.083 A 
HETATM   38  F   UNK N   1      31.782  11.976   5.408  0.00  0.00    -0.204 F 
HETATM   39 Cl   UNK N   1      29.519  13.426   4.267  0.00  0.00    -0.080 Cl
ENDBRANCH  29  31
ENDBRANCH  28  29
ENDBRANCH   1  28
BRANCH   8  40
HETATM   40  N   UNK N   1      28.002  19.000   3.738  0.00  0.00    -0.382 N 
HETATM   41  H   UNK N   1      28.665  19.183   3.034  0.00  0.00     0.157 HD
HETATM   42  H   UNK N   1      27.068  19.135   3.454  0.00  0.00     0.157 HD
ENDBRANCH   8  40
TORSDOF 7
ENDMDL
MODEL 7
REMARK VINA RESULT:      -8.1      5.921      8.422
REMARK  7 active torsions:
REMARK  status: ('A' for Active; 'I' for Inactive)
REMARK    1  A    between atoms: C_2  and  C_3 
REMARK    2  A    between atoms: C_2  and  O_12 
REMARK    3  A    between atoms: O_12  and  C_13 
REMARK    4  A    between atoms: C_15  and  C_22 
REMARK    5  A    between atoms: C_20  and  N_21 
REMARK       I    between atoms: C_22  and  N_24 
REMARK    6  A    between atoms: N_24  and  C_25 
REMARK    7  A    between atoms: C_28  and  C_31 
REMARK       I    between atoms: C_31  and  N_33 
ROOT
HETATM    1  C   UNK N   1      30.035  17.651   8.549  0.00  0.00     0.117 A 
HETATM    2  C   UNK N   1      29.498  18.457   7.566  0.00  0.00     0.077 A 
HETATM    3  C   UNK N   1      28.209  18.954   7.699  0.00  0.00     0.119 A 
HETATM    4  N   UNK N   1      27.496  18.653   8.822  0.00  0.00    -0.294 N 
ATOM      5  HN  UNK N   1      26.542  19.000   8.915  1.00  0.00     0.187 HD
HETATM    6  N   UNK N   1      28.018  17.916   9.799  0.00  0.00    -0.283 N 
ATOM      7  HN  UNK N   1      27.472  17.749  10.645  1.00  0.00     0.188 HD
HETATM    8  C   UNK N   1      29.267  17.380   9.697  0.00  0.00     0.147 A 
ENDROOT
BRANCH   3   9
HETATM    9  C   UNK N   1      27.545  19.588   6.546  0.00  0.00     0.274 C 
HETATM   10  O   UNK N   1      27.569  20.806   6.459  0.00  0.00    -0.266 OA
HETATM   11  N   UNK N   1      26.814  18.888   5.637  0.00  0.00    -0.322 N 
HETATM   12  H   UNK N   1      26.023  19.340   5.265  0.00  0.00     0.169 HD
BRANCH  11  13
HETATM   13  C   UNK N   1      27.075  17.571   5.171  0.00  0.00     0.035 C 
HETATM   14  C   UNK N   1      26.379  16.524   5.787  0.00  0.00     0.030 C 
HETATM   15  C   UNK N   1      26.049  15.379   5.063  0.00  0.00     0.019 C 
HETATM   16  C   UNK N   1      26.406  15.281   3.717  0.00  0.00     0.032 C 
HETATM   17  C   UNK N   1      27.253  16.250   3.160  0.00  0.00     0.019 C 
HETATM   18  C   UNK N   1      27.579  17.390   3.877  0.00  0.00     0.030 C 
BRANCH  16  19
HETATM   19  C   UNK N   1      25.357  14.740   2.829  0.00  0.00     0.253 C 
HETATM   20  O   UNK N   1      24.387  15.423   2.530  0.00  0.00    -0.267 OA
HETATM   21  N   UNK N   1      25.563  13.516   2.231  0.00  0.00    -0.345 N 
HETATM   22  C   UNK N   1      24.607  12.923   1.333  0.00  0.00     0.156 C 
HETATM   23  C   UNK N   1      26.788  12.773   2.432  0.00  0.00     0.156 C 
HETATM   24  C   UNK N   1      24.295  11.496   1.825  0.00  0.00     0.291 C 
HETATM   25  N   UNK N   1      25.494  10.702   2.165  0.00  0.00     0.087 N 
HETATM   26  C   UNK N   1      26.429  11.423   3.033  0.00  0.00     0.291 C 
HETATM   27  C   UNK N   1      26.186  10.257   0.963  0.00  0.00     0.310 C 
ENDBRANCH  16  19
ENDBRANCH  11  13
ENDBRANCH   3   9
BRANCH   1  28
HETATM   28  O   UNK N   1      31.262  17.126   8.329  0.00  0.00    -0.338 OA
BRANCH  28  29
HETATM   29  C   UNK N   1      31.469  16.003   7.568  0.00  0.00     0.161 C 
HETATM   30  C   UNK N   1      32.617  15.188   8.132  0.00  0.00     0.045 C 
BRANCH  29  31
HETATM   31  C   UNK N   1      31.696  16.312   6.093  0.00  0.00     0.017 A 
HETATM   32  C   UNK N   1      32.722  17.227   5.755  0.00  0.00     0.044 A 
HETATM   33  C   UNK N   1      32.969  17.553   4.421  0.00  0.00     0.028 A 
HETATM   34 Cl   UNK N   1      33.733  17.970   6.987  0.00  0.00    -0.084 Cl
HETATM   35  C   UNK N   1      32.210  16.986   3.403  0.00  0.00     0.046 A 
HETATM   36  C   UNK N   1      31.199  16.080   3.705  0.00  0.00     0.138 A 
HETATM   37  C   UNK N   1      30.928  15.730   5.037  0.00  0.00     0.083 A 
HETATM   38  F   UNK N   1      30.471  15.543   2.694  0.00  0.00    -0.204 F 
HETATM   39 Cl   UNK N   1      29.613  14.584   5.314  0.00  0.00    -0.080 Cl
ENDBRANCH  29  31
ENDBRANCH  28  29
ENDBRANCH   1  28
BRANCH   8  40
HETATM   40  N   UNK N   1      29.764  16.573  10.738  0.00  0.00    -0.382 N 
HETATM   41  H   UNK N   1      29.614  16.586  11.711  0.00  0.00     0.157 HD
HETATM   42  H   UNK N   1      30.376  15.863  10.436  0.00  0.00     0.157 HD
ENDBRANCH   8  40
TORSDOF 7
ENDMDL
MODEL 8
REMARK VINA RESULT:      -7.9      1.904      2.742
REMARK  7 active torsions:
REMARK  status: ('A' for Active; 'I' for Inactive)
REMARK    1  A    between atoms: C_2  and  C_3 
REMARK    2  A    between atoms: C_2  and  O_12 
REMARK    3  A    between atoms: O_12  and  C_13 
REMARK    4  A    between atoms: C_15  and  C_22 
REMARK    5  A    between atoms: C_20  and  N_21 
REMARK       I    between atoms: C_22  and  N_24 
REMARK    6  A    between atoms: N_24  and  C_25 
REMARK    7  A    between atoms: C_28  and  C_31 
REMARK       I    between atoms: C_31  and  N_33 
ROOT
HETATM    1  C   UNK N   1      34.533  13.333   9.862  0.00  0.00     0.117 A 
HETATM    2  C   UNK N   1      35.000  14.632   9.886  0.00  0.00     0.077 A 
HETATM    3  C   UNK N   1      34.140  15.687   9.613  0.00  0.00     0.119 A 
HETATM    4  N   UNK N   1      32.829  15.421   9.345  0.00  0.00    -0.294 N 
ATOM      5  HN  UNK N   1      32.199  16.191   9.125  1.00  0.00     0.187 HD
HETATM    6  N   UNK N   1      32.355  14.177   9.365  0.00  0.00    -0.283 N 
ATOM      7  HN  UNK N   1      31.359  14.020   9.205  1.00  0.00     0.188 HD
HETATM    8  C   UNK N   1      33.168  13.108   9.596  0.00  0.00     0.147 A 
ENDROOT
BRANCH   3   9
HETATM    9  C   UNK N   1      34.685  17.035   9.380  0.00  0.00     0.274 C 
HETATM   10  O   UNK N   1      35.481  17.489  10.188  0.00  0.00    -0.266 OA
HETATM   11  N   UNK N   1      34.260  17.841   8.369  0.00  0.00    -0.322 N 
HETATM   12  H   UNK N   1      34.228  18.806   8.557  0.00  0.00     0.169 HD
BRANCH  11  13
HETATM   13  C   UNK N   1      33.858  17.430   7.069  0.00  0.00     0.035 C 
HETATM   14  C   UNK N   1      34.681  16.513   6.405  0.00  0.00     0.030 C 
HETATM   15  C   UNK N   1      34.131  15.594   5.512  0.00  0.00     0.019 C 
HETATM   16  C   UNK N   1      32.752  15.584   5.288  0.00  0.00     0.032 C 
HETATM   17  C   UNK N   1      31.963  16.614   5.817  0.00  0.00     0.019 C 
HETATM   18  C   UNK N   1      32.509  17.526   6.708  0.00  0.00     0.030 C 
BRANCH  16  19
HETATM   19  C   UNK N   1      32.136  14.242   5.247  0.00  0.00     0.253 C 
HETATM   20  O   UNK N   1      31.650  13.754   6.258  0.00  0.00    -0.267 OA
HETATM   21  N   UNK N   1      31.986  13.619   4.026  0.00  0.00    -0.345 N 
HETATM   22  C   UNK N   1      31.375  12.324   3.889  0.00  0.00     0.156 C 
HETATM   23  C   UNK N   1      32.393  14.262   2.795  0.00  0.00     0.156 C 
HETATM   24  C   UNK N   1      32.335  11.412   3.100  0.00  0.00     0.291 C 
HETATM   25  N   UNK N   1      32.890  12.037   1.881  0.00  0.00     0.087 N 
HETATM   26  C   UNK N   1      33.430  13.378   2.121  0.00  0.00     0.291 C 
HETATM   27  C   UNK N   1      31.893  12.094   0.820  0.00  0.00     0.310 C 
ENDBRANCH  16  19
ENDBRANCH  11  13
ENDBRANCH   3   9
BRANCH   1  28
HETATM   28  O   UNK N   1      35.430  12.341  10.053  0.00  0.00    -0.338 OA
BRANCH  28  29
HETATM   29  C   UNK N   1      36.214  12.247  11.176  0.00  0.00     0.161 C 
HETATM   30  C   UNK N   1      37.316  11.227  10.966  0.00  0.00     0.045 C 
BRANCH  29  31
HETATM   31  C   UNK N   1      35.418  11.935  12.438  0.00  0.00     0.017 A 
HETATM   32  C   UNK N   1      34.691  10.721  12.482  0.00  0.00     0.044 A 
HETATM   33  C   UNK N   1      33.939  10.386  13.608  0.00  0.00     0.028 A 
HETATM   34 Cl   UNK N   1      34.718   9.583  11.141  0.00  0.00    -0.084 Cl
HETATM   35  C   UNK N   1      33.890  11.241  14.705  0.00  0.00     0.046 A 
HETATM   36  C   UNK N   1      34.599  12.438  14.691  0.00  0.00     0.138 A 
HETATM   37  C   UNK N   1      35.367  12.800  13.573  0.00  0.00     0.083 A 
HETATM   38  F   UNK N   1      34.533  13.255  15.772  0.00  0.00    -0.204 F 
HETATM   39 Cl   UNK N   1      36.215  14.348  13.650  0.00  0.00    -0.080 Cl
ENDBRANCH  29  31
ENDBRANCH  28  29
ENDBRANCH   1  28
BRANCH   8  40
HETATM   40  N   UNK N   1      32.632  11.808   9.568  0.00  0.00    -0.382 N 
HETATM   41  H   UNK N   1      33.045  10.927   9.420  0.00  0.00     0.157 HD
HETATM   42  H   UNK N   1      31.661  11.773   9.729  0.00  0.00     0.157 HD
ENDBRANCH   8  40
TORSDOF 7
ENDMDL
MODEL 9
REMARK VINA RESULT:      -7.9      1.943      2.361
REMARK  7 active torsions:
REMARK  status: ('A' for Active; 'I' for Inactive)
REMARK    1  A    between atoms: C_2  and  C_3 
REMARK    2  A    between atoms: C_2  and  O_12 
REMARK    3  A    between atoms: O_12  and  C_13 
REMARK    4  A    between atoms: C_15  and  C_22 
REMARK    5  A    between atoms: C_20  and  N_21 
REMARK       I    between atoms: C_22  and  N_24 
REMARK    6  A    between atoms: N_24  and  C_25 
REMARK    7  A    between atoms: C_28  and  C_31 
REMARK       I    between atoms: C_31  and  N_33 
ROOT
HETATM    1  C   UNK N   1      34.671  13.276   9.416  0.00  0.00     0.117 A 
HETATM    2  C   UNK N   1      35.132  14.556   9.646  0.00  0.00     0.077 A 
HETATM    3  C   UNK N   1      34.235  15.607   9.779  0.00  0.00     0.119 A 
HETATM    4  N   UNK N   1      32.898  15.349   9.702  0.00  0.00    -0.294 N 
ATOM      5  HN  UNK N   1      32.236  16.121   9.779  1.00  0.00     0.187 HD
HETATM    6  N   UNK N   1      32.437  14.113   9.528  0.00  0.00    -0.283 N 
ATOM      7  HN  UNK N   1      31.430  13.952   9.521  1.00  0.00     0.188 HD
HETATM    8  C   UNK N   1      33.281  13.056   9.360  0.00  0.00     0.147 A 
ENDROOT
BRANCH   3   9
HETATM    9  C   UNK N   1      34.725  16.996   9.760  0.00  0.00     0.274 C 
HETATM   10  O   UNK N   1      35.773  17.251  10.332  0.00  0.00    -0.266 OA
HETATM   11  N   UNK N   1      34.009  18.026   9.231  0.00  0.00    -0.322 N 
HETATM   12  H   UNK N   1      34.089  18.896   9.683  0.00  0.00     0.169 HD
BRANCH  11  13
HETATM   13  C   UNK N   1      33.158  17.972   8.094  0.00  0.00     0.035 C 
HETATM   14  C   UNK N   1      33.709  17.476   6.907  0.00  0.00     0.030 C 
HETATM   15  C   UNK N   1      32.907  16.794   5.992  0.00  0.00     0.019 C 
HETATM   16  C   UNK N   1      31.552  16.598   6.268  0.00  0.00     0.032 C 
HETATM   17  C   UNK N   1      30.975  17.248   7.367  0.00  0.00     0.019 C 
HETATM   18  C   UNK N   1      31.771  17.923   8.279  0.00  0.00     0.030 C 
BRANCH  16  19
HETATM   19  C   UNK N   1      31.041  15.246   5.964  0.00  0.00     0.253 C 
HETATM   20  O   UNK N   1      31.376  14.290   6.650  0.00  0.00    -0.267 OA
HETATM   21  N   UNK N   1      30.073  15.106   4.994  0.00  0.00    -0.345 N 
HETATM   22  C   UNK N   1      29.501  13.831   4.650  0.00  0.00     0.156 C 
HETATM   23  C   UNK N   1      29.533  16.252   4.295  0.00  0.00     0.156 C 
HETATM   24  C   UNK N   1      29.622  13.636   3.126  0.00  0.00     0.291 C 
HETATM   25  N   UNK N   1      29.197  14.810   2.335  0.00  0.00     0.087 N 
HETATM   26  C   UNK N   1      29.790  16.064   2.809  0.00  0.00     0.291 C 
HETATM   27  C   UNK N   1      27.746  14.932   2.316  0.00  0.00     0.310 C 
ENDBRANCH  16  19
ENDBRANCH  11  13
ENDBRANCH   3   9
BRANCH   1  28
HETATM   28  O   UNK N   1      35.590  12.305   9.212  0.00  0.00    -0.338 OA
BRANCH  28  29
HETATM   29  C   UNK N   1      36.507  11.932  10.163  0.00  0.00     0.161 C 
HETATM   30  C   UNK N   1      37.683  11.228   9.514  0.00  0.00     0.045 C 
BRANCH  29  31
HETATM   31  C   UNK N   1      35.905  11.075  11.270  0.00  0.00     0.017 A 
HETATM   32  C   UNK N   1      35.960  11.567  12.596  0.00  0.00     0.044 A 
HETATM   33  C   UNK N   1      35.431  10.822  13.651  0.00  0.00     0.028 A 
HETATM   34 Cl   UNK N   1      36.670  13.133  12.968  0.00  0.00    -0.084 Cl
HETATM   35  C   UNK N   1      34.845   9.583  13.417  0.00  0.00     0.046 A 
HETATM   36  C   UNK N   1      34.772   9.077  12.123  0.00  0.00     0.138 A 
HETATM   37  C   UNK N   1      35.293   9.804  11.041  0.00  0.00     0.083 A 
HETATM   38  F   UNK N   1      34.198   7.864  11.921  0.00  0.00    -0.204 F 
HETATM   39 Cl   UNK N   1      35.166   9.065   9.442  0.00  0.00    -0.080 Cl
ENDBRANCH  29  31
ENDBRANCH  28  29
ENDBRANCH   1  28
BRANCH   8  40
HETATM   40  N   UNK N   1      32.751  11.771   9.138  0.00  0.00    -0.382 N 
HETATM   41  H   UNK N   1      31.984  11.297   9.534  0.00  0.00     0.157 HD
HETATM   42  H   UNK N   1      33.237  11.249   8.460  0.00  0.00     0.157 HD
ENDBRANCH   8  40
TORSDOF 7
ENDMDL
