MODEL 1
REMARK VINA RESULT:      -6.0      0.000      0.000
REMARK  24 active torsions:
REMARK  status: ('A' for Active; 'I' for Inactive)
REMARK    1  A    between atoms: C_2  and  C_3 
REMARK    2  A    between atoms: C_3  and  C_4 
REMARK    3  A    between atoms: C_4  and  C_5 
REMARK    4  A    between atoms: C_5  and  C_6 
REMARK    5  A    between atoms: C_6  and  C_7 
REMARK    6  A    between atoms: C_7  and  C_8 
REMARK    7  A    between atoms: C_8  and  C_9 
REMARK    8  A    between atoms: C_9  and  C_10 
REMARK    9  A    between atoms: C_10  and  C_11 
REMARK   10  A    between atoms: C_11  and  C_12 
REMARK   11  A    between atoms: C_12  and  N_13 
REMARK   12  A    between atoms: N_13  and  C_14 
REMARK   13  A    between atoms: C_14  and  C_15 
REMARK   14  A    between atoms: C_15  and  C_16 
REMARK   15  A    between atoms: C_15  and  O_39 
REMARK   16  A    between atoms: C_16  and  C_17 
REMARK   17  A    between atoms: C_17  and  C_18 
REMARK   18  A    between atoms: C_18  and  C_19 
REMARK   19  A    between atoms: C_19  and  C_20 
REMARK   20  A    between atoms: C_20  and  C_21 
REMARK   21  A    between atoms: C_21  and  C_22 
REMARK   22  A    between atoms: C_22  and  C_23 
REMARK   23  A    between atoms: C_23  and  C_24 
REMARK   24  A    between atoms: C_24  and  N_25 
ROOT
HETATM    1  C   UNK N   1      28.080  18.819   4.672  0.00  0.00     0.000 C 
ENDROOT
BRANCH   1   2
HETATM    2  C   UNK N   1      28.737  18.248   5.923  0.00  0.00     0.002 C 
BRANCH   2   3
HETATM    3  C   UNK N   1      27.729  18.046   7.045  0.00  0.00     0.033 C 
BRANCH   3   4
HETATM    4  C   UNK N   1      28.392  18.273   8.391  0.00  0.00     0.135 C 
BRANCH   4   5
HETATM    5  C   UNK N   1      29.532  17.286   8.618  0.00  0.00     0.145 C 
BRANCH   5   6
HETATM    6  N   UNK N   1      30.698  17.959   9.177  0.00  0.00    -0.419 N 
HETATM    7  H   UNK N   1      30.686  18.800   9.754  0.00  0.00     0.153 HD
BRANCH   6   8
HETATM    8  C   UNK N   1      31.887  17.219   8.768  0.00  0.00     0.113 C 
BRANCH   8   9
HETATM    9  C   UNK N   1      32.034  17.215   7.252  0.00  0.00     0.019 C 
BRANCH   9  10
HETATM   10  C   UNK N   1      33.427  17.667   6.842  0.00  0.00     0.002 C 
BRANCH  10  11
HETATM   11  C   UNK N   1      33.729  17.180   5.435  0.00  0.00     0.000 C 
BRANCH  11  12
HETATM   12  C   UNK N   1      32.682  17.681   4.460  0.00  0.00     0.000 C 
BRANCH  12  13
HETATM   13  C   UNK N   1      32.789  16.907   3.166  0.00  0.00     0.000 C 
BRANCH  13  14
HETATM   14  C   UNK N   1      31.419  16.416   2.760  0.00  0.00     0.000 C 
BRANCH  14  15
HETATM   15  C   UNK N   1      30.607  16.186   4.010  0.00  0.00     0.000 C 
BRANCH  15  16
HETATM   16  C   UNK N   1      29.597  15.085   3.783  0.00  0.00     0.000 C 
BRANCH  16  17
HETATM   17  C   UNK N   1      28.761  15.461   2.580  0.00  0.00    -0.000 C 
BRANCH  17  18
HETATM   18  C   UNK N   1      27.375  14.871   2.700  0.00  0.00    -0.005 C 
HETATM   19  C   UNK N   1      26.358  15.955   2.413  0.00  0.00     0.005 C 
ENDBRANCH  17  18
ENDBRANCH  16  17
ENDBRANCH  15  16
ENDBRANCH  14  15
ENDBRANCH  13  14
ENDBRANCH  12  13
ENDBRANCH  11  12
ENDBRANCH  10  11
ENDBRANCH   9  10
ENDBRANCH   8   9
ENDBRANCH   6   8
ENDBRANCH   5   6
ENDBRANCH   4   5
BRANCH   4  20
HETATM   20  O   UNK N   1      27.444  18.181   9.409  0.00  0.00    -0.394 OA
HETATM   21  H   UNK N   1      27.159  18.975   9.888  0.00  0.00     0.210 HD
ENDBRANCH   4  20
ENDBRANCH   3   4
ENDBRANCH   2   3
ENDBRANCH   1   2
BRANCH   1  22
HETATM   22  C   UNK N   1      27.767  20.294   4.857  0.00  0.00     0.000 C 
BRANCH  22  23
HETATM   23  C   UNK N   1      26.278  20.536   4.699  0.00  0.00     0.000 C 
BRANCH  23  24
HETATM   24  C   UNK N   1      25.743  19.813   3.471  0.00  0.00     0.000 C 
BRANCH  24  25
HETATM   25  C   UNK N   1      24.352  19.248   3.731  0.00  0.00     0.002 C 
BRANCH  25  26
HETATM   26  C   UNK N   1      24.393  18.060   4.682  0.00  0.00     0.020 C 
BRANCH  26  27
HETATM   27  C   UNK N   1      23.003  17.787   5.235  0.00  0.00     0.137 C 
BRANCH  27  28
HETATM   28  N   UNK N   1      22.016  17.648   4.158  0.00  0.00    -0.264 N 
HETATM   29  C   UNK N   1      22.068  16.539   3.329  0.00  0.00     0.282 A 
HETATM   30  O   UNK N   1      22.908  15.669   3.494  0.00  0.00    -0.265 OA
HETATM   31  C   UNK N   1      21.142  16.448   2.298  0.00  0.00     0.149 A 
HETATM   32  C   UNK N   1      20.217  17.413   2.116  0.00  0.00     0.145 A 
HETATM   33  N   UNK N   1      20.968  15.509   1.358  0.00  0.00    -0.340 N 
HETATM   34  N   UNK N   1      19.435  17.116   1.061  0.00  0.00    -0.336 N 
HETATM   35  N   UNK N   1      20.138  18.508   2.911  0.00  0.00    -0.287 N 
HETATM   36  C   UNK N   1      19.921  15.929   0.606  0.00  0.00     0.184 A 
ATOM     37  HN  UNK N   1      18.655  17.656   0.688  1.00  0.00     0.168 HD
HETATM   38  C   UNK N   1      21.051  18.635   3.949  0.00  0.00     0.332 A 
HETATM   39  C   UNK N   1      19.123  19.526   2.670  0.00  0.00     0.163 C 
HETATM   40  O   UNK N   1      21.012  19.617   4.674  0.00  0.00    -0.246 OA
HETATM   41  C   UNK N   1      21.729  14.288   1.156  0.00  0.00     0.157 C 
ENDBRANCH  27  28
ENDBRANCH  26  27
ENDBRANCH  25  26
ENDBRANCH  24  25
ENDBRANCH  23  24
ENDBRANCH  22  23
ENDBRANCH   1  22
TORSDOF 24
ENDMDL
MODEL 2
REMARK VINA RESULT:      -5.9      2.106      3.589
REMARK  24 active torsions:
REMARK  status: ('A' for Active; 'I' for Inactive)
REMARK    1  A    between atoms: C_2  and  C_3 
REMARK    2  A    between atoms: C_3  and  C_4 
REMARK    3  A    between atoms: C_4  and  C_5 
REMARK    4  A    between atoms: C_5  and  C_6 
REMARK    5  A    between atoms: C_6  and  C_7 
REMARK    6  A    between atoms: C_7  and  C_8 
REMARK    7  A    between atoms: C_8  and  C_9 
REMARK    8  A    between atoms: C_9  and  C_10 
REMARK    9  A    between atoms: C_10  and  C_11 
REMARK   10  A    between atoms: C_11  and  C_12 
REMARK   11  A    between atoms: C_12  and  N_13 
REMARK   12  A    between atoms: N_13  and  C_14 
REMARK   13  A    between atoms: C_14  and  C_15 
REMARK   14  A    between atoms: C_15  and  C_16 
REMARK   15  A    between atoms: C_15  and  O_39 
REMARK   16  A    between atoms: C_16  and  C_17 
REMARK   17  A    between atoms: C_17  and  C_18 
REMARK   18  A    between atoms: C_18  and  C_19 
REMARK   19  A    between atoms: C_19  and  C_20 
REMARK   20  A    between atoms: C_20  and  C_21 
REMARK   21  A    between atoms: C_21  and  C_22 
REMARK   22  A    between atoms: C_22  and  C_23 
REMARK   23  A    between atoms: C_23  and  C_24 
REMARK   24  A    between atoms: C_24  and  N_25 
ROOT
HETATM    1  C   UNK N   1      28.060  18.539   4.656  0.00  0.00     0.000 C 
ENDROOT
BRANCH   1   2
HETATM    2  C   UNK N   1      28.749  17.926   5.869  0.00  0.00     0.002 C 
BRANCH   2   3
HETATM    3  C   UNK N   1      27.795  17.784   7.046  0.00  0.00     0.033 C 
BRANCH   3   4
HETATM    4  C   UNK N   1      28.487  18.192   8.333  0.00  0.00     0.135 C 
BRANCH   4   5
HETATM    5  C   UNK N   1      29.733  17.348   8.581  0.00  0.00     0.145 C 
BRANCH   5   6
HETATM    6  N   UNK N   1      30.848  18.181   9.011  0.00  0.00    -0.419 N 
HETATM    7  H   UNK N   1      30.777  19.060   9.525  0.00  0.00     0.153 HD
BRANCH   6   8
HETATM    8  C   UNK N   1      32.086  17.541   8.580  0.00  0.00     0.113 C 
BRANCH   8   9
HETATM    9  C   UNK N   1      32.038  17.203   7.096  0.00  0.00     0.019 C 
BRANCH   9  10
HETATM   10  C   UNK N   1      33.333  17.603   6.407  0.00  0.00     0.002 C 
BRANCH  10  11
HETATM   11  C   UNK N   1      33.548  16.735   5.178  0.00  0.00     0.000 C 
BRANCH  11  12
HETATM   12  C   UNK N   1      32.709  17.235   4.018  0.00  0.00     0.000 C 
BRANCH  12  13
HETATM   13  C   UNK N   1      32.007  16.066   3.365  0.00  0.00     0.000 C 
BRANCH  13  14
HETATM   14  C   UNK N   1      30.608  16.476   2.973  0.00  0.00     0.000 C 
BRANCH  14  15
HETATM   15  C   UNK N   1      29.672  15.337   3.293  0.00  0.00     0.000 C 
BRANCH  15  16
HETATM   16  C   UNK N   1      28.635  15.189   2.204  0.00  0.00     0.000 C 
BRANCH  16  17
HETATM   17  C   UNK N   1      27.288  15.546   2.792  0.00  0.00    -0.000 C 
BRANCH  17  18
HETATM   18  C   UNK N   1      26.213  14.655   2.216  0.00  0.00    -0.005 C 
HETATM   19  C   UNK N   1      26.731  13.233   2.169  0.00  0.00     0.005 C 
ENDBRANCH  17  18
ENDBRANCH  16  17
ENDBRANCH  15  16
ENDBRANCH  14  15
ENDBRANCH  13  14
ENDBRANCH  12  13
ENDBRANCH  11  12
ENDBRANCH  10  11
ENDBRANCH   9  10
ENDBRANCH   8   9
ENDBRANCH   6   8
ENDBRANCH   5   6
ENDBRANCH   4   5
BRANCH   4  20
HETATM   20  O   UNK N   1      27.598  18.092   9.403  0.00  0.00    -0.394 OA
HETATM   21  H   UNK N   1      26.687  18.413   9.315  0.00  0.00     0.210 HD
ENDBRANCH   4  20
ENDBRANCH   3   4
ENDBRANCH   2   3
ENDBRANCH   1   2
BRANCH   1  22
HETATM   22  C   UNK N   1      28.020  20.053   4.771  0.00  0.00     0.000 C 
BRANCH  22  23
HETATM   23  C   UNK N   1      26.591  20.549   4.646  0.00  0.00     0.000 C 
BRANCH  23  24
HETATM   24  C   UNK N   1      25.963  20.057   3.351  0.00  0.00     0.000 C 
BRANCH  24  25
HETATM   25  C   UNK N   1      24.454  19.903   3.497  0.00  0.00     0.002 C 
BRANCH  25  26
HETATM   26  C   UNK N   1      24.092  18.805   4.486  0.00  0.00     0.020 C 
BRANCH  26  27
HETATM   27  C   UNK N   1      22.616  18.457   4.360  0.00  0.00     0.137 C 
BRANCH  27  28
HETATM   28  N   UNK N   1      22.227  17.419   5.321  0.00  0.00    -0.264 N 
HETATM   29  C   UNK N   1      21.413  17.754   6.390  0.00  0.00     0.282 A 
HETATM   30  O   UNK N   1      20.998  18.893   6.532  0.00  0.00    -0.265 OA
HETATM   31  C   UNK N   1      21.085  16.759   7.302  0.00  0.00     0.149 A 
HETATM   32  C   UNK N   1      21.548  15.501   7.144  0.00  0.00     0.145 A 
HETATM   33  N   UNK N   1      20.336  16.800   8.412  0.00  0.00    -0.340 N 
HETATM   34  N   UNK N   1      21.109  14.714   8.144  0.00  0.00    -0.336 N 
HETATM   35  N   UNK N   1      22.344  15.141   6.108  0.00  0.00    -0.287 N 
HETATM   36  C   UNK N   1      20.358  15.544   8.920  0.00  0.00     0.184 A 
ATOM     37  HN  UNK N   1      21.294  13.722   8.288  1.00  0.00     0.168 HD
HETATM   38  C   UNK N   1      22.695  16.111   5.179  0.00  0.00     0.332 A 
HETATM   39  C   UNK N   1      22.822  13.769   5.984  0.00  0.00     0.163 C 
HETATM   40  O   UNK N   1      23.422  15.819   4.243  0.00  0.00    -0.246 OA
HETATM   41  C   UNK N   1      19.638  17.940   8.983  0.00  0.00     0.157 C 
ENDBRANCH  27  28
ENDBRANCH  26  27
ENDBRANCH  25  26
ENDBRANCH  24  25
ENDBRANCH  23  24
ENDBRANCH  22  23
ENDBRANCH   1  22
TORSDOF 24
ENDMDL
MODEL 3
REMARK VINA RESULT:      -5.9      1.509      2.248
REMARK  24 active torsions:
REMARK  status: ('A' for Active; 'I' for Inactive)
REMARK    1  A    between atoms: C_2  and  C_3 
REMARK    2  A    between atoms: C_3  and  C_4 
REMARK    3  A    between atoms: C_4  and  C_5 
REMARK    4  A    between atoms: C_5  and  C_6 
REMARK    5  A    between atoms: C_6  and  C_7 
REMARK    6  A    between atoms: C_7  and  C_8 
REMARK    7  A    between atoms: C_8  and  C_9 
REMARK    8  A    between atoms: C_9  and  C_10 
REMARK    9  A    between atoms: C_10  and  C_11 
REMARK   10  A    between atoms: C_11  and  C_12 
REMARK   11  A    between atoms: C_12  and  N_13 
REMARK   12  A    between atoms: N_13  and  C_14 
REMARK   13  A    between atoms: C_14  and  C_15 
REMARK   14  A    between atoms: C_15  and  C_16 
REMARK   15  A    between atoms: C_15  and  O_39 
REMARK   16  A    between atoms: C_16  and  C_17 
REMARK   17  A    between atoms: C_17  and  C_18 
REMARK   18  A    between atoms: C_18  and  C_19 
REMARK   19  A    between atoms: C_19  and  C_20 
REMARK   20  A    between atoms: C_20  and  C_21 
REMARK   21  A    between atoms: C_21  and  C_22 
REMARK   22  A    between atoms: C_22  and  C_23 
REMARK   23  A    between atoms: C_23  and  C_24 
REMARK   24  A    between atoms: C_24  and  N_25 
ROOT
HETATM    1  C   UNK N   1      26.725  18.178   5.313  0.00  0.00     0.000 C 
ENDROOT
BRANCH   1   2
HETATM    2  C   UNK N   1      27.758  17.878   6.392  0.00  0.00     0.002 C 
BRANCH   2   3
HETATM    3  C   UNK N   1      28.039  19.099   7.257  0.00  0.00     0.033 C 
BRANCH   3   4
HETATM    4  C   UNK N   1      28.553  18.668   8.618  0.00  0.00     0.135 C 
BRANCH   4   5
HETATM    5  C   UNK N   1      29.749  17.731   8.486  0.00  0.00     0.145 C 
BRANCH   5   6
HETATM    6  N   UNK N   1      30.971  18.380   8.945  0.00  0.00    -0.419 N 
HETATM    7  H   UNK N   1      31.026  19.153   9.607  0.00  0.00     0.153 HD
BRANCH   6   8
HETATM    8  C   UNK N   1      32.102  17.732   8.290  0.00  0.00     0.113 C 
BRANCH   8   9
HETATM    9  C   UNK N   1      31.886  16.227   8.191  0.00  0.00     0.019 C 
BRANCH   9  10
HETATM   10  C   UNK N   1      32.849  15.607   7.192  0.00  0.00     0.002 C 
BRANCH  10  11
HETATM   11  C   UNK N   1      33.446  16.693   6.313  0.00  0.00     0.000 C 
BRANCH  11  12
HETATM   12  C   UNK N   1      33.069  16.472   4.861  0.00  0.00     0.000 C 
BRANCH  12  13
HETATM   13  C   UNK N   1      32.352  17.695   4.336  0.00  0.00     0.000 C 
BRANCH  13  14
HETATM   14  C   UNK N   1      30.885  17.605   4.681  0.00  0.00     0.000 C 
BRANCH  14  15
HETATM   15  C   UNK N   1      30.411  16.205   4.380  0.00  0.00     0.000 C 
BRANCH  15  16
HETATM   16  C   UNK N   1      30.034  16.083   2.922  0.00  0.00     0.000 C 
BRANCH  16  17
HETATM   17  C   UNK N   1      28.527  15.996   2.836  0.00  0.00    -0.000 C 
BRANCH  17  18
HETATM   18  C   UNK N   1      28.004  14.972   3.816  0.00  0.00    -0.005 C 
HETATM   19  C   UNK N   1      26.901  14.178   3.149  0.00  0.00     0.005 C 
ENDBRANCH  17  18
ENDBRANCH  16  17
ENDBRANCH  15  16
ENDBRANCH  14  15
ENDBRANCH  13  14
ENDBRANCH  12  13
ENDBRANCH  11  12
ENDBRANCH  10  11
ENDBRANCH   9  10
ENDBRANCH   8   9
ENDBRANCH   6   8
ENDBRANCH   5   6
ENDBRANCH   4   5
BRANCH   4  20
HETATM   20  O   UNK N   1      27.526  18.064   9.344  0.00  0.00    -0.394 OA
HETATM   21  H   UNK N   1      27.068  17.285   8.991  0.00  0.00     0.210 HD
ENDBRANCH   4  20
ENDBRANCH   3   4
ENDBRANCH   2   3
ENDBRANCH   1   2
BRANCH   1  22
HETATM   22  C   UNK N   1      27.298  19.124   4.272  0.00  0.00     0.000 C 
BRANCH  22  23
HETATM   23  C   UNK N   1      26.463  20.389   4.201  0.00  0.00     0.000 C 
BRANCH  23  24
HETATM   24  C   UNK N   1      25.527  20.349   3.002  0.00  0.00     0.000 C 
BRANCH  24  25
HETATM   25  C   UNK N   1      24.101  20.027   3.432  0.00  0.00     0.002 C 
BRANCH  25  26
HETATM   26  C   UNK N   1      23.082  20.505   2.408  0.00  0.00     0.020 C 
BRANCH  26  27
HETATM   27  C   UNK N   1      21.686  20.483   3.014  0.00  0.00     0.137 C 
BRANCH  27  28
HETATM   28  N   UNK N   1      21.072  19.156   2.897  0.00  0.00    -0.264 N 
HETATM   29  C   UNK N   1      20.932  18.370   4.030  0.00  0.00     0.282 A 
HETATM   30  O   UNK N   1      21.292  18.774   5.124  0.00  0.00    -0.265 OA
HETATM   31  C   UNK N   1      20.377  17.105   3.886  0.00  0.00     0.149 A 
HETATM   32  C   UNK N   1      19.984  16.660   2.674  0.00  0.00     0.145 A 
HETATM   33  N   UNK N   1      20.134  16.148   4.791  0.00  0.00    -0.340 N 
HETATM   34  N   UNK N   1      19.484  15.414   2.776  0.00  0.00    -0.336 N 
HETATM   35  N   UNK N   1      20.105  17.405   1.548  0.00  0.00    -0.287 N 
HETATM   36  C   UNK N   1      19.588  15.117   4.100  0.00  0.00     0.184 A 
ATOM     37  HN  UNK N   1      19.110  14.826   2.031  1.00  0.00     0.168 HD
HETATM   38  C   UNK N   1      20.660  18.672   1.654  0.00  0.00     0.332 A 
HETATM   39  C   UNK N   1      19.670  16.876   0.262  0.00  0.00     0.163 C 
HETATM   40  O   UNK N   1      20.794  19.360   0.654  0.00  0.00    -0.246 OA
HETATM   41  C   UNK N   1      20.396  16.175   6.220  0.00  0.00     0.157 C 
ENDBRANCH  27  28
ENDBRANCH  26  27
ENDBRANCH  25  26
ENDBRANCH  24  25
ENDBRANCH  23  24
ENDBRANCH  22  23
ENDBRANCH   1  22
TORSDOF 24
ENDMDL
MODEL 4
REMARK VINA RESULT:      -5.8      3.595      5.852
REMARK  24 active torsions:
REMARK  status: ('A' for Active; 'I' for Inactive)
REMARK    1  A    between atoms: C_2  and  C_3 
REMARK    2  A    between atoms: C_3  and  C_4 
REMARK    3  A    between atoms: C_4  and  C_5 
REMARK    4  A    between atoms: C_5  and  C_6 
REMARK    5  A    between atoms: C_6  and  C_7 
REMARK    6  A    between atoms: C_7  and  C_8 
REMARK    7  A    between atoms: C_8  and  C_9 
REMARK    8  A    between atoms: C_9  and  C_10 
REMARK    9  A    between atoms: C_10  and  C_11 
REMARK   10  A    between atoms: C_11  and  C_12 
REMARK   11  A    between atoms: C_12  and  N_13 
REMARK   12  A    between atoms: N_13  and  C_14 
REMARK   13  A    between atoms: C_14  and  C_15 
REMARK   14  A    between atoms: C_15  and  C_16 
REMARK   15  A    between atoms: C_15  and  O_39 
REMARK   16  A    between atoms: C_16  and  C_17 
REMARK   17  A    between atoms: C_17  and  C_18 
REMARK   18  A    between atoms: C_18  and  C_19 
REMARK   19  A    between atoms: C_19  and  C_20 
REMARK   20  A    between atoms: C_20  and  C_21 
REMARK   21  A    between atoms: C_21  and  C_22 
REMARK   22  A    between atoms: C_22  and  C_23 
REMARK   23  A    between atoms: C_23  and  C_24 
REMARK   24  A    between atoms: C_24  and  N_25 
ROOT
HETATM    1  C   UNK N   1      21.220  12.687   9.646  0.00  0.00     0.000 C 
ENDROOT
BRANCH   1   2
HETATM    2  C   UNK N   1      22.097  12.351  10.847  0.00  0.00     0.002 C 
BRANCH   2   3
HETATM    3  C   UNK N   1      23.461  11.830  10.419  0.00  0.00     0.033 C 
BRANCH   3   4
HETATM    4  C   UNK N   1      24.350  12.983   9.990  0.00  0.00     0.135 C 
BRANCH   4   5
HETATM    5  C   UNK N   1      24.714  12.880   8.513  0.00  0.00     0.145 C 
BRANCH   5   6
HETATM    6  N   UNK N   1      25.432  14.069   8.071  0.00  0.00    -0.419 N 
HETATM    7  H   UNK N   1      25.773  14.821   8.669  0.00  0.00     0.153 HD
BRANCH   6   8
HETATM    8  C   UNK N   1      25.576  13.998   6.621  0.00  0.00     0.113 C 
BRANCH   8   9
HETATM    9  C   UNK N   1      26.252  15.249   6.077  0.00  0.00     0.019 C 
BRANCH   9  10
HETATM   10  C   UNK N   1      25.871  15.483   4.624  0.00  0.00     0.002 C 
BRANCH  10  11
HETATM   11  C   UNK N   1      25.324  16.890   4.457  0.00  0.00     0.000 C 
BRANCH  11  12
HETATM   12  C   UNK N   1      26.000  17.592   3.296  0.00  0.00     0.000 C 
BRANCH  12  13
HETATM   13  C   UNK N   1      25.667  19.066   3.336  0.00  0.00     0.000 C 
BRANCH  13  14
HETATM   14  C   UNK N   1      25.682  19.546   4.768  0.00  0.00     0.000 C 
BRANCH  14  15
HETATM   15  C   UNK N   1      26.627  20.718   4.867  0.00  0.00     0.000 C 
BRANCH  15  16
HETATM   16  C   UNK N   1      27.660  20.468   5.940  0.00  0.00     0.000 C 
BRANCH  16  17
HETATM   17  C   UNK N   1      27.371  19.120   6.561  0.00  0.00    -0.000 C 
BRANCH  17  18
HETATM   18  C   UNK N   1      28.651  18.338   6.737  0.00  0.00    -0.005 C 
HETATM   19  C   UNK N   1      29.079  17.795   5.390  0.00  0.00     0.005 C 
ENDBRANCH  17  18
ENDBRANCH  16  17
ENDBRANCH  15  16
ENDBRANCH  14  15
ENDBRANCH  13  14
ENDBRANCH  12  13
ENDBRANCH  11  12
ENDBRANCH  10  11
ENDBRANCH   9  10
ENDBRANCH   8   9
ENDBRANCH   6   8
ENDBRANCH   5   6
ENDBRANCH   4   5
BRANCH   4  20
HETATM   20  O   UNK N   1      25.497  13.019  10.784  0.00  0.00    -0.394 OA
HETATM   21  H   UNK N   1      25.767  13.843  11.219  0.00  0.00     0.210 HD
ENDBRANCH   4  20
ENDBRANCH   3   4
ENDBRANCH   2   3
ENDBRANCH   1   2
BRANCH   1  22
HETATM   22  C   UNK N   1      20.535  14.028   9.842  0.00  0.00     0.000 C 
BRANCH  22  23
HETATM   23  C   UNK N   1      21.118  15.056   8.891  0.00  0.00     0.000 C 
BRANCH  23  24
HETATM   24  C   UNK N   1      20.220  16.281   8.808  0.00  0.00     0.000 C 
BRANCH  24  25
HETATM   25  C   UNK N   1      20.445  17.039   7.505  0.00  0.00     0.002 C 
BRANCH  25  26
HETATM   26  C   UNK N   1      21.431  16.320   6.597  0.00  0.00     0.020 C 
BRANCH  26  27
HETATM   27  C   UNK N   1      22.188  17.329   5.747  0.00  0.00     0.137 C 
BRANCH  27  28
HETATM   28  N   UNK N   1      21.539  17.528   4.447  0.00  0.00    -0.264 N 
HETATM   29  C   UNK N   1      21.446  16.465   3.564  0.00  0.00     0.282 A 
HETATM   30  O   UNK N   1      21.877  15.362   3.860  0.00  0.00    -0.265 OA
HETATM   31  C   UNK N   1      20.855  16.689   2.327  0.00  0.00     0.149 A 
HETATM   32  C   UNK N   1      20.383  17.911   2.002  0.00  0.00     0.145 A 
HETATM   33  N   UNK N   1      20.642  15.861   1.295  0.00  0.00    -0.340 N 
HETATM   34  N   UNK N   1      19.861  17.892   0.760  0.00  0.00    -0.336 N 
HETATM   35  N   UNK N   1      20.457  18.970   2.844  0.00  0.00    -0.287 N 
HETATM   36  C   UNK N   1      20.034  16.609   0.342  0.00  0.00     0.184 A 
ATOM     37  HN  UNK N   1      19.432  18.664   0.250  1.00  0.00     0.168 HD
HETATM   38  C   UNK N   1      21.045  18.784   4.086  0.00  0.00     0.332 A 
HETATM   39  C   UNK N   1      19.936  20.271   2.442  0.00  0.00     0.163 C 
HETATM   40  O   UNK N   1      21.137  19.723   4.860  0.00  0.00    -0.246 OA
HETATM   41  C   UNK N   1      20.986  14.453   1.187  0.00  0.00     0.157 C 
ENDBRANCH  27  28
ENDBRANCH  26  27
ENDBRANCH  25  26
ENDBRANCH  24  25
ENDBRANCH  23  24
ENDBRANCH  22  23
ENDBRANCH   1  22
TORSDOF 24
ENDMDL
MODEL 5
REMARK VINA RESULT:      -5.8      1.512      2.320
REMARK  24 active torsions:
REMARK  status: ('A' for Active; 'I' for Inactive)
REMARK    1  A    between atoms: C_2  and  C_3 
REMARK    2  A    between atoms: C_3  and  C_4 
REMARK    3  A    between atoms: C_4  and  C_5 
REMARK    4  A    between atoms: C_5  and  C_6 
REMARK    5  A    between atoms: C_6  and  C_7 
REMARK    6  A    between atoms: C_7  and  C_8 
REMARK    7  A    between atoms: C_8  and  C_9 
REMARK    8  A    between atoms: C_9  and  C_10 
REMARK    9  A    between atoms: C_10  and  C_11 
REMARK   10  A    between atoms: C_11  and  C_12 
REMARK   11  A    between atoms: C_12  and  N_13 
REMARK   12  A    between atoms: N_13  and  C_14 
REMARK   13  A    between atoms: C_14  and  C_15 
REMARK   14  A    between atoms: C_15  and  C_16 
REMARK   15  A    between atoms: C_15  and  O_39 
REMARK   16  A    between atoms: C_16  and  C_17 
REMARK   17  A    between atoms: C_17  and  C_18 
REMARK   18  A    between atoms: C_18  and  C_19 
REMARK   19  A    between atoms: C_19  and  C_20 
REMARK   20  A    between atoms: C_20  and  C_21 
REMARK   21  A    between atoms: C_21  and  C_22 
REMARK   22  A    between atoms: C_22  and  C_23 
REMARK   23  A    between atoms: C_23  and  C_24 
REMARK   24  A    between atoms: C_24  and  N_25 
ROOT
HETATM    1  C   UNK N   1      28.802  18.215   5.723  0.00  0.00     0.000 C 
ENDROOT
BRANCH   1   2
HETATM    2  C   UNK N   1      27.574  17.449   6.200  0.00  0.00     0.002 C 
BRANCH   2   3
HETATM    3  C   UNK N   1      27.782  16.865   7.590  0.00  0.00     0.033 C 
BRANCH   3   4
HETATM    4  C   UNK N   1      28.361  17.917   8.519  0.00  0.00     0.135 C 
BRANCH   4   5
HETATM    5  C   UNK N   1      29.500  17.346   9.357  0.00  0.00     0.145 C 
BRANCH   5   6
HETATM    6  N   UNK N   1      30.672  18.210   9.298  0.00  0.00    -0.419 N 
HETATM    7  H   UNK N   1      30.862  19.006   9.907  0.00  0.00     0.153 HD
BRANCH   6   8
HETATM    8  C   UNK N   1      31.528  17.739   8.214  0.00  0.00     0.113 C 
BRANCH   8   9
HETATM    9  C   UNK N   1      32.968  18.191   8.420  0.00  0.00     0.019 C 
BRANCH   9  10
HETATM   10  C   UNK N   1      33.905  17.464   7.469  0.00  0.00     0.002 C 
BRANCH  10  11
HETATM   11  C   UNK N   1      34.758  16.475   8.246  0.00  0.00     0.000 C 
BRANCH  11  12
HETATM   12  C   UNK N   1      34.161  15.083   8.172  0.00  0.00     0.000 C 
BRANCH  12  13
HETATM   13  C   UNK N   1      33.783  14.773   6.742  0.00  0.00     0.000 C 
BRANCH  13  14
HETATM   14  C   UNK N   1      32.392  14.185   6.706  0.00  0.00     0.000 C 
BRANCH  14  15
HETATM   15  C   UNK N   1      31.542  15.033   5.792  0.00  0.00     0.000 C 
BRANCH  15  16
HETATM   16  C   UNK N   1      32.415  15.799   4.826  0.00  0.00     0.000 C 
BRANCH  16  17
HETATM   17  C   UNK N   1      31.572  16.885   4.197  0.00  0.00    -0.000 C 
BRANCH  17  18
HETATM   18  C   UNK N   1      31.159  16.485   2.800  0.00  0.00    -0.005 C 
HETATM   19  C   UNK N   1      29.657  16.300   2.771  0.00  0.00     0.005 C 
ENDBRANCH  17  18
ENDBRANCH  16  17
ENDBRANCH  15  16
ENDBRANCH  14  15
ENDBRANCH  13  14
ENDBRANCH  12  13
ENDBRANCH  11  12
ENDBRANCH  10  11
ENDBRANCH   9  10
ENDBRANCH   8   9
ENDBRANCH   6   8
ENDBRANCH   5   6
ENDBRANCH   4   5
BRANCH   4  20
HETATM   20  O   UNK N   1      27.356  18.436   9.333  0.00  0.00    -0.394 OA
HETATM   21  H   UNK N   1      27.561  18.745  10.230  0.00  0.00     0.210 HD
ENDBRANCH   4  20
ENDBRANCH   3   4
ENDBRANCH   2   3
ENDBRANCH   1   2
BRANCH   1  22
HETATM   22  C   UNK N   1      28.394  19.387   4.848  0.00  0.00     0.000 C 
BRANCH  22  23
HETATM   23  C   UNK N   1      27.508  20.340   5.630  0.00  0.00     0.000 C 
BRANCH  23  24
HETATM   24  C   UNK N   1      26.404  20.897   4.745  0.00  0.00     0.000 C 
BRANCH  24  25
HETATM   25  C   UNK N   1      26.479  20.309   3.340  0.00  0.00     0.002 C 
BRANCH  25  26
HETATM   26  C   UNK N   1      25.191  19.596   2.958  0.00  0.00     0.020 C 
BRANCH  26  27
HETATM   27  C   UNK N   1      24.340  19.357   4.197  0.00  0.00     0.137 C 
BRANCH  27  28
HETATM   28  N   UNK N   1      23.100  18.647   3.867  0.00  0.00    -0.264 N 
HETATM   29  C   UNK N   1      23.064  17.265   3.961  0.00  0.00     0.282 A 
HETATM   30  O   UNK N   1      24.040  16.634   4.333  0.00  0.00    -0.265 OA
HETATM   31  C   UNK N   1      21.887  16.615   3.612  0.00  0.00     0.149 A 
HETATM   32  C   UNK N   1      20.812  17.315   3.197  0.00  0.00     0.145 A 
HETATM   33  N   UNK N   1      21.578  15.311   3.600  0.00  0.00    -0.340 N 
HETATM   34  N   UNK N   1      19.794  16.480   2.910  0.00  0.00    -0.336 N 
HETATM   35  N   UNK N   1      20.814  18.667   3.096  0.00  0.00    -0.287 N 
HETATM   36  C   UNK N   1      20.295  15.240   3.168  0.00  0.00     0.184 A 
ATOM     37  HN  UNK N   1      18.861  16.720   2.577  1.00  0.00     0.168 HD
HETATM   38  C   UNK N   1      21.975  19.349   3.433  0.00  0.00     0.332 A 
HETATM   39  C   UNK N   1      19.627  19.376   2.638  0.00  0.00     0.163 C 
HETATM   40  O   UNK N   1      22.011  20.566   3.339  0.00  0.00    -0.246 OA
HETATM   41  C   UNK N   1      22.421  14.184   3.961  0.00  0.00     0.157 C 
ENDBRANCH  27  28
ENDBRANCH  26  27
ENDBRANCH  25  26
ENDBRANCH  24  25
ENDBRANCH  23  24
ENDBRANCH  22  23
ENDBRANCH   1  22
TORSDOF 24
ENDMDL
MODEL 6
REMARK VINA RESULT:      -5.7      6.466     10.360
REMARK  24 active torsions:
REMARK  status: ('A' for Active; 'I' for Inactive)
REMARK    1  A    between atoms: C_2  and  C_3 
REMARK    2  A    between atoms: C_3  and  C_4 
REMARK    3  A    between atoms: C_4  and  C_5 
REMARK    4  A    between atoms: C_5  and  C_6 
REMARK    5  A    between atoms: C_6  and  C_7 
REMARK    6  A    between atoms: C_7  and  C_8 
REMARK    7  A    between atoms: C_8  and  C_9 
REMARK    8  A    between atoms: C_9  and  C_10 
REMARK    9  A    between atoms: C_10  and  C_11 
REMARK   10  A    between atoms: C_11  and  C_12 
REMARK   11  A    between atoms: C_12  and  N_13 
REMARK   12  A    between atoms: N_13  and  C_14 
REMARK   13  A    between atoms: C_14  and  C_15 
REMARK   14  A    between atoms: C_15  and  C_16 
REMARK   15  A    between atoms: C_15  and  O_39 
REMARK   16  A    between atoms: C_16  and  C_17 
REMARK   17  A    between atoms: C_17  and  C_18 
REMARK   18  A    between atoms: C_18  and  C_19 
REMARK   19  A    between atoms: C_19  and  C_20 
REMARK   20  A    between atoms: C_20  and  C_21 
REMARK   21  A    between atoms: C_21  and  C_22 
REMARK   22  A    between atoms: C_22  and  C_23 
REMARK   23  A    between atoms: C_23  and  C_24 
REMARK   24  A    between atoms: C_24  and  N_25 
ROOT
HETATM    1  C   UNK N   1      34.669  17.583   8.030  0.00  0.00     0.000 C 
ENDROOT
BRANCH   1   2
HETATM    2  C   UNK N   1      34.523  16.743   9.292  0.00  0.00     0.002 C 
BRANCH   2   3
HETATM    3  C   UNK N   1      35.301  15.438   9.193  0.00  0.00     0.033 C 
BRANCH   3   4
HETATM    4  C   UNK N   1      35.947  15.111  10.526  0.00  0.00     0.135 C 
BRANCH   4   5
HETATM    5  C   UNK N   1      34.903  14.981  11.629  0.00  0.00     0.145 C 
BRANCH   5   6
HETATM    6  N   UNK N   1      34.522  13.588  11.822  0.00  0.00    -0.419 N 
HETATM    7  H   UNK N   1      33.608  13.182  11.619  0.00  0.00     0.153 HD
BRANCH   6   8
HETATM    8  C   UNK N   1      35.675  12.873  12.358  0.00  0.00     0.113 C 
BRANCH   8   9
HETATM    9  C   UNK N   1      35.505  12.599  13.846  0.00  0.00     0.019 C 
BRANCH   9  10
HETATM   10  C   UNK N   1      36.659  13.189  14.640  0.00  0.00     0.002 C 
BRANCH  10  11
HETATM   11  C   UNK N   1      36.149  13.713  15.972  0.00  0.00     0.000 C 
BRANCH  11  12
HETATM   12  C   UNK N   1      34.941  12.920  16.431  0.00  0.00     0.000 C 
BRANCH  12  13
HETATM   13  C   UNK N   1      35.238  12.280  17.768  0.00  0.00     0.000 C 
BRANCH  13  14
HETATM   14  C   UNK N   1      35.163  10.777  17.634  0.00  0.00     0.000 C 
BRANCH  14  15
HETATM   15  C   UNK N   1      36.522  10.270  17.218  0.00  0.00     0.000 C 
BRANCH  15  16
HETATM   16  C   UNK N   1      36.421   9.512  15.916  0.00  0.00     0.000 C 
BRANCH  16  17
HETATM   17  C   UNK N   1      37.819   9.108  15.503  0.00  0.00    -0.000 C 
BRANCH  17  18
HETATM   18  C   UNK N   1      38.402  10.129  14.555  0.00  0.00    -0.005 C 
HETATM   19  C   UNK N   1      37.935   9.811  13.150  0.00  0.00     0.005 C 
ENDBRANCH  17  18
ENDBRANCH  16  17
ENDBRANCH  15  16
ENDBRANCH  14  15
ENDBRANCH  13  14
ENDBRANCH  12  13
ENDBRANCH  11  12
ENDBRANCH  10  11
ENDBRANCH   9  10
ENDBRANCH   8   9
ENDBRANCH   6   8
ENDBRANCH   5   6
ENDBRANCH   4   5
BRANCH   4  20
HETATM   20  O   UNK N   1      36.891  16.086  10.847  0.00  0.00    -0.394 OA
HETATM   21  H   UNK N   1      36.617  17.006  10.991  0.00  0.00     0.210 HD
ENDBRANCH   4  20
ENDBRANCH   3   4
ENDBRANCH   2   3
ENDBRANCH   1   2
BRANCH   1  22
HETATM   22  C   UNK N   1      33.378  17.577   7.231  0.00  0.00     0.000 C 
BRANCH  22  23
HETATM   23  C   UNK N   1      33.683  17.641   5.745  0.00  0.00     0.000 C 
BRANCH  23  24
HETATM   24  C   UNK N   1      32.731  16.750   4.962  0.00  0.00     0.000 C 
BRANCH  24  25
HETATM   25  C   UNK N   1      31.638  17.573   4.290  0.00  0.00     0.002 C 
BRANCH  25  26
HETATM   26  C   UNK N   1      30.592  16.688   3.628  0.00  0.00     0.020 C 
BRANCH  26  27
HETATM   27  C   UNK N   1      29.652  16.118   4.679  0.00  0.00     0.137 C 
BRANCH  27  28
HETATM   28  N   UNK N   1      28.971  17.183   5.423  0.00  0.00    -0.264 N 
HETATM   29  C   UNK N   1      28.099  18.027   4.756  0.00  0.00     0.282 A 
HETATM   30  O   UNK N   1      27.872  17.884   3.565  0.00  0.00    -0.265 OA
HETATM   31  C   UNK N   1      27.492  19.047   5.479  0.00  0.00     0.149 A 
HETATM   32  C   UNK N   1      27.748  19.204   6.794  0.00  0.00     0.145 A 
HETATM   33  N   UNK N   1      26.627  19.996   5.096  0.00  0.00    -0.340 N 
HETATM   34  N   UNK N   1      27.057  20.253   7.281  0.00  0.00    -0.336 N 
HETATM   35  N   UNK N   1      28.595  18.394   7.475  0.00  0.00    -0.287 N 
HETATM   36  C   UNK N   1      26.369  20.729   6.207  0.00  0.00     0.184 A 
ATOM     37  HN  UNK N   1      27.049  20.609   8.236  1.00  0.00     0.168 HD
HETATM   38  C   UNK N   1      29.222  17.367   6.785  0.00  0.00     0.332 A 
HETATM   39  C   UNK N   1      28.841  18.609   8.896  0.00  0.00     0.163 C 
HETATM   40  O   UNK N   1      29.999  16.630   7.370  0.00  0.00    -0.246 OA
HETATM   41  C   UNK N   1      26.070  20.224   3.774  0.00  0.00     0.157 C 
ENDBRANCH  27  28
ENDBRANCH  26  27
ENDBRANCH  25  26
ENDBRANCH  24  25
ENDBRANCH  23  24
ENDBRANCH  22  23
ENDBRANCH   1  22
TORSDOF 24
ENDMDL
MODEL 7
REMARK VINA RESULT:      -5.7      4.107      6.271
REMARK  24 active torsions:
REMARK  status: ('A' for Active; 'I' for Inactive)
REMARK    1  A    between atoms: C_2  and  C_3 
REMARK    2  A    between atoms: C_3  and  C_4 
REMARK    3  A    between atoms: C_4  and  C_5 
REMARK    4  A    between atoms: C_5  and  C_6 
REMARK    5  A    between atoms: C_6  and  C_7 
REMARK    6  A    between atoms: C_7  and  C_8 
REMARK    7  A    between atoms: C_8  and  C_9 
REMARK    8  A    between atoms: C_9  and  C_10 
REMARK    9  A    between atoms: C_10  and  C_11 
REMARK   10  A    between atoms: C_11  and  C_12 
REMARK   11  A    between atoms: C_12  and  N_13 
REMARK   12  A    between atoms: N_13  and  C_14 
REMARK   13  A    between atoms: C_14  and  C_15 
REMARK   14  A    between atoms: C_15  and  C_16 
REMARK   15  A    between atoms: C_15  and  O_39 
REMARK   16  A    between atoms: C_16  and  C_17 
REMARK   17  A    between atoms: C_17  and  C_18 
REMARK   18  A    between atoms: C_18  and  C_19 
REMARK   19  A    between atoms: C_19  and  C_20 
REMARK   20  A    between atoms: C_20  and  C_21 
REMARK   21  A    between atoms: C_21  and  C_22 
REMARK   22  A    between atoms: C_22  and  C_23 
REMARK   23  A    between atoms: C_23  and  C_24 
REMARK   24  A    between atoms: C_24  and  N_25 
ROOT
HETATM    1  C   UNK N   1      24.466  12.347   9.124  0.00  0.00     0.000 C 
ENDROOT
BRANCH   1   2
HETATM    2  C   UNK N   1      25.078  13.605   8.520  0.00  0.00     0.002 C 
BRANCH   2   3
HETATM    3  C   UNK N   1      24.539  13.877   7.122  0.00  0.00     0.033 C 
BRANCH   3   4
HETATM    4  C   UNK N   1      25.063  15.207   6.610  0.00  0.00     0.135 C 
BRANCH   4   5
HETATM    5  C   UNK N   1      25.623  15.072   5.198  0.00  0.00     0.145 C 
BRANCH   5   6
HETATM    6  N   UNK N   1      26.290  13.788   5.024  0.00  0.00    -0.419 N 
HETATM    7  H   UNK N   1      25.831  12.883   4.919  0.00  0.00     0.153 HD
BRANCH   6   8
HETATM    8  C   UNK N   1      27.730  14.021   5.026  0.00  0.00     0.113 C 
BRANCH   8   9
HETATM    9  C   UNK N   1      28.189  14.613   3.700  0.00  0.00     0.019 C 
BRANCH   9  10
HETATM   10  C   UNK N   1      29.254  15.675   3.920  0.00  0.00     0.002 C 
BRANCH  10  11
HETATM   11  C   UNK N   1      28.649  17.055   3.724  0.00  0.00     0.000 C 
BRANCH  11  12
HETATM   12  C   UNK N   1      29.158  18.017   4.779  0.00  0.00     0.000 C 
BRANCH  12  13
HETATM   13  C   UNK N   1      28.490  17.713   6.101  0.00  0.00     0.000 C 
BRANCH  13  14
HETATM   14  C   UNK N   1      27.609  18.874   6.497  0.00  0.00     0.000 C 
BRANCH  14  15
HETATM   15  C   UNK N   1      28.070  20.098   5.746  0.00  0.00     0.000 C 
BRANCH  15  16
HETATM   16  C   UNK N   1      26.881  20.901   5.273  0.00  0.00     0.000 C 
BRANCH  16  17
HETATM   17  C   UNK N   1      26.605  20.520   3.836  0.00  0.00    -0.000 C 
BRANCH  17  18
HETATM   18  C   UNK N   1      25.254  19.855   3.720  0.00  0.00    -0.005 C 
HETATM   19  C   UNK N   1      25.457  18.396   3.371  0.00  0.00     0.005 C 
ENDBRANCH  17  18
ENDBRANCH  16  17
ENDBRANCH  15  16
ENDBRANCH  14  15
ENDBRANCH  13  14
ENDBRANCH  12  13
ENDBRANCH  11  12
ENDBRANCH  10  11
ENDBRANCH   9  10
ENDBRANCH   8   9
ENDBRANCH   6   8
ENDBRANCH   5   6
ENDBRANCH   4   5
BRANCH   4  20
HETATM   20  O   UNK N   1      26.029  15.705   7.484  0.00  0.00    -0.394 OA
HETATM   21  H   UNK N   1      26.854  15.217   7.632  0.00  0.00     0.210 HD
ENDBRANCH   4  20
ENDBRANCH   3   4
ENDBRANCH   2   3
ENDBRANCH   1   2
BRANCH   1  22
HETATM   22  C   UNK N   1      24.680  12.316  10.627  0.00  0.00     0.000 C 
BRANCH  22  23
HETATM   23  C   UNK N   1      23.356  12.113  11.339  0.00  0.00     0.000 C 
BRANCH  23  24
HETATM   24  C   UNK N   1      22.242  11.850  10.337  0.00  0.00     0.000 C 
BRANCH  24  25
HETATM   25  C   UNK N   1      21.116  12.866  10.490  0.00  0.00     0.002 C 
BRANCH  25  26
HETATM   26  C   UNK N   1      21.427  14.166   9.765  0.00  0.00     0.020 C 
BRANCH  26  27
HETATM   27  C   UNK N   1      20.318  14.488   8.774  0.00  0.00     0.137 C 
BRANCH  27  28
HETATM   28  N   UNK N   1      20.835  14.584   7.404  0.00  0.00    -0.264 N 
HETATM   29  C   UNK N   1      21.201  15.822   6.902  0.00  0.00     0.282 A 
HETATM   30  O   UNK N   1      21.121  16.828   7.589  0.00  0.00    -0.265 OA
HETATM   31  C   UNK N   1      21.657  15.889   5.592  0.00  0.00     0.149 A 
HETATM   32  C   UNK N   1      21.742  14.775   4.835  0.00  0.00     0.145 A 
HETATM   33  N   UNK N   1      22.065  16.934   4.859  0.00  0.00    -0.340 N 
HETATM   34  N   UNK N   1      22.202  15.081   3.606  0.00  0.00    -0.336 N 
HETATM   35  N   UNK N   1      21.393  13.550   5.297  0.00  0.00    -0.287 N 
HETATM   36  C   UNK N   1      22.394  16.428   3.646  0.00  0.00     0.184 A 
ATOM     37  HN  UNK N   1      22.369  14.448   2.825  1.00  0.00     0.168 HD
HETATM   38  C   UNK N   1      20.929  13.446   6.601  0.00  0.00     0.332 A 
HETATM   39  C   UNK N   1      21.498  12.378   4.437  0.00  0.00     0.163 C 
HETATM   40  O   UNK N   1      20.595  12.357   7.040  0.00  0.00    -0.246 OA
HETATM   41  C   UNK N   1      22.142  18.331   5.252  0.00  0.00     0.157 C 
ENDBRANCH  27  28
ENDBRANCH  26  27
ENDBRANCH  25  26
ENDBRANCH  24  25
ENDBRANCH  23  24
ENDBRANCH  22  23
ENDBRANCH   1  22
TORSDOF 24
ENDMDL
MODEL 8
REMARK VINA RESULT:      -5.6      3.613      6.403
REMARK  24 active torsions:
REMARK  status: ('A' for Active; 'I' for Inactive)
REMARK    1  A    between atoms: C_2  and  C_3 
REMARK    2  A    between atoms: C_3  and  C_4 
REMARK    3  A    between atoms: C_4  and  C_5 
REMARK    4  A    between atoms: C_5  and  C_6 
REMARK    5  A    between atoms: C_6  and  C_7 
REMARK    6  A    between atoms: C_7  and  C_8 
REMARK    7  A    between atoms: C_8  and  C_9 
REMARK    8  A    between atoms: C_9  and  C_10 
REMARK    9  A    between atoms: C_10  and  C_11 
REMARK   10  A    between atoms: C_11  and  C_12 
REMARK   11  A    between atoms: C_12  and  N_13 
REMARK   12  A    between atoms: N_13  and  C_14 
REMARK   13  A    between atoms: C_14  and  C_15 
REMARK   14  A    between atoms: C_15  and  C_16 
REMARK   15  A    between atoms: C_15  and  O_39 
REMARK   16  A    between atoms: C_16  and  C_17 
REMARK   17  A    between atoms: C_17  and  C_18 
REMARK   18  A    between atoms: C_18  and  C_19 
REMARK   19  A    between atoms: C_19  and  C_20 
REMARK   20  A    between atoms: C_20  and  C_21 
REMARK   21  A    between atoms: C_21  and  C_22 
REMARK   22  A    between atoms: C_22  and  C_23 
REMARK   23  A    between atoms: C_23  and  C_24 
REMARK   24  A    between atoms: C_24  and  N_25 
ROOT
HETATM    1  C   UNK N   1      23.575  12.851   9.536  0.00  0.00     0.000 C 
ENDROOT
BRANCH   1   2
HETATM    2  C   UNK N   1      24.069  12.095   8.308  0.00  0.00     0.002 C 
BRANCH   2   3
HETATM    3  C   UNK N   1      23.107  12.235   7.137  0.00  0.00     0.033 C 
BRANCH   3   4
HETATM    4  C   UNK N   1      23.840  12.768   5.920  0.00  0.00     0.135 C 
BRANCH   4   5
HETATM    5  C   UNK N   1      24.315  14.200   6.146  0.00  0.00     0.145 C 
BRANCH   5   6
HETATM    6  N   UNK N   1      24.133  15.003   4.943  0.00  0.00    -0.419 N 
HETATM    7  H   UNK N   1      23.239  15.286   4.541  0.00  0.00     0.153 HD
BRANCH   6   8
HETATM    8  C   UNK N   1      25.452  15.333   4.414  0.00  0.00     0.113 C 
BRANCH   8   9
HETATM    9  C   UNK N   1      26.024  16.566   5.101  0.00  0.00     0.019 C 
BRANCH   9  10
HETATM   10  C   UNK N   1      25.660  17.829   4.337  0.00  0.00     0.002 C 
BRANCH  10  11
HETATM   11  C   UNK N   1      26.921  18.486   3.803  0.00  0.00     0.000 C 
BRANCH  11  12
HETATM   12  C   UNK N   1      26.866  19.988   4.002  0.00  0.00     0.000 C 
BRANCH  12  13
HETATM   13  C   UNK N   1      25.924  20.310   5.140  0.00  0.00     0.000 C 
BRANCH  13  14
HETATM   14  C   UNK N   1      26.664  21.093   6.199  0.00  0.00     0.000 C 
BRANCH  14  15
HETATM   15  C   UNK N   1      27.985  20.411   6.458  0.00  0.00     0.000 C 
BRANCH  15  16
HETATM   16  C   UNK N   1      27.831  19.367   7.539  0.00  0.00     0.000 C 
BRANCH  16  17
HETATM   17  C   UNK N   1      28.635  18.153   7.131  0.00  0.00    -0.000 C 
BRANCH  17  18
HETATM   18  C   UNK N   1      29.762  17.917   8.109  0.00  0.00    -0.005 C 
HETATM   19  C   UNK N   1      29.412  18.580   9.424  0.00  0.00     0.005 C 
ENDBRANCH  17  18
ENDBRANCH  16  17
ENDBRANCH  15  16
ENDBRANCH  14  15
ENDBRANCH  13  14
ENDBRANCH  12  13
ENDBRANCH  11  12
ENDBRANCH  10  11
ENDBRANCH   9  10
ENDBRANCH   8   9
ENDBRANCH   6   8
ENDBRANCH   5   6
ENDBRANCH   4   5
BRANCH   4  20
HETATM   20  O   UNK N   1      23.017  12.689   4.797  0.00  0.00    -0.394 OA
HETATM   21  H   UNK N   1      22.052  12.735   4.892  0.00  0.00     0.210 HD
ENDBRANCH   4  20
ENDBRANCH   3   4
ENDBRANCH   2   3
ENDBRANCH   1   2
BRANCH   1  22
HETATM   22  C   UNK N   1      22.578  12.012  10.315  0.00  0.00     0.000 C 
BRANCH  22  23
HETATM   23  C   UNK N   1      21.254  12.746  10.430  0.00  0.00     0.000 C 
BRANCH  23  24
HETATM   24  C   UNK N   1      21.346  14.122   9.789  0.00  0.00     0.000 C 
BRANCH  24  25
HETATM   25  C   UNK N   1      19.964  14.648   9.418  0.00  0.00     0.002 C 
BRANCH  25  26
HETATM   26  C   UNK N   1      20.048  15.898   8.556  0.00  0.00     0.020 C 
BRANCH  26  27
HETATM   27  C   UNK N   1      21.311  15.862   7.708  0.00  0.00     0.137 C 
BRANCH  27  28
HETATM   28  N   UNK N   1      21.036  16.250   6.320  0.00  0.00    -0.264 N 
HETATM   29  C   UNK N   1      20.649  15.282   5.408  0.00  0.00     0.282 A 
HETATM   30  O   UNK N   1      20.513  14.117   5.747  0.00  0.00    -0.265 OA
HETATM   31  C   UNK N   1      20.425  15.671   4.094  0.00  0.00     0.149 A 
HETATM   32  C   UNK N   1      20.579  16.959   3.722  0.00  0.00     0.145 A 
HETATM   33  N   UNK N   1      20.057  14.959   3.020  0.00  0.00    -0.340 N 
HETATM   34  N   UNK N   1      20.315  17.099   2.409  0.00  0.00    -0.336 N 
HETATM   35  N   UNK N   1      20.955  17.930   4.590  0.00  0.00    -0.287 N 
HETATM   36  C   UNK N   1      19.994  15.843   1.995  0.00  0.00     0.184 A 
ATOM     37  HN  UNK N   1      20.348  17.952   1.851  1.00  0.00     0.168 HD
HETATM   38  C   UNK N   1      21.191  17.576   5.911  0.00  0.00     0.332 A 
HETATM   39  C   UNK N   1      21.112  19.306   4.137  0.00  0.00     0.163 C 
HETATM   40  O   UNK N   1      21.543  18.427   6.713  0.00  0.00    -0.246 OA
HETATM   41  C   UNK N   1      19.781  13.534   2.938  0.00  0.00     0.157 C 
ENDBRANCH  27  28
ENDBRANCH  26  27
ENDBRANCH  25  26
ENDBRANCH  24  25
ENDBRANCH  23  24
ENDBRANCH  22  23
ENDBRANCH   1  22
TORSDOF 24
ENDMDL
MODEL 9
REMARK VINA RESULT:      -5.6      3.952      6.450
REMARK  24 active torsions:
REMARK  status: ('A' for Active; 'I' for Inactive)
REMARK    1  A    between atoms: C_2  and  C_3 
REMARK    2  A    between atoms: C_3  and  C_4 
REMARK    3  A    between atoms: C_4  and  C_5 
REMARK    4  A    between atoms: C_5  and  C_6 
REMARK    5  A    between atoms: C_6  and  C_7 
REMARK    6  A    between atoms: C_7  and  C_8 
REMARK    7  A    between atoms: C_8  and  C_9 
REMARK    8  A    between atoms: C_9  and  C_10 
REMARK    9  A    between atoms: C_10  and  C_11 
REMARK   10  A    between atoms: C_11  and  C_12 
REMARK   11  A    between atoms: C_12  and  N_13 
REMARK   12  A    between atoms: N_13  and  C_14 
REMARK   13  A    between atoms: C_14  and  C_15 
REMARK   14  A    between atoms: C_15  and  C_16 
REMARK   15  A    between atoms: C_15  and  O_39 
REMARK   16  A    between atoms: C_16  and  C_17 
REMARK   17  A    between atoms: C_17  and  C_18 
REMARK   18  A    between atoms: C_18  and  C_19 
REMARK   19  A    between atoms: C_19  and  C_20 
REMARK   20  A    between atoms: C_20  and  C_21 
REMARK   21  A    between atoms: C_21  and  C_22 
REMARK   22  A    between atoms: C_22  and  C_23 
REMARK   23  A    between atoms: C_23  and  C_24 
REMARK   24  A    between atoms: C_24  and  N_25 
ROOT
HETATM    1  C   UNK N   1      23.354  12.178  11.061  0.00  0.00     0.000 C 
ENDROOT
BRANCH   1   2
HETATM    2  C   UNK N   1      24.558  12.095  10.131  0.00  0.00     0.002 C 
BRANCH   2   3
HETATM    3  C   UNK N   1      24.829  13.424   9.441  0.00  0.00     0.033 C 
BRANCH   3   4
HETATM    4  C   UNK N   1      24.943  13.221   7.941  0.00  0.00     0.135 C 
BRANCH   4   5
HETATM    5  C   UNK N   1      25.586  14.428   7.268  0.00  0.00     0.145 C 
BRANCH   5   6
HETATM    6  N   UNK N   1      24.574  15.384   6.837  0.00  0.00    -0.419 N 
HETATM    7  H   UNK N   1      23.755  15.673   7.373  0.00  0.00     0.153 HD
BRANCH   6   8
HETATM    8  C   UNK N   1      24.934  15.855   5.504  0.00  0.00     0.113 C 
BRANCH   8   9
HETATM    9  C   UNK N   1      23.890  15.438   4.477  0.00  0.00     0.019 C 
BRANCH   9  10
HETATM   10  C   UNK N   1      24.526  14.635   3.354  0.00  0.00     0.002 C 
BRANCH  10  11
HETATM   11  C   UNK N   1      26.038  14.675   3.489  0.00  0.00     0.000 C 
BRANCH  11  12
HETATM   12  C   UNK N   1      26.643  15.589   2.441  0.00  0.00     0.000 C 
BRANCH  12  13
HETATM   13  C   UNK N   1      28.142  15.647   2.630  0.00  0.00     0.000 C 
BRANCH  13  14
HETATM   14  C   UNK N   1      28.471  16.612   3.744  0.00  0.00     0.000 C 
BRANCH  14  15
HETATM   15  C   UNK N   1      27.524  17.783   3.654  0.00  0.00     0.000 C 
BRANCH  15  16
HETATM   16  C   UNK N   1      27.760  18.736   4.802  0.00  0.00     0.000 C 
BRANCH  16  17
HETATM   17  C   UNK N   1      27.485  20.138   4.306  0.00  0.00    -0.000 C 
BRANCH  17  18
HETATM   18  C   UNK N   1      27.074  21.029   5.455  0.00  0.00    -0.005 C 
HETATM   19  C   UNK N   1      27.362  20.311   6.756  0.00  0.00     0.005 C 
ENDBRANCH  17  18
ENDBRANCH  16  17
ENDBRANCH  15  16
ENDBRANCH  14  15
ENDBRANCH  13  14
ENDBRANCH  12  13
ENDBRANCH  11  12
ENDBRANCH  10  11
ENDBRANCH   9  10
ENDBRANCH   8   9
ENDBRANCH   6   8
ENDBRANCH   5   6
ENDBRANCH   4   5
BRANCH   4  20
HETATM   20  O   UNK N   1      23.683  12.962   7.401  0.00  0.00    -0.394 OA
HETATM   21  H   UNK N   1      23.523  12.148   6.898  0.00  0.00     0.210 HD
ENDBRANCH   4  20
ENDBRANCH   3   4
ENDBRANCH   2   3
ENDBRANCH   1   2
BRANCH   1  22
HETATM   22  C   UNK N   1      22.081  11.803  10.324  0.00  0.00     0.000 C 
BRANCH  22  23
HETATM   23  C   UNK N   1      21.000  12.835  10.588  0.00  0.00     0.000 C 
BRANCH  23  24
HETATM   24  C   UNK N   1      21.090  13.976   9.586  0.00  0.00     0.000 C 
BRANCH  24  25
HETATM   25  C   UNK N   1      19.787  14.765   9.537  0.00  0.00     0.002 C 
BRANCH  25  26
HETATM   26  C   UNK N   1      19.913  16.008   8.668  0.00  0.00     0.020 C 
BRANCH  26  27
HETATM   27  C   UNK N   1      21.111  15.874   7.739  0.00  0.00     0.137 C 
BRANCH  27  28
HETATM   28  N   UNK N   1      20.715  15.994   6.332  0.00  0.00    -0.264 N 
HETATM   29  C   UNK N   1      20.855  17.213   5.689  0.00  0.00     0.282 A 
HETATM   30  O   UNK N   1      21.322  18.180   6.269  0.00  0.00    -0.265 OA
HETATM   31  C   UNK N   1      20.443  17.307   4.366  0.00  0.00     0.149 A 
HETATM   32  C   UNK N   1      19.923  16.237   3.730  0.00  0.00     0.145 A 
HETATM   33  N   UNK N   1      20.454  18.344   3.517  0.00  0.00    -0.340 N 
HETATM   34  N   UNK N   1      19.591  16.563   2.465  0.00  0.00    -0.336 N 
HETATM   35  N   UNK N   1      19.775  15.031   4.330  0.00  0.00    -0.287 N 
HETATM   36  C   UNK N   1      19.930  17.877   2.358  0.00  0.00     0.184 A 
ATOM     37  HN  UNK N   1      19.181  15.962   1.751  1.00  0.00     0.168 HD
HETATM   38  C   UNK N   1      20.173  14.901   5.653  0.00  0.00     0.332 A 
HETATM   39  C   UNK N   1      19.204  13.907   3.599  0.00  0.00     0.163 C 
HETATM   40  O   UNK N   1      20.039  13.830   6.224  0.00  0.00    -0.246 OA
HETATM   41  C   UNK N   1      20.918  19.700   3.760  0.00  0.00     0.157 C 
ENDBRANCH  27  28
ENDBRANCH  26  27
ENDBRANCH  25  26
ENDBRANCH  24  25
ENDBRANCH  23  24
ENDBRANCH  22  23
ENDBRANCH   1  22
TORSDOF 24
ENDMDL
