MODEL 1
REMARK VINA RESULT:      -7.4      0.000      0.000
REMARK  3 active torsions:
REMARK  status: ('A' for Active; 'I' for Inactive)
REMARK    1  A    between atoms: C_12  and  C_7 
REMARK    2  A    between atoms: C_15  and  C_7 
REMARK    3  A    between atoms: N_21  and  C_15 
ROOT
HETATM    1  C   UNK N   1      33.441  15.723   3.547  0.00  0.00     0.001 A 
HETATM    2  C   UNK N   1      28.071  18.372   8.733  0.00  0.00     0.001 A 
HETATM    3  C   UNK N   1      34.185  15.517   4.702  0.00  0.00     0.001 A 
HETATM    4  C   UNK N   1      29.183  18.537   9.549  0.00  0.00     0.001 A 
HETATM    5  C   UNK N   1      32.233  16.410   3.620  0.00  0.00     0.008 A 
HETATM    6  C   UNK N   1      28.220  17.813   7.467  0.00  0.00     0.008 A 
HETATM    7  C   UNK N   1      33.720  16.000   5.926  0.00  0.00     0.013 A 
HETATM    8  C   UNK N   1      30.442  18.153   9.093  0.00  0.00     0.013 A 
HETATM    9  C   UNK N   1      32.979  17.367   8.412  0.00  0.00    -0.011 C 
HETATM   10  C   UNK N   1      30.469  17.614   4.815  0.00  0.00     0.044 C 
HETATM   11  C   UNK N   1      29.517  16.819   5.650  0.00  0.00     0.044 C 
HETATM   12  C   UNK N   1      31.754  16.891   4.844  0.00  0.00    -0.047 A 
HETATM   13  C   UNK N   1      29.478  17.418   6.997  0.00  0.00    -0.047 A 
HETATM   14  C   UNK N   1      32.498  16.693   6.042  0.00  0.00    -0.019 A 
HETATM   15  C   UNK N   1      30.637  17.593   7.807  0.00  0.00    -0.019 A 
HETATM   16  C   UNK N   1      32.062  17.206   7.418  0.00  0.00    -0.018 C 
ENDROOT
BRANCH   9  17
HETATM   17  C   UNK N   1      34.451  17.105   8.379  0.00  0.00     0.064 C 
BRANCH  17  18
HETATM   18  C   UNK N   1      34.964  17.104   9.822  0.00  0.00     0.314 C 
BRANCH  18  19
HETATM   19  N   UNK N   1      35.610  15.873  10.239  0.00  0.00     0.005 N 
HETATM   20  C   UNK N   1      35.687  14.980   9.110  0.00  0.00     0.355 C 
HETATM   21  C   UNK N   1      34.793  15.240  11.242  0.00  0.00     0.355 C 
HETATM   22  O   UNK N   1      36.700  16.101  10.668  0.00  0.00    -0.065 OA
ENDBRANCH  18  19
ENDBRANCH  17  18
ENDBRANCH   9  17
TORSDOF 3
ENDMDL
MODEL 2
REMARK VINA RESULT:      -7.2      0.679      4.251
REMARK  3 active torsions:
REMARK  status: ('A' for Active; 'I' for Inactive)
REMARK    1  A    between atoms: C_12  and  C_7 
REMARK    2  A    between atoms: C_15  and  C_7 
REMARK    3  A    between atoms: N_21  and  C_15 
ROOT
HETATM    1  C   UNK N   1      28.365  18.218   9.243  0.00  0.00     0.001 A 
HETATM    2  C   UNK N   1      32.433  16.408   2.692  0.00  0.00     0.001 A 
HETATM    3  C   UNK N   1      29.639  18.419   9.758  0.00  0.00     0.001 A 
HETATM    4  C   UNK N   1      33.465  16.184   3.594  0.00  0.00     0.001 A 
HETATM    5  C   UNK N   1      28.214  17.657   7.979  0.00  0.00     0.008 A 
HETATM    6  C   UNK N   1      31.205  16.875   3.151  0.00  0.00     0.008 A 
HETATM    7  C   UNK N   1      30.758  18.056   9.009  0.00  0.00     0.013 A 
HETATM    8  C   UNK N   1      33.264  16.417   4.953  0.00  0.00     0.013 A 
HETATM    9  C   UNK N   1      33.089  16.913   7.644  0.00  0.00    -0.011 C 
HETATM   10  C   UNK N   1      29.065  16.701   5.894  0.00  0.00     0.044 C 
HETATM   11  C   UNK N   1      29.656  17.631   4.884  0.00  0.00     0.044 C 
HETATM   12  C   UNK N   1      29.330  17.297   7.216  0.00  0.00    -0.047 A 
HETATM   13  C   UNK N   1      30.989  17.118   4.512  0.00  0.00    -0.047 A 
HETATM   14  C   UNK N   1      30.647  17.491   7.722  0.00  0.00    -0.019 A 
HETATM   15  C   UNK N   1      32.025  16.880   5.460  0.00  0.00    -0.019 A 
HETATM   16  C   UNK N   1      31.923  17.105   6.967  0.00  0.00    -0.018 C 
ENDROOT
BRANCH   9  17
HETATM   17  C   UNK N   1      33.349  17.030   9.112  0.00  0.00     0.064 C 
BRANCH  17  18
HETATM   18  C   UNK N   1      34.864  17.121   9.319  0.00  0.00     0.314 C 
BRANCH  18  19
HETATM   19  N   UNK N   1      35.441  16.032  10.086  0.00  0.00     0.005 N 
HETATM   20  C   UNK N   1      35.859  14.993   9.180  0.00  0.00     0.355 C 
HETATM   21  C   UNK N   1      34.423  15.483  10.944  0.00  0.00     0.355 C 
HETATM   22  O   UNK N   1      36.366  16.424  10.730  0.00  0.00    -0.065 OA
ENDBRANCH  18  19
ENDBRANCH  17  18
ENDBRANCH   9  17
TORSDOF 3
ENDMDL
MODEL 3
REMARK VINA RESULT:      -7.2      4.706      9.201
REMARK  3 active torsions:
REMARK  status: ('A' for Active; 'I' for Inactive)
REMARK    1  A    between atoms: C_12  and  C_7 
REMARK    2  A    between atoms: C_15  and  C_7 
REMARK    3  A    between atoms: N_21  and  C_15 
ROOT
HETATM    1  C   UNK N   1      34.389   9.986  11.149  0.00  0.00     0.001 A 
HETATM    2  C   UNK N   1      35.293  12.904  18.457  0.00  0.00     0.001 A 
HETATM    3  C   UNK N   1      35.302  10.985  10.835  0.00  0.00     0.001 A 
HETATM    4  C   UNK N   1      35.721  14.035  17.774  0.00  0.00     0.001 A 
HETATM    5  C   UNK N   1      33.842   9.931  12.426  0.00  0.00     0.008 A 
HETATM    6  C   UNK N   1      34.951  11.757  17.747  0.00  0.00     0.008 A 
HETATM    7  C   UNK N   1      35.662  11.927  11.799  0.00  0.00     0.013 A 
HETATM    8  C   UNK N   1      35.795  14.020  16.383  0.00  0.00     0.013 A 
HETATM    9  C   UNK N   1      36.103  14.149  13.661  0.00  0.00    -0.011 C 
HETATM   10  C   UNK N   1      33.562  10.726  14.724  0.00  0.00     0.044 C 
HETATM   11  C   UNK N   1      34.659  10.452  15.701  0.00  0.00     0.044 C 
HETATM   12  C   UNK N   1      34.204  10.865  13.403  0.00  0.00    -0.047 A 
HETATM   13  C   UNK N   1      35.025  11.726  16.349  0.00  0.00    -0.047 A 
HETATM   14  C   UNK N   1      35.136  11.899  13.106  0.00  0.00    -0.019 A 
HETATM   15  C   UNK N   1      35.444  12.878  15.624  0.00  0.00    -0.019 A 
HETATM   16  C   UNK N   1      35.571  12.977  14.106  0.00  0.00    -0.018 C 
ENDROOT
BRANCH   9  17
HETATM   17  C   UNK N   1      36.355  14.589  12.254  0.00  0.00     0.064 C 
BRANCH  17  18
HETATM   18  C   UNK N   1      35.218  15.529  11.841  0.00  0.00     0.314 C 
BRANCH  18  19
HETATM   19  N   UNK N   1      35.290  16.009  10.473  0.00  0.00     0.005 N 
HETATM   20  C   UNK N   1      33.993  15.873   9.861  0.00  0.00     0.355 C 
HETATM   21  C   UNK N   1      36.209  15.176   9.740  0.00  0.00     0.355 C 
HETATM   22  O   UNK N   1      35.647  17.148  10.451  0.00  0.00    -0.065 OA
ENDBRANCH  18  19
ENDBRANCH  17  18
ENDBRANCH   9  17
TORSDOF 3
ENDMDL
MODEL 4
REMARK VINA RESULT:      -7.2      5.800     10.471
REMARK  3 active torsions:
REMARK  status: ('A' for Active; 'I' for Inactive)
REMARK    1  A    between atoms: C_12  and  C_7 
REMARK    2  A    between atoms: C_15  and  C_7 
REMARK    3  A    between atoms: N_21  and  C_15 
ROOT
HETATM    1  C   UNK N   1      36.332   8.384  12.823  0.00  0.00     0.001 A 
HETATM    2  C   UNK N   1      35.193  12.928  19.210  0.00  0.00     0.001 A 
HETATM    3  C   UNK N   1      36.819   9.572  12.291  0.00  0.00     0.001 A 
HETATM    4  C   UNK N   1      35.227  13.958  18.280  0.00  0.00     0.001 A 
HETATM    5  C   UNK N   1      35.706   8.392  14.065  0.00  0.00     0.008 A 
HETATM    6  C   UNK N   1      35.403  11.616  18.797  0.00  0.00     0.008 A 
HETATM    7  C   UNK N   1      36.675  10.763  13.002  0.00  0.00     0.013 A 
HETATM    8  C   UNK N   1      35.461  13.673  16.937  0.00  0.00     0.013 A 
HETATM    9  C   UNK N   1      36.007  13.321  14.272  0.00  0.00    -0.011 C 
HETATM   10  C   UNK N   1      34.878   9.485  16.092  0.00  0.00     0.044 C 
HETATM   11  C   UNK N   1      35.875   9.894  17.127  0.00  0.00     0.044 C 
HETATM   12  C   UNK N   1      35.564   9.580  14.790  0.00  0.00    -0.047 A 
HETATM   13  C   UNK N   1      35.645  11.315  17.451  0.00  0.00    -0.047 A 
HETATM   14  C   UNK N   1      36.054  10.811  14.267  0.00  0.00    -0.019 A 
HETATM   15  C   UNK N   1      35.668  12.351  16.474  0.00  0.00    -0.019 A 
HETATM   16  C   UNK N   1      35.921  12.160  14.980  0.00  0.00    -0.018 C 
ENDROOT
BRANCH   9  17
HETATM   17  C   UNK N   1      36.231  13.509  12.806  0.00  0.00     0.064 C 
BRANCH  17  18
HETATM   18  C   UNK N   1      36.097  15.002  12.494  0.00  0.00     0.314 C 
BRANCH  18  19
HETATM   19  N   UNK N   1      35.986  15.323  11.082  0.00  0.00     0.005 N 
HETATM   20  C   UNK N   1      34.595  15.308  10.707  0.00  0.00     0.355 C 
HETATM   21  C   UNK N   1      36.655  14.297  10.323  0.00  0.00     0.355 C 
HETATM   22  O   UNK N   1      36.469  16.392  10.860  0.00  0.00    -0.065 OA
ENDBRANCH  18  19
ENDBRANCH  17  18
ENDBRANCH   9  17
TORSDOF 3
ENDMDL
MODEL 5
REMARK VINA RESULT:      -7.0      7.769     12.824
REMARK  3 active torsions:
REMARK  status: ('A' for Active; 'I' for Inactive)
REMARK    1  A    between atoms: C_12  and  C_7 
REMARK    2  A    between atoms: C_15  and  C_7 
REMARK    3  A    between atoms: N_21  and  C_15 
ROOT
HETATM    1  C   UNK N   1      35.072  13.823  19.002  0.00  0.00     0.001 A 
HETATM    2  C   UNK N   1      35.173   6.067  17.397  0.00  0.00     0.001 A 
HETATM    3  C   UNK N   1      35.264  13.923  17.629  0.00  0.00     0.001 A 
HETATM    4  C   UNK N   1      35.851   6.480  16.257  0.00  0.00     0.001 A 
HETATM    5  C   UNK N   1      35.139  12.577  19.617  0.00  0.00     0.008 A 
HETATM    6  C   UNK N   1      34.700   7.014  18.300  0.00  0.00     0.008 A 
HETATM    7  C   UNK N   1      35.525  12.778  16.878  0.00  0.00     0.013 A 
HETATM    8  C   UNK N   1      36.064   7.837  16.029  0.00  0.00     0.013 A 
HETATM    9  C   UNK N   1      36.491  10.462  15.359  0.00  0.00    -0.011 C 
HETATM   10  C   UNK N   1      35.452  10.150  19.616  0.00  0.00     0.044 C 
HETATM   11  C   UNK N   1      34.341   9.299  19.093  0.00  0.00     0.044 C 
HETATM   12  C   UNK N   1      35.391  11.421  18.870  0.00  0.00    -0.047 A 
HETATM   13  C   UNK N   1      34.903   8.382  18.082  0.00  0.00    -0.047 A 
HETATM   14  C   UNK N   1      35.593  11.497  17.463  0.00  0.00    -0.019 A 
HETATM   15  C   UNK N   1      35.611   8.831  16.930  0.00  0.00    -0.019 A 
HETATM   16  C   UNK N   1      35.898  10.287  16.573  0.00  0.00    -0.018 C 
ENDROOT
BRANCH   9  17
HETATM   17  C   UNK N   1      36.923  11.734  14.703  0.00  0.00     0.064 C 
BRANCH  17  18
HETATM   18  C   UNK N   1      36.268  11.799  13.320  0.00  0.00     0.314 C 
BRANCH  18  19
HETATM   19  N   UNK N   1      35.502  13.006  13.063  0.00  0.00     0.005 N 
HETATM   20  C   UNK N   1      35.307  13.142  11.642  0.00  0.00     0.355 C 
HETATM   21  C   UNK N   1      36.267  14.141  13.512  0.00  0.00     0.355 C 
HETATM   22  O   UNK N   1      34.451  12.958  13.628  0.00  0.00    -0.065 OA
ENDBRANCH  18  19
ENDBRANCH  17  18
ENDBRANCH   9  17
TORSDOF 3
ENDMDL
MODEL 6
REMARK VINA RESULT:      -6.9     13.559     15.717
REMARK  3 active torsions:
REMARK  status: ('A' for Active; 'I' for Inactive)
REMARK    1  A    between atoms: C_12  and  C_7 
REMARK    2  A    between atoms: C_15  and  C_7 
REMARK    3  A    between atoms: N_21  and  C_15 
ROOT
HETATM    1  C   UNK N   1      25.907  23.072  -7.838  0.00  0.00     0.001 A 
HETATM    2  C   UNK N   1      26.644  29.583  -3.388  0.00  0.00     0.001 A 
HETATM    3  C   UNK N   1      26.808  22.559  -6.912  0.00  0.00     0.001 A 
HETATM    4  C   UNK N   1      27.839  28.986  -3.006  0.00  0.00     0.001 A 
HETATM    5  C   UNK N   1      25.600  24.428  -7.821  0.00  0.00     0.008 A 
HETATM    6  C   UNK N   1      25.787  28.916  -4.257  0.00  0.00     0.008 A 
HETATM    7  C   UNK N   1      27.400  23.406  -5.975  0.00  0.00     0.013 A 
HETATM    8  C   UNK N   1      28.178  27.730  -3.502  0.00  0.00     0.013 A 
HETATM    9  C   UNK N   1      28.968  25.225  -4.292  0.00  0.00    -0.011 C 
HETATM   10  C   UNK N   1      25.799  26.707  -6.950  0.00  0.00     0.044 C 
HETATM   11  C   UNK N   1      25.120  27.027  -5.658  0.00  0.00     0.044 C 
HETATM   12  C   UNK N   1      26.183  25.284  -6.879  0.00  0.00    -0.047 A 
HETATM   13  C   UNK N   1      26.111  27.651  -4.761  0.00  0.00    -0.047 A 
HETATM   14  C   UNK N   1      27.109  24.784  -5.921  0.00  0.00    -0.019 A 
HETATM   15  C   UNK N   1      27.339  27.024  -4.398  0.00  0.00    -0.019 A 
HETATM   16  C   UNK N   1      27.811  25.652  -4.872  0.00  0.00    -0.018 C 
ENDROOT
BRANCH   9  17
HETATM   17  C   UNK N   1      29.718  23.953  -4.525  0.00  0.00     0.064 C 
BRANCH  17  18
HETATM   18  C   UNK N   1      30.106  23.375  -3.161  0.00  0.00     0.314 C 
BRANCH  18  19
HETATM   19  N   UNK N   1      31.108  22.325  -3.207  0.00  0.00     0.005 N 
HETATM   20  C   UNK N   1      32.161  22.723  -4.106  0.00  0.00     0.355 C 
HETATM   21  C   UNK N   1      30.502  21.133  -3.743  0.00  0.00     0.355 C 
HETATM   22  O   UNK N   1      31.544  22.120  -2.115  0.00  0.00    -0.065 OA
ENDBRANCH  18  19
ENDBRANCH  17  18
ENDBRANCH   9  17
TORSDOF 3
ENDMDL
MODEL 7
REMARK VINA RESULT:      -6.6      4.103      7.439
REMARK  3 active torsions:
REMARK  status: ('A' for Active; 'I' for Inactive)
REMARK    1  A    between atoms: C_12  and  C_7 
REMARK    2  A    between atoms: C_15  and  C_7 
REMARK    3  A    between atoms: N_21  and  C_15 
ROOT
HETATM    1  C   UNK N   1      29.099  18.134   9.784  0.00  0.00     0.001 A 
HETATM    2  C   UNK N   1      33.812  15.695   3.904  0.00  0.00     0.001 A 
HETATM    3  C   UNK N   1      28.113  17.958   8.821  0.00  0.00     0.001 A 
HETATM    4  C   UNK N   1      32.757  16.117   3.105  0.00  0.00     0.001 A 
HETATM    5  C   UNK N   1      30.439  18.031   9.424  0.00  0.00     0.008 A 
HETATM    6  C   UNK N   1      33.700  15.764   5.289  0.00  0.00     0.008 A 
HETATM    7  C   UNK N   1      28.471  17.682   7.501  0.00  0.00     0.013 A 
HETATM    8  C   UNK N   1      31.597  16.616   3.692  0.00  0.00     0.013 A 
HETATM    9  C   UNK N   1      29.202  17.530   4.665  0.00  0.00    -0.011 C 
HETATM   10  C   UNK N   1      32.253  17.666   7.823  0.00  0.00     0.044 C 
HETATM   11  C   UNK N   1      32.519  16.267   7.369  0.00  0.00     0.044 C 
HETATM   12  C   UNK N   1      30.808  17.746   8.105  0.00  0.00    -0.047 A 
HETATM   13  C   UNK N   1      32.539  16.259   5.894  0.00  0.00    -0.047 A 
HETATM   14  C   UNK N   1      29.817  17.562   7.099  0.00  0.00    -0.019 A 
HETATM   15  C   UNK N   1      31.449  16.714   5.097  0.00  0.00    -0.019 A 
HETATM   16  C   UNK N   1      30.130  17.272   5.628  0.00  0.00    -0.018 C 
ENDROOT
BRANCH   9  17
HETATM   17  C   UNK N   1      27.824  18.089   4.820  0.00  0.00     0.064 C 
BRANCH  17  18
HETATM   18  C   UNK N   1      27.871  19.574   4.449  0.00  0.00     0.314 C 
BRANCH  18  19
HETATM   19  N   UNK N   1      26.622  20.291   4.639  0.00  0.00     0.005 N 
HETATM   20  C   UNK N   1      26.763  21.186   5.759  0.00  0.00     0.355 C 
HETATM   21  C   UNK N   1      25.591  19.339   4.967  0.00  0.00     0.355 C 
HETATM   22  O   UNK N   1      26.336  20.896   3.652  0.00  0.00    -0.065 OA
ENDBRANCH  18  19
ENDBRANCH  17  18
ENDBRANCH   9  17
TORSDOF 3
ENDMDL
MODEL 8
REMARK VINA RESULT:      -6.6      7.618     10.870
REMARK  3 active torsions:
REMARK  status: ('A' for Active; 'I' for Inactive)
REMARK    1  A    between atoms: C_12  and  C_7 
REMARK    2  A    between atoms: C_15  and  C_7 
REMARK    3  A    between atoms: N_21  and  C_15 
ROOT
HETATM    1  C   UNK N   1      35.812  14.335  12.471  0.00  0.00     0.001 A 
HETATM    2  C   UNK N   1      35.141  11.316  19.763  0.00  0.00     0.001 A 
HETATM    3  C   UNK N   1      35.155  13.162  12.123  0.00  0.00     0.001 A 
HETATM    4  C   UNK N   1      35.007  10.117  19.076  0.00  0.00     0.001 A 
HETATM    5  C   UNK N   1      36.260  14.512  13.776  0.00  0.00     0.008 A 
HETATM    6  C   UNK N   1      35.269  12.507  19.056  0.00  0.00     0.008 A 
HETATM    7  C   UNK N   1      34.951  12.168  13.081  0.00  0.00     0.013 A 
HETATM    8  C   UNK N   1      35.010  10.111  17.683  0.00  0.00     0.013 A 
HETATM    9  C   UNK N   1      34.893   9.910  14.950  0.00  0.00    -0.011 C 
HETATM   10  C   UNK N   1      36.573  13.803  16.098  0.00  0.00     0.044 C 
HETATM   11  C   UNK N   1      35.389  13.838  17.009  0.00  0.00     0.044 C 
HETATM   12  C   UNK N   1      36.052  13.525  14.746  0.00  0.00    -0.047 A 
HETATM   13  C   UNK N   1      35.269  12.517  17.656  0.00  0.00    -0.047 A 
HETATM   14  C   UNK N   1      35.383  12.313  14.415  0.00  0.00    -0.019 A 
HETATM   15  C   UNK N   1      35.150  11.299  16.927  0.00  0.00    -0.019 A 
HETATM   16  C   UNK N   1      35.135  11.171  15.405  0.00  0.00    -0.018 C 
ENDROOT
BRANCH   9  17
HETATM   17  C   UNK N   1      34.823   9.421  13.539  0.00  0.00     0.064 C 
BRANCH  17  18
HETATM   18  C   UNK N   1      36.032   8.514  13.291  0.00  0.00     0.314 C 
BRANCH  18  19
HETATM   19  N   UNK N   1      36.930   8.969  12.244  0.00  0.00     0.005 N 
HETATM   20  C   UNK N   1      36.154   9.314  11.080  0.00  0.00     0.355 C 
HETATM   21  C   UNK N   1      37.803   7.881  11.882  0.00  0.00     0.355 C 
HETATM   22  O   UNK N   1      37.563   9.908  12.620  0.00  0.00    -0.065 OA
ENDBRANCH  18  19
ENDBRANCH  17  18
ENDBRANCH   9  17
TORSDOF 3
ENDMDL
MODEL 9
REMARK VINA RESULT:      -6.5     11.023     13.714
REMARK  3 active torsions:
REMARK  status: ('A' for Active; 'I' for Inactive)
REMARK    1  A    between atoms: C_12  and  C_7 
REMARK    2  A    between atoms: C_15  and  C_7 
REMARK    3  A    between atoms: N_21  and  C_15 
ROOT
HETATM    1  C   UNK N   1      35.227  13.932  18.550  0.00  0.00     0.001 A 
HETATM    2  C   UNK N   1      36.777   7.821  13.755  0.00  0.00     0.001 A 
HETATM    3  C   UNK N   1      35.163  12.927  19.508  0.00  0.00     0.001 A 
HETATM    4  C   UNK N   1      36.154   7.089  14.758  0.00  0.00     0.001 A 
HETATM    5  C   UNK N   1      35.336  13.594  17.205  0.00  0.00     0.008 A 
HETATM    6  C   UNK N   1      36.964   9.190  13.914  0.00  0.00     0.008 A 
HETATM    7  C   UNK N   1      35.205  11.589  19.117  0.00  0.00     0.013 A 
HETATM    8  C   UNK N   1      35.710   7.730  15.912  0.00  0.00     0.013 A 
HETATM    9  C   UNK N   1      34.861   8.796  18.292  0.00  0.00    -0.011 C 
HETATM   10  C   UNK N   1      35.494  12.001  15.355  0.00  0.00     0.044 C 
HETATM   11  C   UNK N   1      36.796  11.297  15.143  0.00  0.00     0.044 C 
HETATM   12  C   UNK N   1      35.388  12.255  16.803  0.00  0.00    -0.047 A 
HETATM   13  C   UNK N   1      36.527   9.848  15.070  0.00  0.00    -0.047 A 
HETATM   14  C   UNK N   1      35.323  11.207  17.765  0.00  0.00    -0.019 A 
HETATM   15  C   UNK N   1      35.870   9.124  16.106  0.00  0.00    -0.019 A 
HETATM   16  C   UNK N   1      35.348   9.716  17.413  0.00  0.00    -0.018 C 
ENDROOT
BRANCH   9  17
HETATM   17  C   UNK N   1      34.265   9.018  19.645  0.00  0.00     0.064 C 
BRANCH  17  18
HETATM   18  C   UNK N   1      32.803   8.565  19.598  0.00  0.00     0.314 C 
BRANCH  18  19
HETATM   19  N   UNK N   1      32.154   8.463  20.893  0.00  0.00     0.005 N 
HETATM   20  C   UNK N   1      32.333   9.703  21.604  0.00  0.00     0.355 C 
HETATM   21  C   UNK N   1      32.802   7.425  21.653  0.00  0.00     0.355 C 
HETATM   22  O   UNK N   1      30.993   8.222  20.757  0.00  0.00    -0.065 OA
ENDBRANCH  18  19
ENDBRANCH  17  18
ENDBRANCH   9  17
TORSDOF 3
ENDMDL
