REMARK  7 active torsions:
REMARK  status: ('A' for Active; 'I' for Inactive)
REMARK    1  A    between atoms: C_3  and  C_23 
REMARK    2  A    between atoms: N_9  and  C_13 
REMARK    3  A    between atoms: C_13  and  C_14 
REMARK    4  A    between atoms: C_14  and  C_15 
REMARK    5  A    between atoms: C_14  and  O_22 
REMARK    6  A    between atoms: C_15  and  N_16 
REMARK    7  A    between atoms: C_23  and  C_24 
ROOT
HETATM    1  C   UNK N   1      -0.486  -6.841   0.394  0.00  0.00     0.052 C 
HETATM    2  C   UNK N   1      -1.491  -5.736   0.361  0.00  0.00    -0.018 A 
HETATM    3  C   UNK N   1      -1.246  -4.405   0.544  0.00  0.00     0.040 A 
HETATM    4  N   UNK N   1      -2.372  -3.674   0.411  0.00  0.00    -0.358 N 
HETATM    5  C   UNK N   1      -3.349  -4.575   0.182  0.00  0.00     0.026 A 
HETATM    6  C   UNK N   1      -2.824  -5.848   0.145  0.00  0.00     0.062 A 
HETATM    7  C   UNK N   1      -3.546  -7.100  -0.043  0.00  0.00     0.256 C 
HETATM    8  O   UNK N   1      -3.005  -8.030  -0.619  0.00  0.00    -0.267 OA
HETATM    9  N   UNK N   1      -4.762  -7.258   0.545  0.00  0.00    -0.345 N 
HETATM   10  C   UNK N   1      -5.321  -6.245   1.421  0.00  0.00     0.126 C 
HETATM   11  C   UNK N   1      -5.817  -4.996   0.686  0.00  0.00     0.026 C 
HETATM   12  C   UNK N   1      -4.770  -4.222  -0.120  0.00  0.00     0.059 C 
HETATM   13  H   UNK N   1      -2.462  -2.695   0.468  0.00  0.00     0.166 HD
ENDROOT
BRANCH   3  14
HETATM   14  C   UNK N   1       0.105  -3.926   0.666  0.00  0.00     0.048 C 
BRANCH  14  15
HETATM   15  C   UNK N   1       0.547  -2.703   0.456  0.00  0.00     0.047 A 
HETATM   16  C   UNK N   1       1.909  -2.530   0.057  0.00  0.00     0.009 A 
HETATM   17  C   UNK N   1       2.933  -3.469   0.027  0.00  0.00     0.057 A 
HETATM   18  C   UNK N   1       2.006  -1.307  -0.553  0.00  0.00     0.046 A 
HETATM   19  C   UNK N   1       4.108  -3.132  -0.642  0.00  0.00     0.117 A 
HETATM   20  C   UNK N   1       4.222  -1.877  -1.285  0.00  0.00     0.044 A 
HETATM   21  F   UNK N   1       5.114  -4.036  -0.711  0.00  0.00    -0.206 F 
HETATM   22  C   UNK N   1       3.159  -0.947  -1.245  0.00  0.00     0.033 A 
HETATM   23  N   UNK N   1       0.776  -0.609  -0.500  0.00  0.00    -0.322 N 
HETATM   24  C   UNK N   1      -0.112  -1.439   0.094  0.00  0.00     0.257 A 
HETATM   25  H   UNK N   1       0.601   0.301  -0.830  0.00  0.00     0.169 HD
HETATM   26  O   UNK N   1      -1.289  -1.158   0.257  0.00  0.00    -0.267 OA
ENDBRANCH  14  15
ENDBRANCH   3  14
BRANCH   9  27
HETATM   27  C   UNK N   1      -5.393  -8.549   0.525  0.00  0.00     0.159 C 
BRANCH  27  28
HETATM   28  C   UNK N   1      -6.056  -8.834  -0.812  0.00  0.00     0.164 C 
BRANCH  28  29
HETATM   29  C   UNK N   1      -7.232  -9.784  -0.589  0.00  0.00     0.305 C 
BRANCH  29  30
HETATM   30  N   UNK N   1      -8.019  -9.521   0.634  0.00  0.00     0.095 N 
HETATM   31  C   UNK N   1      -9.292 -10.236   0.513  0.00  0.00     0.298 C 
HETATM   32  C   UNK N   1     -10.214  -9.514  -0.481  0.00  0.00     0.198 C 
HETATM   33  O   UNK N   1     -10.468  -8.209  -0.025  0.00  0.00    -0.388 OA
HETATM   34  C   UNK N   1      -9.254  -7.510  -0.113  0.00  0.00     0.198 C 
HETATM   35  C   UNK N   1      -8.271  -8.091   0.903  0.00  0.00     0.298 C 
ENDBRANCH  29  30
ENDBRANCH  28  29
BRANCH  28  36
HETATM   36  O   UNK N   1      -6.514  -7.660  -1.417  0.00  0.00    -0.392 OA
HETATM   37  H   UNK N   1      -5.968  -6.977  -1.837  0.00  0.00     0.210 HD
ENDBRANCH  28  36
ENDBRANCH  27  28
ENDBRANCH   9  27
TORSDOF 7
