REMARK  4 active torsions:
REMARK  status: ('A' for Active; 'I' for Inactive)
REMARK    1  A    between atoms: C_2  and  C_3 
REMARK    2  A    between atoms: C_2  and  N_10 
REMARK    3  A    between atoms: C_15  and  C_16 
REMARK    4  A    between atoms: C_16  and  O_18 
ROOT
HETATM    1  N   UNK N   1       1.813  -1.881  -0.038  0.00  0.00    -0.328 N 
HETATM    2  C   UNK N   1       2.908  -2.669   0.034  0.00  0.00     0.184 A 
HETATM    3  N   UNK N   1       2.581  -3.975   0.103  0.00  0.00    -0.360 N 
ATOM      4  HN  UNK N   1       3.224  -4.765   0.165  1.00  0.00     0.166 HD
HETATM    5  C   UNK N   1       1.238  -4.026   0.074  0.00  0.00     0.125 A 
HETATM    6  C   UNK N   1       0.761  -2.736  -0.018  0.00  0.00     0.127 A 
ENDROOT
BRANCH   1   7
HETATM    7  C   UNK N   1       1.784  -0.397  -0.106  0.00  0.00     0.120 C 
HETATM    8  C   UNK N   1       1.004   0.148   1.085  0.00  0.00     0.038 C 
BRANCH   7   9
HETATM    9  C   UNK N   1       3.131   0.332  -0.137  0.00  0.00    -0.035 A 
HETATM   10  C   UNK N   1       3.137   1.735  -0.244  0.00  0.00     0.010 A 
HETATM   11  C   UNK N   1       4.339   2.451  -0.205  0.00  0.00     0.019 A 
HETATM   12  C   UNK N   1       5.553   1.774  -0.064  0.00  0.00     0.006 A 
HETATM   13  C   UNK N   1       5.565   0.383   0.025  0.00  0.00     0.019 A 
HETATM   14  I   UNK N   1       7.362   2.844   0.042  0.00  0.00    -0.045 I 
HETATM   15  C   UNK N   1       4.365  -0.329  -0.010  0.00  0.00     0.010 A 
ENDBRANCH   7   9
ENDBRANCH   1   7
BRANCH   6  16
HETATM   16  C   UNK N   1      -0.686  -2.409  -0.072  0.00  0.00     0.311 C 
HETATM   17  O   UNK N   1      -1.503  -3.315   0.024  0.00  0.00    -0.258 OA
BRANCH  16  18
HETATM   18  O   UNK N   1      -1.106  -1.130  -0.227  0.00  0.00    -0.321 OA
HETATM   19  C   UNK N   1      -2.441  -0.794  -0.241  0.00  0.00     0.213 C 
ENDBRANCH  16  18
ENDBRANCH   6  16
TORSDOF 4
