MODEL 1
REMARK VINA RESULT:      -7.0      0.000      0.000
REMARK  5 active torsions:
REMARK  status: ('A' for Active; 'I' for Inactive)
REMARK    1  A    between atoms: C_10  and  C_8 
REMARK    2  A    between atoms: C_8  and  O_21 
REMARK    3  A    between atoms: S_25  and  C_9 
REMARK    4  A    between atoms: C_15  and  C_12 
REMARK    5  A    between atoms: S_25  and  C_13 
ROOT
HETATM    1  C   UNK N   1      21.339  13.188   5.944  0.00  0.00     0.017 C 
HETATM    2  C   UNK N   1      21.969  14.341   6.708  0.00  0.00     0.043 C 
HETATM    3  C   UNK N   1      21.532  12.783   9.003  0.00  0.00     0.120 A 
HETATM    4  C   UNK N   1      22.255  13.992   8.208  0.00  0.00     0.095 A 
HETATM    5  C   UNK N   1      20.669  15.757   8.038  0.00  0.00     0.108 C 
HETATM    6  C   UNK N   1      21.021  15.534   6.772  0.00  0.00     0.013 C 
HETATM    7  C   UNK N   1      20.733  13.912   9.561  0.00  0.00     0.213 A 
HETATM    8  N   UNK N   1      21.334  14.855   8.874  0.00  0.00    -0.206 NA
HETATM    9  O   UNK N   1      19.544  13.909   9.843  0.00  0.00    -0.279 OA
ENDROOT
BRANCH   6  10
HETATM   10  S   UNK N   1      20.352  16.473   5.359  0.00  0.00    -0.123 SA
BRANCH  10  11
HETATM   11  C   UNK N   1      21.422  17.955   5.171  0.00  0.00     0.092 C 
HETATM   12  C   UNK N   1      21.026  18.915   4.024  0.00  0.00     0.167 C 
HETATM   13  N   UNK N   1      22.316  19.442   3.672  0.00  0.00    -0.283 N 
HETATM   14  C   UNK N   1      22.777  20.366   2.819  0.00  0.00     0.201 A 
HETATM   15  N   UNK N   1      23.316  18.907   4.292  0.00  0.00    -0.283 N 
HETATM   16  N   UNK N   1      24.133  20.411   2.908  0.00  0.00    -0.346 N 
HETATM   17  C   UNK N   1      24.446  19.475   3.844  0.00  0.00     0.201 A 
ATOM     18  HN  UNK N   1      24.772  21.013   2.389  1.00  0.00     0.167 HD
HETATM   19  C   UNK N   1      22.970  17.883   5.247  0.00  0.00     0.167 C 
ENDBRANCH  10  11
ENDBRANCH   6  10
BRANCH   5  20
HETATM   20  C   UNK N   1      19.689  16.759   8.542  0.00  0.00     0.222 C 
HETATM   21  O   UNK N   1      20.089  17.794   9.051  0.00  0.00    -0.643 OA
HETATM   22  O   UNK N   1      18.362  16.542   8.456  0.00  0.00    -0.643 OA
ENDBRANCH   5  20
BRANCH   3  23
HETATM   23  C   UNK N   1      22.467  12.093   9.998  0.00  0.00     0.128 C 
HETATM   24  C   UNK N   1      23.669  11.509   9.279  0.00  0.00     0.040 C 
BRANCH  23  25
HETATM   25  O   UNK N   1      22.911  13.030  10.931  0.00  0.00    -0.395 OA
HETATM   26  H   UNK N   1      23.009  12.782  11.862  0.00  0.00     0.210 HD
ENDBRANCH  23  25
ENDBRANCH   3  23
TORSDOF 5
ENDMDL
MODEL 2
REMARK VINA RESULT:      -6.5     10.324     11.857
REMARK  5 active torsions:
REMARK  status: ('A' for Active; 'I' for Inactive)
REMARK    1  A    between atoms: C_10  and  C_8 
REMARK    2  A    between atoms: C_8  and  O_21 
REMARK    3  A    between atoms: S_25  and  C_9 
REMARK    4  A    between atoms: C_15  and  C_12 
REMARK    5  A    between atoms: S_25  and  C_13 
ROOT
HETATM    1  C   UNK N   1      31.753  15.211   9.994  0.00  0.00     0.017 C 
HETATM    2  C   UNK N   1      32.830  14.592   9.118  0.00  0.00     0.043 C 
HETATM    3  C   UNK N   1      34.641  16.105  10.640  0.00  0.00     0.120 A 
HETATM    4  C   UNK N   1      34.279  14.892   9.634  0.00  0.00     0.095 A 
HETATM    5  C   UNK N   1      33.929  15.854   7.486  0.00  0.00     0.108 C 
HETATM    6  C   UNK N   1      32.798  15.185   7.714  0.00  0.00     0.013 C 
HETATM    7  C   UNK N   1      35.110  16.734   9.373  0.00  0.00     0.213 A 
HETATM    8  N   UNK N   1      34.775  15.733   8.593  0.00  0.00    -0.206 NA
HETATM    9  O   UNK N   1      35.035  17.913   9.059  0.00  0.00    -0.279 OA
ENDROOT
BRANCH   6  10
HETATM   10  S   UNK N   1      31.412  15.118   6.532  0.00  0.00    -0.123 SA
BRANCH  10  11
HETATM   11  C   UNK N   1      30.666  16.798   6.514  0.00  0.00     0.092 C 
HETATM   12  C   UNK N   1      30.140  17.302   7.878  0.00  0.00     0.167 C 
HETATM   13  N   UNK N   1      29.061  18.145   7.443  0.00  0.00    -0.283 N 
HETATM   14  C   UNK N   1      28.184  18.967   8.033  0.00  0.00     0.201 A 
HETATM   15  N   UNK N   1      28.823  18.122   6.172  0.00  0.00    -0.283 N 
HETATM   16  N   UNK N   1      27.356  19.483   7.087  0.00  0.00    -0.346 N 
HETATM   17  C   UNK N   1      27.781  18.927   5.920  0.00  0.00     0.201 A 
ATOM     18  HN  UNK N   1      26.587  20.140   7.221  1.00  0.00     0.167 HD
HETATM   19  C   UNK N   1      29.693  17.268   5.401  0.00  0.00     0.167 C 
ENDBRANCH  10  11
ENDBRANCH   6  10
BRANCH   5  20
HETATM   20  C   UNK N   1      34.275  16.664   6.285  0.00  0.00     0.222 C 
HETATM   21  O   UNK N   1      34.053  17.864   6.279  0.00  0.00    -0.643 OA
HETATM   22  O   UNK N   1      34.822  16.094   5.194  0.00  0.00    -0.643 OA
ENDBRANCH   5  20
BRANCH   3  23
HETATM   23  C   UNK N   1      35.747  15.735  11.632  0.00  0.00     0.128 C 
HETATM   24  C   UNK N   1      35.675  14.260  11.980  0.00  0.00     0.040 C 
BRANCH  23  25
HETATM   25  O   UNK N   1      36.986  16.002  11.050  0.00  0.00    -0.395 OA
HETATM   26  H   UNK N   1      37.111  15.888  10.095  0.00  0.00     0.210 HD
ENDBRANCH  23  25
ENDBRANCH   3  23
TORSDOF 5
ENDMDL
MODEL 3
REMARK VINA RESULT:      -6.4      2.487      7.022
REMARK  5 active torsions:
REMARK  status: ('A' for Active; 'I' for Inactive)
REMARK    1  A    between atoms: C_10  and  C_8 
REMARK    2  A    between atoms: C_8  and  O_21 
REMARK    3  A    between atoms: S_25  and  C_9 
REMARK    4  A    between atoms: C_15  and  C_12 
REMARK    5  A    between atoms: S_25  and  C_13 
ROOT
HETATM    1  C   UNK N   1      23.902  15.411   6.128  0.00  0.00     0.017 C 
HETATM    2  C   UNK N   1      22.686  15.383   5.216  0.00  0.00     0.043 C 
HETATM    3  C   UNK N   1      22.840  18.187   5.276  0.00  0.00     0.120 A 
HETATM    4  C   UNK N   1      22.335  16.792   4.629  0.00  0.00     0.095 A 
HETATM    5  C   UNK N   1      20.572  15.987   6.008  0.00  0.00     0.108 C 
HETATM    6  C   UNK N   1      21.437  14.972   5.987  0.00  0.00     0.013 C 
HETATM    7  C   UNK N   1      21.442  18.206   5.794  0.00  0.00     0.213 A 
HETATM    8  N   UNK N   1      21.088  17.056   5.270  0.00  0.00    -0.206 NA
HETATM    9  O   UNK N   1      21.061  18.621   6.879  0.00  0.00    -0.279 OA
ENDROOT
BRANCH   6  10
HETATM   10  S   UNK N   1      21.162  13.395   6.859  0.00  0.00    -0.123 SA
BRANCH  10  11
HETATM   11  C   UNK N   1      21.927  13.583   8.520  0.00  0.00     0.092 C 
HETATM   12  C   UNK N   1      23.412  13.162   8.615  0.00  0.00     0.167 C 
HETATM   13  N   UNK N   1      23.468  12.719   9.981  0.00  0.00    -0.283 N 
HETATM   14  C   UNK N   1      24.421  12.277  10.810  0.00  0.00     0.201 A 
HETATM   15  N   UNK N   1      22.334  12.707  10.602  0.00  0.00    -0.283 N 
HETATM   16  N   UNK N   1      23.858  11.971  12.009  0.00  0.00    -0.346 N 
HETATM   17  C   UNK N   1      22.536  12.248  11.846  0.00  0.00     0.201 A 
ATOM     18  HN  UNK N   1      24.322  11.613  12.844  1.00  0.00     0.167 HD
HETATM   19  C   UNK N   1      21.204  13.157   9.826  0.00  0.00     0.167 C 
ENDBRANCH  10  11
ENDBRANCH   6  10
BRANCH   5  20
HETATM   20  C   UNK N   1      19.269  16.051   6.729  0.00  0.00     0.222 C 
HETATM   21  O   UNK N   1      18.227  16.061   6.095  0.00  0.00    -0.643 OA
HETATM   22  O   UNK N   1      19.219  16.109   8.074  0.00  0.00    -0.643 OA
ENDBRANCH   5  20
BRANCH   3  23
HETATM   23  C   UNK N   1      23.156  19.244   4.216  0.00  0.00     0.128 C 
HETATM   24  C   UNK N   1      24.520  18.989   3.602  0.00  0.00     0.040 C 
BRANCH  23  25
HETATM   25  O   UNK N   1      22.190  19.184   3.211  0.00  0.00    -0.395 OA
HETATM   26  H   UNK N   1      21.404  19.749   3.257  0.00  0.00     0.210 HD
ENDBRANCH  23  25
ENDBRANCH   3  23
TORSDOF 5
ENDMDL
MODEL 4
REMARK VINA RESULT:      -6.4      5.308      6.453
REMARK  5 active torsions:
REMARK  status: ('A' for Active; 'I' for Inactive)
REMARK    1  A    between atoms: C_10  and  C_8 
REMARK    2  A    between atoms: C_8  and  O_21 
REMARK    3  A    between atoms: S_25  and  C_9 
REMARK    4  A    between atoms: C_15  and  C_12 
REMARK    5  A    between atoms: S_25  and  C_13 
ROOT
HETATM    1  C   UNK N   1      22.562  14.998   3.128  0.00  0.00     0.017 C 
HETATM    2  C   UNK N   1      21.207  15.544   3.545  0.00  0.00     0.043 C 
HETATM    3  C   UNK N   1      20.391  14.936   0.928  0.00  0.00     0.120 A 
HETATM    4  C   UNK N   1      20.090  15.276   2.481  0.00  0.00     0.095 A 
HETATM    5  C   UNK N   1      20.447  17.610   2.762  0.00  0.00     0.108 C 
HETATM    6  C   UNK N   1      21.248  17.062   3.676  0.00  0.00     0.013 C 
HETATM    7  C   UNK N   1      20.013  16.368   0.762  0.00  0.00     0.213 A 
HETATM    8  N   UNK N   1      19.805  16.602   2.037  0.00  0.00    -0.206 NA
HETATM    9  O   UNK N   1      20.493  17.175  -0.022  0.00  0.00    -0.279 OA
ENDROOT
BRANCH   6  10
HETATM   10  S   UNK N   1      22.296  18.032   4.809  0.00  0.00    -0.123 SA
BRANCH  10  11
HETATM   11  C   UNK N   1      23.865  18.359   3.910  0.00  0.00     0.092 C 
HETATM   12  C   UNK N   1      25.078  17.517   4.370  0.00  0.00     0.167 C 
HETATM   13  N   UNK N   1      26.149  18.435   4.094  0.00  0.00    -0.283 N 
HETATM   14  C   UNK N   1      27.486  18.403   4.165  0.00  0.00     0.201 A 
HETATM   15  N   UNK N   1      25.778  19.608   3.696  0.00  0.00    -0.283 N 
HETATM   16  N   UNK N   1      27.977  19.615   3.794  0.00  0.00    -0.346 N 
HETATM   17  C   UNK N   1      26.874  20.359   3.507  0.00  0.00     0.201 A 
ATOM     18  HN  UNK N   1      28.954  19.903   3.742  1.00  0.00     0.167 HD
HETATM   19  C   UNK N   1      24.353  19.794   3.576  0.00  0.00     0.167 C 
ENDBRANCH  10  11
ENDBRANCH   6  10
BRANCH   5  20
HETATM   20  C   UNK N   1      20.261  19.061   2.474  0.00  0.00     0.222 C 
HETATM   21  O   UNK N   1      21.153  19.687   1.925  0.00  0.00    -0.643 OA
HETATM   22  O   UNK N   1      19.127  19.700   2.817  0.00  0.00    -0.643 OA
ENDBRANCH   5  20
BRANCH   3  23
HETATM   23  C   UNK N   1      19.398  13.929   0.344  0.00  0.00     0.128 C 
HETATM   24  C   UNK N   1      19.785  12.514   0.734  0.00  0.00     0.040 C 
BRANCH  23  25
HETATM   25  O   UNK N   1      18.126  14.203   0.845  0.00  0.00    -0.395 OA
HETATM   26  H   UNK N   1      17.530  13.476   1.084  0.00  0.00     0.210 HD
ENDBRANCH  23  25
ENDBRANCH   3  23
TORSDOF 5
ENDMDL
MODEL 5
REMARK VINA RESULT:      -6.2      2.580      2.959
REMARK  5 active torsions:
REMARK  status: ('A' for Active; 'I' for Inactive)
REMARK    1  A    between atoms: C_10  and  C_8 
REMARK    2  A    between atoms: C_8  and  O_21 
REMARK    3  A    between atoms: S_25  and  C_9 
REMARK    4  A    between atoms: C_15  and  C_12 
REMARK    5  A    between atoms: S_25  and  C_13 
ROOT
HETATM    1  C   UNK N   1      20.552  12.701   6.008  0.00  0.00     0.017 C 
HETATM    2  C   UNK N   1      21.314  13.936   6.457  0.00  0.00     0.043 C 
HETATM    3  C   UNK N   1      21.532  12.641   8.940  0.00  0.00     0.120 A 
HETATM    4  C   UNK N   1      21.985  13.759   7.861  0.00  0.00     0.095 A 
HETATM    5  C   UNK N   1      20.348  15.483   7.919  0.00  0.00     0.108 C 
HETATM    6  C   UNK N   1      20.373  15.122   6.636  0.00  0.00     0.013 C 
HETATM    7  C   UNK N   1      20.863  13.819   9.561  0.00  0.00     0.213 A 
HETATM    8  N   UNK N   1      21.235  14.684   8.646  0.00  0.00    -0.206 NA
HETATM    9  O   UNK N   1      19.785  13.840  10.138  0.00  0.00    -0.279 OA
ENDROOT
BRANCH   6  10
HETATM   10  S   UNK N   1      19.333  15.893   5.352  0.00  0.00    -0.123 SA
BRANCH  10  11
HETATM   11  C   UNK N   1      20.348  15.933   3.820  0.00  0.00     0.092 C 
HETATM   12  C   UNK N   1      19.878  14.986   2.690  0.00  0.00     0.167 C 
HETATM   13  N   UNK N   1      21.135  14.690   2.061  0.00  0.00    -0.283 N 
HETATM   14  C   UNK N   1      21.534  13.998   0.987  0.00  0.00     0.201 A 
HETATM   15  N   UNK N   1      22.176  15.173   2.659  0.00  0.00    -0.283 N 
HETATM   16  N   UNK N   1      22.889  14.048   0.906  0.00  0.00    -0.346 N 
HETATM   17  C   UNK N   1      23.269  14.794   1.979  0.00  0.00     0.201 A 
ATOM     18  HN  UNK N   1      23.489  13.623   0.199  1.00  0.00     0.167 HD
HETATM   19  C   UNK N   1      21.900  15.944   3.846  0.00  0.00     0.167 C 
ENDBRANCH  10  11
ENDBRANCH   6  10
BRANCH   5  20
HETATM   20  C   UNK N   1      19.493  16.528   8.549  0.00  0.00     0.222 C 
HETATM   21  O   UNK N   1      18.311  16.302   8.752  0.00  0.00    -0.643 OA
HETATM   22  O   UNK N   1      19.999  17.729   8.892  0.00  0.00    -0.643 OA
ENDBRANCH   5  20
BRANCH   3  23
HETATM   23  C   UNK N   1      22.714  12.072   9.728  0.00  0.00     0.128 C 
HETATM   24  C   UNK N   1      23.717  11.429   8.789  0.00  0.00     0.040 C 
BRANCH  23  25
HETATM   25  O   UNK N   1      23.341  13.110  10.418  0.00  0.00    -0.395 OA
HETATM   26  H   UNK N   1      23.326  13.130  11.386  0.00  0.00     0.210 HD
ENDBRANCH  23  25
ENDBRANCH   3  23
TORSDOF 5
ENDMDL
MODEL 6
REMARK VINA RESULT:      -6.1      3.202      3.845
REMARK  5 active torsions:
REMARK  status: ('A' for Active; 'I' for Inactive)
REMARK    1  A    between atoms: C_10  and  C_8 
REMARK    2  A    between atoms: C_8  and  O_21 
REMARK    3  A    between atoms: S_25  and  C_9 
REMARK    4  A    between atoms: C_15  and  C_12 
REMARK    5  A    between atoms: S_25  and  C_13 
ROOT
HETATM    1  C   UNK N   1      22.152  12.906   6.693  0.00  0.00     0.017 C 
HETATM    2  C   UNK N   1      22.543  14.143   7.486  0.00  0.00     0.043 C 
HETATM    3  C   UNK N   1      21.379  12.843   9.687  0.00  0.00     0.120 A 
HETATM    4  C   UNK N   1      22.343  13.964   9.029  0.00  0.00     0.095 A 
HETATM    5  C   UNK N   1      20.932  15.684   8.187  0.00  0.00     0.108 C 
HETATM    6  C   UNK N   1      21.652  15.326   7.124  0.00  0.00     0.013 C 
HETATM    7  C   UNK N   1      20.476  14.018   9.845  0.00  0.00     0.213 A 
HETATM    8  N   UNK N   1      21.283  14.886   9.280  0.00  0.00    -0.206 NA
HETATM    9  O   UNK N   1      19.258  14.035   9.743  0.00  0.00    -0.279 OA
ENDROOT
BRANCH   6  10
HETATM   10  S   UNK N   1      21.475  16.097   5.481  0.00  0.00    -0.123 SA
BRANCH  10  11
HETATM   11  C   UNK N   1      20.899  14.770   4.347  0.00  0.00     0.092 C 
HETATM   12  C   UNK N   1      21.852  14.444   3.173  0.00  0.00     0.167 C 
HETATM   13  N   UNK N   1      20.903  14.027   2.178  0.00  0.00    -0.283 N 
HETATM   14  C   UNK N   1      20.967  13.539   0.933  0.00  0.00     0.201 A 
HETATM   15  N   UNK N   1      19.661  14.158   2.514  0.00  0.00    -0.283 N 
HETATM   16  N   UNK N   1      19.704  13.355   0.465  0.00  0.00    -0.346 N 
HETATM   17  C   UNK N   1      18.899  13.760   1.484  0.00  0.00     0.201 A 
ATOM     18  HN  UNK N   1      19.423  12.995  -0.447  1.00  0.00     0.167 HD
HETATM   19  C   UNK N   1      19.436  14.683   3.838  0.00  0.00     0.167 C 
ENDBRANCH  10  11
ENDBRANCH   6  10
BRANCH   5  20
HETATM   20  C   UNK N   1      19.869  16.726   8.252  0.00  0.00     0.222 C 
HETATM   21  O   UNK N   1      20.118  17.815   8.742  0.00  0.00    -0.643 OA
HETATM   22  O   UNK N   1      18.628  16.486   7.786  0.00  0.00    -0.643 OA
ENDBRANCH   5  20
BRANCH   3  23
HETATM   23  C   UNK N   1      21.944  12.275  10.991  0.00  0.00     0.128 C 
HETATM   24  C   UNK N   1      20.820  11.921  11.946  0.00  0.00     0.040 C 
BRANCH  23  25
HETATM   25  O   UNK N   1      22.674  11.121  10.705  0.00  0.00    -0.395 OA
HETATM   26  H   UNK N   1      23.303  10.770  11.353  0.00  0.00     0.210 HD
ENDBRANCH  23  25
ENDBRANCH   3  23
TORSDOF 5
ENDMDL
MODEL 7
REMARK VINA RESULT:      -6.0     15.146     17.318
REMARK  5 active torsions:
REMARK  status: ('A' for Active; 'I' for Inactive)
REMARK    1  A    between atoms: C_10  and  C_8 
REMARK    2  A    between atoms: C_8  and  O_21 
REMARK    3  A    between atoms: S_25  and  C_9 
REMARK    4  A    between atoms: C_15  and  C_12 
REMARK    5  A    between atoms: S_25  and  C_13 
ROOT
HETATM    1  C   UNK N   1      28.715  26.728  -7.440  0.00  0.00     0.017 C 
HETATM    2  C   UNK N   1      28.680  25.362  -6.775  0.00  0.00     0.043 C 
HETATM    3  C   UNK N   1      26.084  25.150  -7.824  0.00  0.00     0.120 A 
HETATM    4  C   UNK N   1      27.431  24.514  -7.192  0.00  0.00     0.095 A 
HETATM    5  C   UNK N   1      27.393  24.985  -4.861  0.00  0.00     0.108 C 
HETATM    6  C   UNK N   1      28.558  25.496  -5.262  0.00  0.00     0.013 C 
HETATM    7  C   UNK N   1      25.589  24.942  -6.433  0.00  0.00     0.213 A 
HETATM    8  N   UNK N   1      26.712  24.455  -5.961  0.00  0.00    -0.206 NA
HETATM    9  O   UNK N   1      24.825  25.660  -5.804  0.00  0.00    -0.279 OA
ENDROOT
BRANCH   6  10
HETATM   10  S   UNK N   1      29.737  26.317  -4.140  0.00  0.00    -0.123 SA
BRANCH  10  11
HETATM   11  C   UNK N   1      30.901  25.014  -3.569  0.00  0.00     0.092 C 
HETATM   12  C   UNK N   1      32.002  24.622  -4.583  0.00  0.00     0.167 C 
HETATM   13  N   UNK N   1      32.200  23.243  -4.228  0.00  0.00    -0.283 N 
HETATM   14  C   UNK N   1      33.025  22.261  -4.610  0.00  0.00     0.201 A 
HETATM   15  N   UNK N   1      31.385  22.783  -3.335  0.00  0.00    -0.283 N 
HETATM   16  N   UNK N   1      32.713  21.130  -3.925  0.00  0.00    -0.346 N 
HETATM   17  C   UNK N   1      31.669  21.489  -3.129  0.00  0.00     0.201 A 
ATOM     18  HN  UNK N   1      33.161  20.216  -3.991  1.00  0.00     0.167 HD
HETATM   19  C   UNK N   1      30.427  23.735  -2.830  0.00  0.00     0.167 C 
ENDBRANCH  10  11
ENDBRANCH   6  10
BRANCH   5  20
HETATM   20  C   UNK N   1      26.827  24.994  -3.483  0.00  0.00     0.222 C 
HETATM   21  O   UNK N   1      26.813  23.965  -2.828  0.00  0.00    -0.643 OA
HETATM   22  O   UNK N   1      26.318  26.120  -2.945  0.00  0.00    -0.643 OA
ENDBRANCH   5  20
BRANCH   3  23
HETATM   23  C   UNK N   1      25.449  24.246  -8.883  0.00  0.00     0.128 C 
HETATM   24  C   UNK N   1      26.522  23.541  -9.691  0.00  0.00     0.040 C 
BRANCH  23  25
HETATM   25  O   UNK N   1      24.659  23.288  -8.248  0.00  0.00    -0.395 OA
HETATM   26  H   UNK N   1      25.025  22.414  -8.041  0.00  0.00     0.210 HD
ENDBRANCH  23  25
ENDBRANCH   3  23
TORSDOF 5
ENDMDL
MODEL 8
REMARK VINA RESULT:      -6.0      9.219     10.757
REMARK  5 active torsions:
REMARK  status: ('A' for Active; 'I' for Inactive)
REMARK    1  A    between atoms: C_10  and  C_8 
REMARK    2  A    between atoms: C_8  and  O_21 
REMARK    3  A    between atoms: S_25  and  C_9 
REMARK    4  A    between atoms: C_15  and  C_12 
REMARK    5  A    between atoms: S_25  and  C_13 
ROOT
HETATM    1  C   UNK N   1      30.613  16.868   9.008  0.00  0.00     0.017 C 
HETATM    2  C   UNK N   1      31.301  15.786   8.193  0.00  0.00     0.043 C 
HETATM    3  C   UNK N   1      33.704  16.965   9.042  0.00  0.00     0.120 A 
HETATM    4  C   UNK N   1      32.848  15.735   8.431  0.00  0.00     0.095 A 
HETATM    5  C   UNK N   1      32.358  16.289   6.170  0.00  0.00     0.108 C 
HETATM    6  C   UNK N   1      31.157  16.055   6.699  0.00  0.00     0.013 C 
HETATM    7  C   UNK N   1      34.069  17.145   7.609  0.00  0.00     0.213 A 
HETATM    8  N   UNK N   1      33.338  16.152   7.157  0.00  0.00    -0.206 NA
HETATM    9  O   UNK N   1      34.248  18.199   7.017  0.00  0.00    -0.279 OA
ENDROOT
BRANCH   6  10
HETATM   10  S   UNK N   1      29.601  16.164   5.755  0.00  0.00    -0.123 SA
BRANCH  10  11
HETATM   11  C   UNK N   1      29.185  17.952   5.649  0.00  0.00     0.092 C 
HETATM   12  C   UNK N   1      28.563  18.562   6.927  0.00  0.00     0.167 C 
HETATM   13  N   UNK N   1      27.732  19.581   6.348  0.00  0.00    -0.283 N 
HETATM   14  C   UNK N   1      26.941  20.557   6.813  0.00  0.00     0.201 A 
HETATM   15  N   UNK N   1      27.685  19.584   5.056  0.00  0.00    -0.283 N 
HETATM   16  N   UNK N   1      26.371  21.202   5.762  0.00  0.00    -0.346 N 
HETATM   17  C   UNK N   1      26.856  20.562   4.663  0.00  0.00     0.201 A 
ATOM     18  HN  UNK N   1      25.723  21.990   5.789  1.00  0.00     0.167 HD
HETATM   19  C   UNK N   1      28.490  18.576   4.410  0.00  0.00     0.167 C 
ENDBRANCH  10  11
ENDBRANCH   6  10
BRANCH   5  20
HETATM   20  C   UNK N   1      32.668  16.688   4.768  0.00  0.00     0.222 C 
HETATM   21  O   UNK N   1      33.176  15.880   4.008  0.00  0.00    -0.643 OA
HETATM   22  O   UNK N   1      32.406  17.932   4.323  0.00  0.00    -0.643 OA
ENDBRANCH   5  20
BRANCH   3  23
HETATM   23  C   UNK N   1      34.842  16.493   9.950  0.00  0.00     0.128 C 
HETATM   24  C   UNK N   1      35.620  15.372   9.287  0.00  0.00     0.040 C 
BRANCH  23  25
HETATM   25  O   UNK N   1      35.705  17.563  10.188  0.00  0.00    -0.395 OA
HETATM   26  H   UNK N   1      36.310  17.864   9.493  0.00  0.00     0.210 HD
ENDBRANCH  23  25
ENDBRANCH   3  23
TORSDOF 5
ENDMDL
MODEL 9
REMARK VINA RESULT:      -6.0     10.501     12.051
REMARK  5 active torsions:
REMARK  status: ('A' for Active; 'I' for Inactive)
REMARK    1  A    between atoms: C_10  and  C_8 
REMARK    2  A    between atoms: C_8  and  O_21 
REMARK    3  A    between atoms: S_25  and  C_9 
REMARK    4  A    between atoms: C_15  and  C_12 
REMARK    5  A    between atoms: S_25  and  C_13 
ROOT
HETATM    1  C   UNK N   1      33.288  13.974   6.387  0.00  0.00     0.017 C 
HETATM    2  C   UNK N   1      34.503  14.887   6.388  0.00  0.00     0.043 C 
HETATM    3  C   UNK N   1      34.913  13.991   9.018  0.00  0.00     0.120 A 
HETATM    4  C   UNK N   1      35.416  14.683   7.645  0.00  0.00     0.095 A 
HETATM    5  C   UNK N   1      34.510  16.882   7.605  0.00  0.00     0.108 C 
HETATM    6  C   UNK N   1      34.084  16.351   6.459  0.00  0.00     0.013 C 
HETATM    7  C   UNK N   1      34.852  15.412   9.463  0.00  0.00     0.213 A 
HETATM    8  N   UNK N   1      35.241  15.928   8.320  0.00  0.00    -0.206 NA
HETATM    9  O   UNK N   1      34.029  15.920  10.209  0.00  0.00    -0.279 OA
ENDROOT
BRANCH   6  10
HETATM   10  S   UNK N   1      33.064  17.254   5.248  0.00  0.00    -0.123 SA
BRANCH  10  11
HETATM   11  C   UNK N   1      31.315  16.835   5.631  0.00  0.00     0.092 C 
HETATM   12  C   UNK N   1      30.255  17.625   4.828  0.00  0.00     0.167 C 
HETATM   13  N   UNK N   1      29.181  17.658   5.782  0.00  0.00    -0.283 N 
HETATM   14  C   UNK N   1      27.919  18.105   5.795  0.00  0.00     0.201 A 
HETATM   15  N   UNK N   1      29.462  17.164   6.944  0.00  0.00    -0.283 N 
HETATM   16  N   UNK N   1      27.383  17.881   7.023  0.00  0.00    -0.346 N 
HETATM   17  C   UNK N   1      28.383  17.289   7.731  0.00  0.00     0.201 A 
ATOM     18  HN  UNK N   1      26.441  18.106   7.344  1.00  0.00     0.167 HD
HETATM   19  C   UNK N   1      30.801  16.644   7.082  0.00  0.00     0.167 C 
ENDBRANCH  10  11
ENDBRANCH   6  10
BRANCH   5  20
HETATM   20  C   UNK N   1      34.240  18.253   8.124  0.00  0.00     0.222 C 
HETATM   21  O   UNK N   1      33.088  18.624   8.282  0.00  0.00    -0.643 OA
HETATM   22  O   UNK N   1      35.247  19.100   8.413  0.00  0.00    -0.643 OA
ENDBRANCH   5  20
BRANCH   3  23
HETATM   23  C   UNK N   1      36.001  13.146   9.682  0.00  0.00     0.128 C 
HETATM   24  C   UNK N   1      36.444  12.027   8.757  0.00  0.00     0.040 C 
BRANCH  23  25
HETATM   25  O   UNK N   1      37.099  13.959   9.964  0.00  0.00    -0.395 OA
HETATM   26  H   UNK N   1      37.121  14.875   9.647  0.00  0.00     0.210 HD
ENDBRANCH  23  25
ENDBRANCH   3  23
TORSDOF 5
ENDMDL
