MODEL 1
REMARK VINA RESULT:      -9.0      0.000      0.000
REMARK  10 active torsions:
REMARK  status: ('A' for Active; 'I' for Inactive)
REMARK    1  A    between atoms: N_42  and  C_19 
REMARK    2  A    between atoms: O_45  and  C_20 
REMARK    3  A    between atoms: O_45  and  C_21 
REMARK    4  A    between atoms: N_37  and  C_24 
REMARK    5  A    between atoms: C_28  and  C_25 
REMARK    6  A    between atoms: C_30  and  C_26 
REMARK    7  A    between atoms: N_39  and  C_27 
REMARK       I    between atoms: N_32  and  C_28 
REMARK    8  A    between atoms: N_37  and  C_29 
REMARK    9  A    between atoms: N_39  and  C_29 
REMARK   10  A    between atoms: O_44  and  C_29 
ROOT
HETATM    1  C   UNK N   1      29.977  16.488   3.466  0.00  0.00     0.223 C 
ENDROOT
BRANCH   1   2
HETATM    2  N   UNK N   1      31.141  16.769   3.017  0.00  0.00    -0.320 N 
ATOM      3  HN  UNK N   1      31.176  17.275   2.133  1.00  0.00     0.169 HD
BRANCH   2   4
HETATM    4  C   UNK N   1      32.383  16.456   3.609  0.00  0.00     0.074 C 
HETATM    5  C   UNK N   1      32.903  17.169   4.710  0.00  0.00     0.035 C 
HETATM    6  C   UNK N   1      33.873  16.595   5.528  0.00  0.00     0.040 C 
HETATM    7  C   UNK N   1      34.292  15.299   5.244  0.00  0.00     0.079 C 
HETATM    8  C   UNK N   1      33.888  14.667   4.056  0.00  0.00     0.081 C 
HETATM    9  C   UNK N   1      32.942  15.241   3.246  0.00  0.00     0.145 C 
HETATM   10  F   UNK N   1      32.410  14.513   2.233  0.00  0.00    -0.204 F 
BRANCH   7  11
HETATM   11  O   UNK N   1      34.738  14.511   6.242  0.00  0.00    -0.311 OA
BRANCH  11  12
HETATM   12  C   UNK N   1      34.225  14.809   7.467  0.00  0.00     0.079 A 
HETATM   13  C   UNK N   1      33.041  14.177   7.912  0.00  0.00     0.054 A 
HETATM   14  C   UNK N   1      32.663  14.276   9.245  0.00  0.00     0.091 A 
HETATM   15  N   UNK N   1      33.446  14.963  10.115  0.00  0.00    -0.361 N 
HETATM   16  C   UNK N   1      34.588  15.593   9.714  0.00  0.00     0.103 A 
ATOM     17  HN  UNK N   1      33.173  15.008  11.097  1.00  0.00     0.165 HD
HETATM   18  C   UNK N   1      34.988  15.523   8.374  0.00  0.00     0.072 A 
BRANCH  16  19
HETATM   19  C   UNK N   1      35.463  16.301  10.684  0.00  0.00     0.267 C 
HETATM   20  N   UNK N   1      36.219  15.656  11.612  0.00  0.00    -0.360 N 
HETATM   21  C   UNK N   1      36.244  14.228  11.799  0.00  0.00     0.149 C 
HETATM   22  H   UNK N   1      36.790  16.204  12.197  0.00  0.00     0.162 HD
HETATM   23  O   UNK N   1      35.511  17.521  10.642  0.00  0.00    -0.266 OA
ENDBRANCH  16  19
ENDBRANCH  11  12
ENDBRANCH   7  11
ENDBRANCH   2   4
ENDBRANCH   1   2
BRANCH   1  24
HETATM   24  N   UNK N   1      29.050  17.497   3.850  0.00  0.00    -0.307 N 
HETATM   25  H   UNK N   1      28.555  18.005   3.166  0.00  0.00     0.171 HD
BRANCH  24  26
HETATM   26  C   UNK N   1      28.847  17.764   5.231  0.00  0.00     0.132 A 
HETATM   27  C   UNK N   1      29.694  17.381   6.242  0.00  0.00     0.077 A 
HETATM   28  C   UNK N   1      29.125  17.942   7.374  0.00  0.00     0.037 A 
HETATM   29  N   UNK N   1      27.988  18.607   7.043  0.00  0.00    -0.295 N 
HETATM   30  N   UNK N   1      27.827  18.496   5.727  0.00  0.00    -0.240 N 
ATOM     31  HN  UNK N   1      27.369  19.100   7.685  1.00  0.00     0.187 HD
BRANCH  28  32
HETATM   32  C   UNK N   1      29.743  17.875   8.750  0.00  0.00    -0.007 C 
HETATM   33  C   UNK N   1      31.157  17.330   8.659  0.00  0.00     0.021 C 
HETATM   34  C   UNK N   1      28.937  16.995   9.685  0.00  0.00     0.021 C 
HETATM   35  C   UNK N   1      29.803  19.272   9.346  0.00  0.00     0.021 C 
ENDBRANCH  28  32
BRANCH  30  36
HETATM   36  C   UNK N   1      26.778  19.121   4.956  0.00  0.00     0.059 A 
HETATM   37  C   UNK N   1      27.021  20.153   4.034  0.00  0.00     0.034 A 
HETATM   38  C   UNK N   1      25.951  20.685   3.279  0.00  0.00     0.033 A 
HETATM   39  C   UNK N   1      24.654  20.156   3.419  0.00  0.00     0.042 A 
HETATM   40  C   UNK N   1      24.432  19.118   4.330  0.00  0.00    -0.007 A 
HETATM   41  N   UNK N   1      23.616  20.622   2.673  0.00  0.00    -0.365 N 
HETATM   42  C   UNK N   1      23.165  18.551   4.456  0.00  0.00     0.015 A 
HETATM   43  C   UNK N   1      25.477  18.645   5.088  0.00  0.00     0.045 A 
HETATM   44  C   UNK N   1      22.121  19.033   3.671  0.00  0.00     0.018 A 
HETATM   45  C   UNK N   1      22.365  20.085   2.782  0.00  0.00     0.088 A 
ATOM     46  HN  UNK N   1      23.775  21.389   2.019  1.00  0.00     0.165 HD
ENDBRANCH  30  36
ENDBRANCH  24  26
ENDBRANCH   1  24
BRANCH   1  47
HETATM   47  O   UNK N   1      29.663  15.191   3.617  0.00  0.00    -0.332 OA
HETATM   48  H   UNK N   1      30.124  14.620   4.198  0.00  0.00     0.220 HD
ENDBRANCH   1  47
TORSDOF 10
ENDMDL
MODEL 2
REMARK VINA RESULT:      -8.6      4.132     10.893
REMARK  10 active torsions:
REMARK  status: ('A' for Active; 'I' for Inactive)
REMARK    1  A    between atoms: N_42  and  C_19 
REMARK    2  A    between atoms: O_45  and  C_20 
REMARK    3  A    between atoms: O_45  and  C_21 
REMARK    4  A    between atoms: N_37  and  C_24 
REMARK    5  A    between atoms: C_28  and  C_25 
REMARK    6  A    between atoms: C_30  and  C_26 
REMARK    7  A    between atoms: N_39  and  C_27 
REMARK       I    between atoms: N_32  and  C_28 
REMARK    8  A    between atoms: N_37  and  C_29 
REMARK    9  A    between atoms: N_39  and  C_29 
REMARK   10  A    between atoms: O_44  and  C_29 
ROOT
HETATM    1  C   UNK N   1      27.508  19.768   5.203  0.00  0.00     0.223 C 
ENDROOT
BRANCH   1   2
HETATM    2  N   UNK N   1      26.453  20.277   4.688  0.00  0.00    -0.320 N 
ATOM      3  HN  UNK N   1      26.455  21.288   4.559  1.00  0.00     0.169 HD
BRANCH   2   4
HETATM    4  C   UNK N   1      25.288  19.595   4.281  0.00  0.00     0.074 C 
HETATM    5  C   UNK N   1      24.735  18.525   5.015  0.00  0.00     0.035 C 
HETATM    6  C   UNK N   1      23.399  18.170   4.847  0.00  0.00     0.040 C 
HETATM    7  C   UNK N   1      22.626  18.912   3.960  0.00  0.00     0.079 C 
HETATM    8  C   UNK N   1      23.227  19.864   3.119  0.00  0.00     0.081 C 
HETATM    9  C   UNK N   1      24.546  20.202   3.279  0.00  0.00     0.145 C 
HETATM   10  F   UNK N   1      25.039  21.273   2.610  0.00  0.00    -0.204 F 
BRANCH   7  11
HETATM   11  O   UNK N   1      21.298  19.019   4.164  0.00  0.00    -0.311 OA
BRANCH  11  12
HETATM   12  C   UNK N   1      20.563  18.004   3.634  0.00  0.00     0.079 A 
HETATM   13  C   UNK N   1      20.526  17.814   2.233  0.00  0.00     0.054 A 
HETATM   14  C   UNK N   1      20.002  16.639   1.708  0.00  0.00     0.091 A 
HETATM   15  N   UNK N   1      19.549  15.673   2.546  0.00  0.00    -0.361 N 
HETATM   16  C   UNK N   1      19.561  15.831   3.902  0.00  0.00     0.103 A 
ATOM     17  HN  UNK N   1      19.190  14.804   2.152  1.00  0.00     0.165 HD
HETATM   18  C   UNK N   1      20.071  17.010   4.461  0.00  0.00     0.072 A 
BRANCH  16  19
HETATM   19  C   UNK N   1      19.108  14.748   4.812  0.00  0.00     0.267 C 
HETATM   20  N   UNK N   1      19.918  13.738   5.227  0.00  0.00    -0.360 N 
HETATM   21  C   UNK N   1      21.289  13.566   4.818  0.00  0.00     0.149 C 
HETATM   22  H   UNK N   1      19.541  13.077   5.852  0.00  0.00     0.162 HD
HETATM   23  O   UNK N   1      17.954  14.768   5.212  0.00  0.00    -0.266 OA
ENDBRANCH  16  19
ENDBRANCH  11  12
ENDBRANCH   7  11
ENDBRANCH   2   4
ENDBRANCH   1   2
BRANCH   1  24
HETATM   24  N   UNK N   1      28.455  19.044   4.425  0.00  0.00    -0.307 N 
HETATM   25  H   UNK N   1      29.212  19.509   4.002  0.00  0.00     0.171 HD
BRANCH  24  26
HETATM   26  C   UNK N   1      28.293  17.640   4.267  0.00  0.00     0.132 A 
HETATM   27  C   UNK N   1      27.539  17.037   3.291  0.00  0.00     0.077 A 
HETATM   28  C   UNK N   1      27.767  15.685   3.492  0.00  0.00     0.037 A 
HETATM   29  N   UNK N   1      28.601  15.505   4.548  0.00  0.00    -0.295 N 
HETATM   30  N   UNK N   1      28.922  16.708   5.015  0.00  0.00    -0.240 N 
ATOM     31  HN  UNK N   1      28.922  14.611   4.918  1.00  0.00     0.187 HD
BRANCH  28  32
HETATM   32  C   UNK N   1      27.218  14.596   2.601  0.00  0.00    -0.007 C 
HETATM   33  C   UNK N   1      26.696  13.448   3.445  0.00  0.00     0.021 C 
HETATM   34  C   UNK N   1      28.271  14.066   1.648  0.00  0.00     0.021 C 
HETATM   35  C   UNK N   1      26.067  15.150   1.777  0.00  0.00     0.021 C 
ENDBRANCH  28  32
BRANCH  30  36
HETATM   36  C   UNK N   1      29.848  16.968   6.093  0.00  0.00     0.059 A 
HETATM   37  C   UNK N   1      29.455  17.013   7.441  0.00  0.00     0.034 A 
HETATM   38  C   UNK N   1      30.425  17.224   8.447  0.00  0.00     0.033 A 
HETATM   39  C   UNK N   1      31.785  17.348   8.105  0.00  0.00     0.042 A 
HETATM   40  C   UNK N   1      32.161  17.286   6.759  0.00  0.00    -0.007 A 
HETATM   41  N   UNK N   1      32.742  17.510   9.059  0.00  0.00    -0.365 N 
HETATM   42  C   UNK N   1      33.505  17.366   6.401  0.00  0.00     0.015 A 
HETATM   43  C   UNK N   1      31.198  17.125   5.792  0.00  0.00     0.045 A 
HETATM   44  C   UNK N   1      34.469  17.515   7.393  0.00  0.00     0.018 A 
HETATM   45  C   UNK N   1      34.064  17.595   8.730  0.00  0.00     0.088 A 
ATOM     46  HN  UNK N   1      32.466  17.570  10.039  1.00  0.00     0.165 HD
ENDBRANCH  30  36
ENDBRANCH  24  26
ENDBRANCH   1  24
BRANCH   1  47
HETATM   47  O   UNK N   1      27.679  19.893   6.528  0.00  0.00    -0.332 OA
HETATM   48  H   UNK N   1      27.548  20.701   6.984  0.00  0.00     0.220 HD
ENDBRANCH   1  47
TORSDOF 10
ENDMDL
MODEL 3
REMARK VINA RESULT:      -8.6      3.660      8.846
REMARK  10 active torsions:
REMARK  status: ('A' for Active; 'I' for Inactive)
REMARK    1  A    between atoms: N_42  and  C_19 
REMARK    2  A    between atoms: O_45  and  C_20 
REMARK    3  A    between atoms: O_45  and  C_21 
REMARK    4  A    between atoms: N_37  and  C_24 
REMARK    5  A    between atoms: C_28  and  C_25 
REMARK    6  A    between atoms: C_30  and  C_26 
REMARK    7  A    between atoms: N_39  and  C_27 
REMARK       I    between atoms: N_32  and  C_28 
REMARK    8  A    between atoms: N_37  and  C_29 
REMARK    9  A    between atoms: N_39  and  C_29 
REMARK   10  A    between atoms: O_44  and  C_29 
ROOT
HETATM    1  C   UNK N   1      29.299  16.333   3.216  0.00  0.00     0.223 C 
ENDROOT
BRANCH   1   2
HETATM    2  N   UNK N   1      28.355  15.626   2.721  0.00  0.00    -0.320 N 
ATOM      3  HN  UNK N   1      28.587  15.075   1.895  1.00  0.00     0.169 HD
BRANCH   2   4
HETATM    4  C   UNK N   1      27.029  15.524   3.190  0.00  0.00     0.074 C 
HETATM    5  C   UNK N   1      25.911  15.835   2.388  0.00  0.00     0.035 C 
HETATM    6  C   UNK N   1      24.653  15.327   2.703  0.00  0.00     0.040 C 
HETATM    7  C   UNK N   1      24.538  14.491   3.808  0.00  0.00     0.079 C 
HETATM    8  C   UNK N   1      25.621  14.323   4.688  0.00  0.00     0.081 C 
HETATM    9  C   UNK N   1      26.855  14.836   4.381  0.00  0.00     0.145 C 
HETATM   10  F   UNK N   1      27.926  14.472   5.129  0.00  0.00    -0.204 F 
BRANCH   7  11
HETATM   11  O   UNK N   1      23.570  13.553   3.835  0.00  0.00    -0.311 OA
BRANCH  11  12
HETATM   12  C   UNK N   1      22.311  14.048   3.987  0.00  0.00     0.079 A 
HETATM   13  C   UNK N   1      22.013  14.901   5.074  0.00  0.00     0.054 A 
HETATM   14  C   UNK N   1      20.819  15.611   5.088  0.00  0.00     0.091 A 
HETATM   15  N   UNK N   1      19.957  15.496   4.046  0.00  0.00    -0.361 N 
HETATM   16  C   UNK N   1      20.211  14.672   2.988  0.00  0.00     0.103 A 
ATOM     17  HN  UNK N   1      19.095  16.041   4.054  1.00  0.00     0.165 HD
HETATM   18  C   UNK N   1      21.400  13.933   2.951  0.00  0.00     0.072 A 
BRANCH  16  19
HETATM   19  C   UNK N   1      19.285  14.590   1.829  0.00  0.00     0.267 C 
HETATM   20  N   UNK N   1      19.271  15.504   0.823  0.00  0.00    -0.360 N 
HETATM   21  C   UNK N   1      20.113  16.671   0.764  0.00  0.00     0.149 C 
HETATM   22  H   UNK N   1      18.641  15.356   0.080  0.00  0.00     0.162 HD
HETATM   23  O   UNK N   1      18.502  13.654   1.775  0.00  0.00    -0.266 OA
ENDBRANCH  16  19
ENDBRANCH  11  12
ENDBRANCH   7  11
ENDBRANCH   2   4
ENDBRANCH   1   2
BRANCH   1  24
HETATM   24  N   UNK N   1      29.071  17.632   3.749  0.00  0.00    -0.307 N 
HETATM   25  H   UNK N   1      29.079  18.422   3.160  0.00  0.00     0.171 HD
BRANCH  24  26
HETATM   26  C   UNK N   1      28.832  17.777   5.143  0.00  0.00     0.132 A 
HETATM   27  C   UNK N   1      29.681  17.359   6.138  0.00  0.00     0.077 A 
HETATM   28  C   UNK N   1      29.065  17.799   7.299  0.00  0.00     0.037 A 
HETATM   29  N   UNK N   1      27.900  18.427   6.998  0.00  0.00    -0.295 N 
HETATM   30  N   UNK N   1      27.766  18.414   5.675  0.00  0.00    -0.240 N 
ATOM     31  HN  UNK N   1      27.246  18.835   7.664  1.00  0.00     0.187 HD
BRANCH  28  32
HETATM   32  C   UNK N   1      29.664  17.654   8.677  0.00  0.00    -0.007 C 
HETATM   33  C   UNK N   1      30.824  16.676   8.640  0.00  0.00     0.021 C 
HETATM   34  C   UNK N   1      28.642  17.166   9.685  0.00  0.00     0.021 C 
HETATM   35  C   UNK N   1      30.187  19.003   9.146  0.00  0.00     0.021 C 
ENDBRANCH  28  32
BRANCH  30  36
HETATM   36  C   UNK N   1      26.698  19.043   4.935  0.00  0.00     0.059 A 
HETATM   37  C   UNK N   1      26.905  20.137   4.078  0.00  0.00     0.034 A 
HETATM   38  C   UNK N   1      25.820  20.671   3.348  0.00  0.00     0.033 A 
HETATM   39  C   UNK N   1      24.544  20.084   3.445  0.00  0.00     0.042 A 
HETATM   40  C   UNK N   1      24.357  18.986   4.291  0.00  0.00    -0.007 A 
HETATM   41  N   UNK N   1      23.492  20.554   2.720  0.00  0.00    -0.365 N 
HETATM   42  C   UNK N   1      23.113  18.364   4.372  0.00  0.00     0.015 A 
HETATM   43  C   UNK N   1      25.416  18.509   5.027  0.00  0.00     0.045 A 
HETATM   44  C   UNK N   1      22.056  18.851   3.609  0.00  0.00     0.018 A 
HETATM   45  C   UNK N   1      22.263  19.964   2.787  0.00  0.00     0.088 A 
ATOM     46  HN  UNK N   1      23.625  21.365   2.114  1.00  0.00     0.165 HD
ENDBRANCH  30  36
ENDBRANCH  24  26
ENDBRANCH   1  24
BRANCH   1  47
HETATM   47  O   UNK N   1      30.543  15.831   3.173  0.00  0.00    -0.332 OA
HETATM   48  H   UNK N   1      31.085  15.877   2.410  0.00  0.00     0.220 HD
ENDBRANCH   1  47
TORSDOF 10
ENDMDL
MODEL 4
REMARK VINA RESULT:      -8.5      2.931      5.523
REMARK  10 active torsions:
REMARK  status: ('A' for Active; 'I' for Inactive)
REMARK    1  A    between atoms: N_42  and  C_19 
REMARK    2  A    between atoms: O_45  and  C_20 
REMARK    3  A    between atoms: O_45  and  C_21 
REMARK    4  A    between atoms: N_37  and  C_24 
REMARK    5  A    between atoms: C_28  and  C_25 
REMARK    6  A    between atoms: C_30  and  C_26 
REMARK    7  A    between atoms: N_39  and  C_27 
REMARK       I    between atoms: N_32  and  C_28 
REMARK    8  A    between atoms: N_37  and  C_29 
REMARK    9  A    between atoms: N_39  and  C_29 
REMARK   10  A    between atoms: O_44  and  C_29 
ROOT
HETATM    1  C   UNK N   1      33.184  17.139   6.084  0.00  0.00     0.223 C 
ENDROOT
BRANCH   1   2
HETATM    2  N   UNK N   1      32.822  16.233   6.911  0.00  0.00    -0.320 N 
ATOM      3  HN  UNK N   1      31.826  16.022   6.945  1.00  0.00     0.169 HD
BRANCH   2   4
HETATM    4  C   UNK N   1      33.650  15.492   7.781  0.00  0.00     0.074 C 
HETATM    5  C   UNK N   1      34.960  15.100   7.437  0.00  0.00     0.035 C 
HETATM    6  C   UNK N   1      35.882  14.772   8.428  0.00  0.00     0.040 C 
HETATM    7  C   UNK N   1      35.483  14.866   9.757  0.00  0.00     0.079 C 
HETATM    8  C   UNK N   1      34.135  15.098  10.078  0.00  0.00     0.081 C 
HETATM    9  C   UNK N   1      33.227  15.408   9.099  0.00  0.00     0.145 C 
HETATM   10  F   UNK N   1      31.994  15.844   9.455  0.00  0.00    -0.204 F 
BRANCH   7  11
HETATM   11  O   UNK N   1      36.399  15.130  10.709  0.00  0.00    -0.311 OA
BRANCH  11  12
HETATM   12  C   UNK N   1      36.523  14.159  11.655  0.00  0.00     0.079 A 
HETATM   13  C   UNK N   1      37.071  12.902  11.311  0.00  0.00     0.054 A 
HETATM   14  C   UNK N   1      37.441  12.012  12.311  0.00  0.00     0.091 A 
HETATM   15  N   UNK N   1      37.291  12.365  13.613  0.00  0.00    -0.361 N 
HETATM   16  C   UNK N   1      36.755  13.566  13.977  0.00  0.00     0.103 A 
ATOM     17  HN  UNK N   1      37.590  11.715  14.340  1.00  0.00     0.165 HD
HETATM   18  C   UNK N   1      36.361  14.480  12.991  0.00  0.00     0.072 A 
BRANCH  16  19
HETATM   19  C   UNK N   1      36.641  13.964  15.403  0.00  0.00     0.267 C 
HETATM   20  N   UNK N   1      35.659  13.509  16.226  0.00  0.00    -0.360 N 
HETATM   21  C   UNK N   1      34.596  12.625  15.822  0.00  0.00     0.149 C 
HETATM   22  H   UNK N   1      35.676  13.804  17.165  0.00  0.00     0.162 HD
HETATM   23  O   UNK N   1      37.473  14.733  15.862  0.00  0.00    -0.266 OA
ENDBRANCH  16  19
ENDBRANCH  11  12
ENDBRANCH   7  11
ENDBRANCH   2   4
ENDBRANCH   1   2
BRANCH   1  24
HETATM   24  N   UNK N   1      32.572  17.285   4.807  0.00  0.00    -0.307 N 
HETATM   25  H   UNK N   1      32.691  18.115   4.290  0.00  0.00     0.171 HD
BRANCH  24  26
HETATM   26  C   UNK N   1      31.788  16.219   4.288  0.00  0.00     0.132 A 
HETATM   27  C   UNK N   1      32.276  15.156   3.569  0.00  0.00     0.077 A 
HETATM   28  C   UNK N   1      31.162  14.356   3.373  0.00  0.00     0.037 A 
HETATM   29  N   UNK N   1      30.070  14.933   3.935  0.00  0.00    -0.295 N 
HETATM   30  N   UNK N   1      30.462  16.073   4.498  0.00  0.00    -0.240 N 
ATOM     31  HN  UNK N   1      29.120  14.562   3.927  1.00  0.00     0.187 HD
BRANCH  28  32
HETATM   32  C   UNK N   1      31.203  13.006   2.697  0.00  0.00    -0.007 C 
HETATM   33  C   UNK N   1      29.985  12.832   1.809  0.00  0.00     0.021 C 
HETATM   34  C   UNK N   1      31.241  11.875   3.706  0.00  0.00     0.021 C 
HETATM   35  C   UNK N   1      32.449  12.912   1.830  0.00  0.00     0.021 C 
ENDBRANCH  28  32
BRANCH  30  36
HETATM   36  C   UNK N   1      29.621  16.960   5.267  0.00  0.00     0.059 A 
HETATM   37  C   UNK N   1      29.452  16.836   6.656  0.00  0.00     0.034 A 
HETATM   38  C   UNK N   1      28.651  17.770   7.351  0.00  0.00     0.033 A 
HETATM   39  C   UNK N   1      28.060  18.846   6.662  0.00  0.00     0.042 A 
HETATM   40  C   UNK N   1      28.251  18.964   5.282  0.00  0.00    -0.007 A 
HETATM   41  N   UNK N   1      27.320  19.783   7.316  0.00  0.00    -0.365 N 
HETATM   42  C   UNK N   1      27.709  20.044   4.586  0.00  0.00     0.015 A 
HETATM   43  C   UNK N   1      28.996  18.020   4.617  0.00  0.00     0.045 A 
HETATM   44  C   UNK N   1      26.969  20.999   5.277  0.00  0.00     0.018 A 
HETATM   45  C   UNK N   1      26.775  20.846   6.654  0.00  0.00     0.088 A 
ATOM     46  HN  UNK N   1      27.168  19.688   8.321  1.00  0.00     0.165 HD
ENDBRANCH  30  36
ENDBRANCH  24  26
ENDBRANCH   1  24
BRANCH   1  47
HETATM   47  O   UNK N   1      34.207  17.933   6.436  0.00  0.00    -0.332 OA
HETATM   48  H   UNK N   1      34.871  17.669   7.042  0.00  0.00     0.220 HD
ENDBRANCH   1  47
TORSDOF 10
ENDMDL
MODEL 5
REMARK VINA RESULT:      -8.4      5.745      9.397
REMARK  10 active torsions:
REMARK  status: ('A' for Active; 'I' for Inactive)
REMARK    1  A    between atoms: N_42  and  C_19 
REMARK    2  A    between atoms: O_45  and  C_20 
REMARK    3  A    between atoms: O_45  and  C_21 
REMARK    4  A    between atoms: N_37  and  C_24 
REMARK    5  A    between atoms: C_28  and  C_25 
REMARK    6  A    between atoms: C_30  and  C_26 
REMARK    7  A    between atoms: N_39  and  C_27 
REMARK       I    between atoms: N_32  and  C_28 
REMARK    8  A    between atoms: N_37  and  C_29 
REMARK    9  A    between atoms: N_39  and  C_29 
REMARK   10  A    between atoms: O_44  and  C_29 
ROOT
HETATM    1  C   UNK N   1      20.117  18.033   2.872  0.00  0.00     0.223 C 
ENDROOT
BRANCH   1   2
HETATM    2  N   UNK N   1      19.636  16.850   2.792  0.00  0.00    -0.320 N 
ATOM      3  HN  UNK N   1      18.636  16.755   2.962  1.00  0.00     0.169 HD
BRANCH   2   4
HETATM    4  C   UNK N   1      20.337  15.662   2.494  0.00  0.00     0.074 C 
HETATM    5  C   UNK N   1      21.008  15.461   1.270  0.00  0.00     0.035 C 
HETATM    6  C   UNK N   1      22.021  14.511   1.169  0.00  0.00     0.040 C 
HETATM    7  C   UNK N   1      22.365  13.790   2.308  0.00  0.00     0.079 C 
HETATM    8  C   UNK N   1      21.582  13.884   3.471  0.00  0.00     0.081 C 
HETATM    9  C   UNK N   1      20.577  14.812   3.562  0.00  0.00     0.145 C 
HETATM   10  F   UNK N   1      19.989  15.034   4.764  0.00  0.00    -0.204 F 
BRANCH   7  11
HETATM   11  O   UNK N   1      23.623  13.325   2.446  0.00  0.00    -0.311 OA
BRANCH  11  12
HETATM   12  C   UNK N   1      24.088  13.334   3.725  0.00  0.00     0.079 A 
HETATM   13  C   UNK N   1      24.002  12.166   4.518  0.00  0.00     0.054 A 
HETATM   14  C   UNK N   1      24.704  12.090   5.714  0.00  0.00     0.091 A 
HETATM   15  N   UNK N   1      25.483  13.131   6.103  0.00  0.00    -0.361 N 
HETATM   16  C   UNK N   1      25.577  14.276   5.366  0.00  0.00     0.103 A 
ATOM     17  HN  UNK N   1      26.015  13.055   6.970  1.00  0.00     0.165 HD
HETATM   18  C   UNK N   1      24.872  14.388   4.161  0.00  0.00     0.072 A 
BRANCH  16  19
HETATM   19  C   UNK N   1      26.471  15.389   5.775  0.00  0.00     0.267 C 
HETATM   20  N   UNK N   1      27.812  15.388   5.551  0.00  0.00    -0.360 N 
HETATM   21  C   UNK N   1      28.538  14.309   4.931  0.00  0.00     0.149 C 
HETATM   22  H   UNK N   1      28.324  16.180   5.833  0.00  0.00     0.162 HD
HETATM   23  O   UNK N   1      25.977  16.357   6.334  0.00  0.00    -0.266 OA
ENDBRANCH  16  19
ENDBRANCH  11  12
ENDBRANCH   7  11
ENDBRANCH   2   4
ENDBRANCH   1   2
BRANCH   1  24
HETATM   24  N   UNK N   1      20.627  18.560   4.092  0.00  0.00    -0.307 N 
HETATM   25  H   UNK N   1      20.015  18.923   4.772  0.00  0.00     0.171 HD
BRANCH  24  26
HETATM   26  C   UNK N   1      22.031  18.558   4.314  0.00  0.00     0.132 A 
HETATM   27  C   UNK N   1      22.953  19.233   3.553  0.00  0.00     0.077 A 
HETATM   28  C   UNK N   1      24.151  19.001   4.210  0.00  0.00     0.037 A 
HETATM   29  N   UNK N   1      23.942  18.211   5.294  0.00  0.00    -0.295 N 
HETATM   30  N   UNK N   1      22.640  17.947   5.354  0.00  0.00    -0.240 N 
ATOM     31  HN  UNK N   1      24.653  17.879   5.944  1.00  0.00     0.187 HD
BRANCH  28  32
HETATM   32  C   UNK N   1      25.468  19.614   3.801  0.00  0.00    -0.007 C 
HETATM   33  C   UNK N   1      26.004  20.490   4.919  0.00  0.00     0.021 C 
HETATM   34  C   UNK N   1      25.332  20.451   2.544  0.00  0.00     0.021 C 
HETATM   35  C   UNK N   1      26.478  18.510   3.529  0.00  0.00     0.021 C 
ENDBRANCH  28  32
BRANCH  30  36
HETATM   36  C   UNK N   1      21.984  17.197   6.400  0.00  0.00     0.059 A 
HETATM   37  C   UNK N   1      20.870  17.684   7.103  0.00  0.00     0.034 A 
HETATM   38  C   UNK N   1      20.249  16.874   8.081  0.00  0.00     0.033 A 
HETATM   39  C   UNK N   1      20.719  15.569   8.321  0.00  0.00     0.042 A 
HETATM   40  C   UNK N   1      21.820  15.094   7.600  0.00  0.00    -0.007 A 
HETATM   41  N   UNK N   1      20.112  14.755   9.227  0.00  0.00    -0.365 N 
HETATM   42  C   UNK N   1      22.276  13.791   7.793  0.00  0.00     0.015 A 
HETATM   43  C   UNK N   1      22.437  15.913   6.686  0.00  0.00     0.045 A 
HETATM   44  C   UNK N   1      21.631  12.970   8.712  0.00  0.00     0.018 A 
HETATM   45  C   UNK N   1      20.545  13.477   9.435  0.00  0.00     0.088 A 
ATOM     46  HN  UNK N   1      19.318  15.107   9.763  1.00  0.00     0.165 HD
ENDBRANCH  30  36
ENDBRANCH  24  26
ENDBRANCH   1  24
BRANCH   1  47
HETATM   47  O   UNK N   1      20.083  18.796   1.769  0.00  0.00    -0.332 OA
HETATM   48  H   UNK N   1      19.572  18.578   1.015  0.00  0.00     0.220 HD
ENDBRANCH   1  47
TORSDOF 10
ENDMDL
MODEL 6
REMARK VINA RESULT:      -8.4      3.742      8.315
REMARK  10 active torsions:
REMARK  status: ('A' for Active; 'I' for Inactive)
REMARK    1  A    between atoms: N_42  and  C_19 
REMARK    2  A    between atoms: O_45  and  C_20 
REMARK    3  A    between atoms: O_45  and  C_21 
REMARK    4  A    between atoms: N_37  and  C_24 
REMARK    5  A    between atoms: C_28  and  C_25 
REMARK    6  A    between atoms: C_30  and  C_26 
REMARK    7  A    between atoms: N_39  and  C_27 
REMARK       I    between atoms: N_32  and  C_28 
REMARK    8  A    between atoms: N_37  and  C_29 
REMARK    9  A    between atoms: N_39  and  C_29 
REMARK   10  A    between atoms: O_44  and  C_29 
ROOT
HETATM    1  C   UNK N   1      28.926  15.027   3.054  0.00  0.00     0.223 C 
ENDROOT
BRANCH   1   2
HETATM    2  N   UNK N   1      27.886  14.291   3.171  0.00  0.00    -0.320 N 
ATOM      3  HN  UNK N   1      28.000  13.306   2.935  1.00  0.00     0.169 HD
BRANCH   2   4
HETATM    4  C   UNK N   1      26.600  14.690   3.590  0.00  0.00     0.074 C 
HETATM    5  C   UNK N   1      25.548  14.942   2.685  0.00  0.00     0.035 C 
HETATM    6  C   UNK N   1      24.223  14.903   3.114  0.00  0.00     0.040 C 
HETATM    7  C   UNK N   1      23.971  14.587   4.445  0.00  0.00     0.079 C 
HETATM    8  C   UNK N   1      25.027  14.501   5.367  0.00  0.00     0.081 C 
HETATM    9  C   UNK N   1      26.330  14.552   4.943  0.00  0.00     0.145 C 
HETATM   10  F   UNK N   1      27.321  14.244   5.815  0.00  0.00    -0.204 F 
BRANCH   7  11
HETATM   11  O   UNK N   1      22.810  13.986   4.777  0.00  0.00    -0.311 OA
BRANCH  11  12
HETATM   12  C   UNK N   1      21.754  14.835   4.902  0.00  0.00     0.079 A 
HETATM   13  C   UNK N   1      20.557  14.583   4.191  0.00  0.00     0.054 A 
HETATM   14  C   UNK N   1      19.402  15.285   4.513  0.00  0.00     0.091 A 
HETATM   15  N   UNK N   1      19.427  16.192   5.521  0.00  0.00    -0.361 N 
HETATM   16  C   UNK N   1      20.568  16.465   6.218  0.00  0.00     0.103 A 
ATOM     17  HN  UNK N   1      18.567  16.684   5.767  1.00  0.00     0.165 HD
HETATM   18  C   UNK N   1      21.752  15.784   5.909  0.00  0.00     0.072 A 
BRANCH  16  19
HETATM   19  C   UNK N   1      20.573  17.424   7.353  0.00  0.00     0.267 C 
HETATM   20  N   UNK N   1      20.095  17.117   8.588  0.00  0.00    -0.360 N 
HETATM   21  C   UNK N   1      19.496  15.857   8.945  0.00  0.00     0.149 C 
HETATM   22  H   UNK N   1      20.162  17.806   9.288  0.00  0.00     0.162 HD
HETATM   23  O   UNK N   1      21.035  18.540   7.169  0.00  0.00    -0.266 OA
ENDBRANCH  16  19
ENDBRANCH  11  12
ENDBRANCH   7  11
ENDBRANCH   2   4
ENDBRANCH   1   2
BRANCH   1  24
HETATM   24  N   UNK N   1      28.894  16.426   3.308  0.00  0.00    -0.307 N 
HETATM   25  H   UNK N   1      28.680  17.060   2.585  0.00  0.00     0.171 HD
BRANCH  24  26
HETATM   26  C   UNK N   1      29.175  16.900   4.619  0.00  0.00     0.132 A 
HETATM   27  C   UNK N   1      30.207  16.462   5.413  0.00  0.00     0.077 A 
HETATM   28  C   UNK N   1      30.122  17.273   6.534  0.00  0.00     0.037 A 
HETATM   29  N   UNK N   1      29.078  18.131   6.409  0.00  0.00    -0.295 N 
HETATM   30  N   UNK N   1      28.505  17.900   5.231  0.00  0.00    -0.240 N 
ATOM     31  HN  UNK N   1      28.785  18.827   7.094  1.00  0.00     0.187 HD
BRANCH  28  32
HETATM   32  C   UNK N   1      31.109  17.237   7.675  0.00  0.00    -0.007 C 
HETATM   33  C   UNK N   1      32.482  17.666   7.191  0.00  0.00     0.021 C 
HETATM   34  C   UNK N   1      31.214  15.851   8.283  0.00  0.00     0.021 C 
HETATM   35  C   UNK N   1      30.659  18.199   8.763  0.00  0.00     0.021 C 
ENDBRANCH  28  32
BRANCH  30  36
HETATM   36  C   UNK N   1      27.401  18.646   4.676  0.00  0.00     0.059 A 
HETATM   37  C   UNK N   1      27.579  19.787   3.875  0.00  0.00     0.034 A 
HETATM   38  C   UNK N   1      26.453  20.440   3.325  0.00  0.00     0.033 A 
HETATM   39  C   UNK N   1      25.160  19.926   3.543  0.00  0.00     0.042 A 
HETATM   40  C   UNK N   1      25.002  18.781   4.330  0.00  0.00    -0.007 A 
HETATM   41  N   UNK N   1      24.064  20.513   2.989  0.00  0.00    -0.365 N 
HETATM   42  C   UNK N   1      23.735  18.232   4.526  0.00  0.00     0.015 A 
HETATM   43  C   UNK N   1      26.105  18.187   4.893  0.00  0.00     0.045 A 
HETATM   44  C   UNK N   1      22.630  18.838   3.937  0.00  0.00     0.018 A 
HETATM   45  C   UNK N   1      22.813  19.995   3.172  0.00  0.00     0.088 A 
ATOM     46  HN  UNK N   1      24.178  21.357   2.427  1.00  0.00     0.165 HD
ENDBRANCH  30  36
ENDBRANCH  24  26
ENDBRANCH   1  24
BRANCH   1  47
HETATM   47  O   UNK N   1      30.058  14.444   2.630  0.00  0.00    -0.332 OA
HETATM   48  H   UNK N   1      30.269  14.342   1.723  0.00  0.00     0.220 HD
ENDBRANCH   1  47
TORSDOF 10
ENDMDL
MODEL 7
REMARK VINA RESULT:      -8.3      3.191      5.659
REMARK  10 active torsions:
REMARK  status: ('A' for Active; 'I' for Inactive)
REMARK    1  A    between atoms: N_42  and  C_19 
REMARK    2  A    between atoms: O_45  and  C_20 
REMARK    3  A    between atoms: O_45  and  C_21 
REMARK    4  A    between atoms: N_37  and  C_24 
REMARK    5  A    between atoms: C_28  and  C_25 
REMARK    6  A    between atoms: C_30  and  C_26 
REMARK    7  A    between atoms: N_39  and  C_27 
REMARK       I    between atoms: N_32  and  C_28 
REMARK    8  A    between atoms: N_37  and  C_29 
REMARK    9  A    between atoms: N_39  and  C_29 
REMARK   10  A    between atoms: O_44  and  C_29 
ROOT
HETATM    1  C   UNK N   1      33.294  17.537   6.638  0.00  0.00     0.223 C 
ENDROOT
BRANCH   1   2
HETATM    2  N   UNK N   1      32.988  17.095   7.799  0.00  0.00    -0.320 N 
ATOM      3  HN  UNK N   1      32.053  17.321   8.137  1.00  0.00     0.169 HD
BRANCH   2   4
HETATM    4  C   UNK N   1      33.799  16.331   8.663  0.00  0.00     0.074 C 
HETATM    5  C   UNK N   1      34.681  16.916   9.596  0.00  0.00     0.035 C 
HETATM    6  C   UNK N   1      35.124  16.191  10.699  0.00  0.00     0.040 C 
HETATM    7  C   UNK N   1      34.657  14.891  10.864  0.00  0.00     0.079 C 
HETATM    8  C   UNK N   1      33.914  14.269   9.847  0.00  0.00     0.081 C 
HETATM    9  C   UNK N   1      33.490  14.983   8.756  0.00  0.00     0.145 C 
HETATM   10  F   UNK N   1      32.593  14.422   7.908  0.00  0.00    -0.204 F 
BRANCH   7  11
HETATM   11  O   UNK N   1      34.562  14.371  12.104  0.00  0.00    -0.311 OA
BRANCH  11  12
HETATM   12  C   UNK N   1      35.346  13.280  12.318  0.00  0.00     0.079 A 
HETATM   13  C   UNK N   1      36.692  13.280  11.886  0.00  0.00     0.054 A 
HETATM   14  C   UNK N   1      37.560  12.290  12.329  0.00  0.00     0.091 A 
HETATM   15  N   UNK N   1      37.113  11.341  13.190  0.00  0.00    -0.361 N 
HETATM   16  C   UNK N   1      35.817  11.307  13.616  0.00  0.00     0.103 A 
ATOM     17  HN  UNK N   1      37.765  10.633  13.530  1.00  0.00     0.165 HD
HETATM   18  C   UNK N   1      34.914  12.284  13.177  0.00  0.00     0.072 A 
BRANCH  16  19
HETATM   19  C   UNK N   1      35.350  10.295  14.597  0.00  0.00     0.267 C 
HETATM   20  N   UNK N   1      35.344  10.507  15.940  0.00  0.00    -0.360 N 
HETATM   21  C   UNK N   1      35.815  11.707  16.582  0.00  0.00     0.149 C 
HETATM   22  H   UNK N   1      34.991   9.789  16.515  0.00  0.00     0.162 HD
HETATM   23  O   UNK N   1      34.946   9.220  14.177  0.00  0.00    -0.266 OA
ENDBRANCH  16  19
ENDBRANCH  11  12
ENDBRANCH   7  11
ENDBRANCH   2   4
ENDBRANCH   1   2
BRANCH   1  24
HETATM   24  N   UNK N   1      32.358  17.561   5.567  0.00  0.00    -0.307 N 
HETATM   25  H   UNK N   1      32.222  18.384   5.042  0.00  0.00     0.171 HD
BRANCH  24  26
HETATM   26  C   UNK N   1      31.620  16.384   5.264  0.00  0.00     0.132 A 
HETATM   27  C   UNK N   1      32.147  15.241   4.716  0.00  0.00     0.077 A 
HETATM   28  C   UNK N   1      31.075  14.363   4.699  0.00  0.00     0.037 A 
HETATM   29  N   UNK N   1      29.968  14.972   5.196  0.00  0.00    -0.295 N 
HETATM   30  N   UNK N   1      30.311  16.209   5.545  0.00  0.00    -0.240 N 
ATOM     31  HN  UNK N   1      29.041  14.557   5.286  1.00  0.00     0.187 HD
BRANCH  28  32
HETATM   32  C   UNK N   1      31.172  12.923   4.259  0.00  0.00    -0.007 C 
HETATM   33  C   UNK N   1      31.479  12.852   2.774  0.00  0.00     0.021 C 
HETATM   34  C   UNK N   1      29.888  12.165   4.531  0.00  0.00     0.021 C 
HETATM   35  C   UNK N   1      32.298  12.237   5.017  0.00  0.00     0.021 C 
ENDBRANCH  28  32
BRANCH  30  36
HETATM   36  C   UNK N   1      29.443  17.170   6.184  0.00  0.00     0.059 A 
HETATM   37  C   UNK N   1      29.270  17.232   7.577  0.00  0.00     0.034 A 
HETATM   38  C   UNK N   1      28.442  18.231   8.137  0.00  0.00     0.033 A 
HETATM   39  C   UNK N   1      27.827  19.187   7.307  0.00  0.00     0.042 A 
HETATM   40  C   UNK N   1      28.022  19.121   5.924  0.00  0.00    -0.007 A 
HETATM   41  N   UNK N   1      27.059  20.184   7.826  0.00  0.00    -0.365 N 
HETATM   42  C   UNK N   1      27.455  20.081   5.087  0.00  0.00     0.015 A 
HETATM   43  C   UNK N   1      28.794  18.115   5.395  0.00  0.00     0.045 A 
HETATM   44  C   UNK N   1      26.688  21.101   5.640  0.00  0.00     0.018 A 
HETATM   45  C   UNK N   1      26.491  21.132   7.025  0.00  0.00     0.088 A 
ATOM     46  HN  UNK N   1      26.904  20.223   8.834  1.00  0.00     0.165 HD
ENDBRANCH  30  36
ENDBRANCH  24  26
ENDBRANCH   1  24
BRANCH   1  47
HETATM   47  O   UNK N   1      34.559  17.939   6.437  0.00  0.00    -0.332 OA
HETATM   48  H   UNK N   1      35.204  17.401   6.022  0.00  0.00     0.220 HD
ENDBRANCH   1  47
TORSDOF 10
ENDMDL
MODEL 8
REMARK VINA RESULT:      -8.3      3.070     10.474
REMARK  10 active torsions:
REMARK  status: ('A' for Active; 'I' for Inactive)
REMARK    1  A    between atoms: N_42  and  C_19 
REMARK    2  A    between atoms: O_45  and  C_20 
REMARK    3  A    between atoms: O_45  and  C_21 
REMARK    4  A    between atoms: N_37  and  C_24 
REMARK    5  A    between atoms: C_28  and  C_25 
REMARK    6  A    between atoms: C_30  and  C_26 
REMARK    7  A    between atoms: N_39  and  C_27 
REMARK       I    between atoms: N_32  and  C_28 
REMARK    8  A    between atoms: N_37  and  C_29 
REMARK    9  A    between atoms: N_39  and  C_29 
REMARK   10  A    between atoms: O_44  and  C_29 
ROOT
HETATM    1  C   UNK N   1      34.201  16.768   9.522  0.00  0.00     0.223 C 
ENDROOT
BRANCH   1   2
HETATM    2  N   UNK N   1      33.182  17.192   8.875  0.00  0.00    -0.320 N 
ATOM      3  HN  UNK N   1      32.650  17.944   9.310  1.00  0.00     0.169 HD
BRANCH   2   4
HETATM    4  C   UNK N   1      32.712  16.733   7.627  0.00  0.00     0.074 C 
HETATM    5  C   UNK N   1      31.558  15.931   7.495  0.00  0.00     0.035 C 
HETATM    6  C   UNK N   1      30.884  15.860   6.279  0.00  0.00     0.040 C 
HETATM    7  C   UNK N   1      31.362  16.616   5.215  0.00  0.00     0.079 C 
HETATM    8  C   UNK N   1      32.598  17.277   5.312  0.00  0.00     0.081 C 
HETATM    9  C   UNK N   1      33.267  17.334   6.508  0.00  0.00     0.145 C 
HETATM   10  F   UNK N   1      34.335  18.161   6.629  0.00  0.00    -0.204 F 
BRANCH   7  11
HETATM   11  O   UNK N   1      30.507  17.043   4.265  0.00  0.00    -0.311 OA
BRANCH  11  12
HETATM   12  C   UNK N   1      29.239  17.265   4.708  0.00  0.00     0.079 A 
HETATM   13  C   UNK N   1      28.206  16.356   4.382  0.00  0.00     0.054 A 
HETATM   14  C   UNK N   1      26.986  16.431   5.041  0.00  0.00     0.091 A 
HETATM   15  N   UNK N   1      26.801  17.366   6.007  0.00  0.00    -0.361 N 
HETATM   16  C   UNK N   1      27.774  18.264   6.336  0.00  0.00     0.103 A 
ATOM     17  HN  UNK N   1      25.910  17.397   6.503  1.00  0.00     0.165 HD
HETATM   18  C   UNK N   1      29.011  18.222   5.681  0.00  0.00     0.072 A 
BRANCH  16  19
HETATM   19  C   UNK N   1      27.580  19.251   7.429  0.00  0.00     0.267 C 
HETATM   20  N   UNK N   1      27.772  18.955   8.742  0.00  0.00    -0.360 N 
HETATM   21  C   UNK N   1      28.149  17.657   9.242  0.00  0.00     0.149 C 
HETATM   22  H   UNK N   1      27.646  19.678   9.397  0.00  0.00     0.162 HD
HETATM   23  O   UNK N   1      27.236  20.386   7.135  0.00  0.00    -0.266 OA
ENDBRANCH  16  19
ENDBRANCH  11  12
ENDBRANCH   7  11
ENDBRANCH   2   4
ENDBRANCH   1   2
BRANCH   1  24
HETATM   24  N   UNK N   1      34.309  15.421   9.966  0.00  0.00    -0.307 N 
HETATM   25  H   UNK N   1      33.718  15.082  10.678  0.00  0.00     0.171 HD
BRANCH  24  26
HETATM   26  C   UNK N   1      35.281  14.570   9.372  0.00  0.00     0.132 A 
HETATM   27  C   UNK N   1      35.681  14.624   8.060  0.00  0.00     0.077 A 
HETATM   28  C   UNK N   1      36.691  13.678   7.988  0.00  0.00     0.037 A 
HETATM   29  N   UNK N   1      36.860  13.085   9.198  0.00  0.00    -0.295 N 
HETATM   30  N   UNK N   1      35.995  13.640  10.042  0.00  0.00    -0.240 N 
ATOM     31  HN  UNK N   1      37.527  12.347   9.420  1.00  0.00     0.187 HD
BRANCH  28  32
HETATM   32  C   UNK N   1      37.518  13.421   6.752  0.00  0.00    -0.007 C 
HETATM   33  C   UNK N   1      37.319  11.992   6.280  0.00  0.00     0.021 C 
HETATM   34  C   UNK N   1      38.995  13.652   7.007  0.00  0.00     0.021 C 
HETATM   35  C   UNK N   1      37.075  14.361   5.642  0.00  0.00     0.021 C 
ENDBRANCH  28  32
BRANCH  30  36
HETATM   36  C   UNK N   1      35.895  13.346  11.452  0.00  0.00     0.059 A 
HETATM   37  C   UNK N   1      36.486  14.149  12.442  0.00  0.00     0.034 A 
HETATM   38  C   UNK N   1      36.306  13.828  13.806  0.00  0.00     0.033 A 
HETATM   39  C   UNK N   1      35.502  12.732  14.175  0.00  0.00     0.042 A 
HETATM   40  C   UNK N   1      34.907  11.952  13.178  0.00  0.00    -0.007 A 
HETATM   41  N   UNK N   1      35.279  12.428  15.482  0.00  0.00    -0.365 N 
HETATM   42  C   UNK N   1      34.075  10.888  13.520  0.00  0.00     0.015 A 
HETATM   43  C   UNK N   1      35.132  12.254  11.856  0.00  0.00     0.045 A 
HETATM   44  C   UNK N   1      33.848  10.604  14.863  0.00  0.00     0.018 A 
HETATM   45  C   UNK N   1      34.471  11.387  15.841  0.00  0.00     0.088 A 
ATOM     46  HN  UNK N   1      35.725  12.988  16.210  1.00  0.00     0.165 HD
ENDBRANCH  30  36
ENDBRANCH  24  26
ENDBRANCH   1  24
BRANCH   1  47
HETATM   47  O   UNK N   1      35.164  17.655   9.820  0.00  0.00    -0.332 OA
HETATM   48  H   UNK N   1      35.479  17.791  10.691  0.00  0.00     0.220 HD
ENDBRANCH   1  47
TORSDOF 10
ENDMDL
MODEL 9
REMARK VINA RESULT:      -8.2      4.137     10.689
REMARK  10 active torsions:
REMARK  status: ('A' for Active; 'I' for Inactive)
REMARK    1  A    between atoms: N_42  and  C_19 
REMARK    2  A    between atoms: O_45  and  C_20 
REMARK    3  A    between atoms: O_45  and  C_21 
REMARK    4  A    between atoms: N_37  and  C_24 
REMARK    5  A    between atoms: C_28  and  C_25 
REMARK    6  A    between atoms: C_30  and  C_26 
REMARK    7  A    between atoms: N_39  and  C_27 
REMARK       I    between atoms: N_32  and  C_28 
REMARK    8  A    between atoms: N_37  and  C_29 
REMARK    9  A    between atoms: N_39  and  C_29 
REMARK   10  A    between atoms: O_44  and  C_29 
ROOT
HETATM    1  C   UNK N   1      28.467  14.613   3.972  0.00  0.00     0.223 C 
ENDROOT
BRANCH   1   2
HETATM    2  N   UNK N   1      27.649  13.802   3.416  0.00  0.00    -0.320 N 
ATOM      3  HN  UNK N   1      28.010  12.874   3.196  1.00  0.00     0.169 HD
BRANCH   2   4
HETATM    4  C   UNK N   1      26.303  14.048   3.073  0.00  0.00     0.074 C 
HETATM    5  C   UNK N   1      25.923  14.620   1.840  0.00  0.00     0.035 C 
HETATM    6  C   UNK N   1      24.629  14.453   1.354  0.00  0.00     0.040 C 
HETATM    7  C   UNK N   1      23.737  13.692   2.102  0.00  0.00     0.079 C 
HETATM    8  C   UNK N   1      24.077  13.269   3.398  0.00  0.00     0.081 C 
HETATM    9  C   UNK N   1      25.349  13.446   3.878  0.00  0.00     0.145 C 
HETATM   10  F   UNK N   1      25.710  12.834   5.033  0.00  0.00    -0.204 F 
BRANCH   7  11
HETATM   11  O   UNK N   1      22.741  13.032   1.478  0.00  0.00    -0.311 OA
BRANCH  11  12
HETATM   12  C   UNK N   1      21.530  13.648   1.544  0.00  0.00     0.079 A 
HETATM   13  C   UNK N   1      20.509  13.116   2.366  0.00  0.00     0.054 A 
HETATM   14  C   UNK N   1      19.378  13.874   2.640  0.00  0.00     0.091 A 
HETATM   15  N   UNK N   1      19.270  15.128   2.133  0.00  0.00    -0.361 N 
HETATM   16  C   UNK N   1      20.232  15.664   1.327  0.00  0.00     0.103 A 
ATOM     17  HN  UNK N   1      18.447  15.686   2.361  1.00  0.00     0.165 HD
HETATM   18  C   UNK N   1      21.379  14.920   1.021  0.00  0.00     0.072 A 
BRANCH  16  19
HETATM   19  C   UNK N   1      20.129  17.056   0.817  0.00  0.00     0.267 C 
HETATM   20  N   UNK N   1      19.931  18.131   1.624  0.00  0.00    -0.360 N 
HETATM   21  C   UNK N   1      19.762  18.063   3.053  0.00  0.00     0.149 C 
HETATM   22  H   UNK N   1      19.901  19.020   1.202  0.00  0.00     0.162 HD
HETATM   23  O   UNK N   1      20.232  17.244  -0.386  0.00  0.00    -0.266 OA
ENDBRANCH  16  19
ENDBRANCH  11  12
ENDBRANCH   7  11
ENDBRANCH   2   4
ENDBRANCH   1   2
BRANCH   1  24
HETATM   24  N   UNK N   1      28.977  15.756   3.294  0.00  0.00    -0.307 N 
HETATM   25  H   UNK N   1      29.584  15.649   2.526  0.00  0.00     0.171 HD
BRANCH  24  26
HETATM   26  C   UNK N   1      28.602  17.052   3.741  0.00  0.00     0.132 A 
HETATM   27  C   UNK N   1      27.387  17.647   3.506  0.00  0.00     0.077 A 
HETATM   28  C   UNK N   1      27.467  18.839   4.208  0.00  0.00     0.037 A 
HETATM   29  N   UNK N   1      28.680  18.945   4.808  0.00  0.00    -0.295 N 
HETATM   30  N   UNK N   1      29.368  17.844   4.521  0.00  0.00    -0.240 N 
ATOM     31  HN  UNK N   1      29.005  19.727   5.376  1.00  0.00     0.187 HD
BRANCH  28  32
HETATM   32  C   UNK N   1      26.327  19.822   4.332  0.00  0.00    -0.007 C 
HETATM   33  C   UNK N   1      26.677  20.899   5.342  0.00  0.00     0.021 C 
HETATM   34  C   UNK N   1      25.044  19.141   4.764  0.00  0.00     0.021 C 
HETATM   35  C   UNK N   1      26.082  20.485   2.986  0.00  0.00     0.021 C 
ENDBRANCH  28  32
BRANCH  30  36
HETATM   36  C   UNK N   1      30.683  17.523   5.025  0.00  0.00     0.059 A 
HETATM   37  C   UNK N   1      31.852  17.687   4.263  0.00  0.00     0.034 A 
HETATM   38  C   UNK N   1      33.110  17.398   4.838  0.00  0.00     0.033 A 
HETATM   39  C   UNK N   1      33.196  16.988   6.183  0.00  0.00     0.042 A 
HETATM   40  C   UNK N   1      32.024  16.845   6.932  0.00  0.00    -0.007 A 
HETATM   41  N   UNK N   1      34.399  16.744   6.771  0.00  0.00    -0.365 N 
HETATM   42  C   UNK N   1      32.088  16.479   8.275  0.00  0.00     0.015 A 
HETATM   43  C   UNK N   1      30.807  17.087   6.341  0.00  0.00     0.045 A 
HETATM   44  C   UNK N   1      33.329  16.251   8.862  0.00  0.00     0.018 A 
HETATM   45  C   UNK N   1      34.485  16.381   8.085  0.00  0.00     0.088 A 
ATOM     46  HN  UNK N   1      35.253  16.834   6.220  1.00  0.00     0.165 HD
ENDBRANCH  30  36
ENDBRANCH  24  26
ENDBRANCH   1  24
BRANCH   1  47
HETATM   47  O   UNK N   1      28.879  14.328   5.217  0.00  0.00    -0.332 OA
HETATM   48  H   UNK N   1      29.598  13.756   5.397  0.00  0.00     0.220 HD
ENDBRANCH   1  47
TORSDOF 10
ENDMDL
