MODEL 1
REMARK VINA RESULT:      -7.8      0.000      0.000
REMARK  9 active torsions:
REMARK  status: ('A' for Active; 'I' for Inactive)
REMARK    1  A    between atoms: C_2  and  C_3 
REMARK    2  A    between atoms: C_3  and  C_4 
REMARK    3  A    between atoms: C_8  and  C_11 
REMARK    4  A    between atoms: C_9  and  O_10 
REMARK    5  A    between atoms: N_12  and  N_14 
REMARK       I    between atoms: N_14  and  C_15 
REMARK    6  A    between atoms: C_15  and  C_17 
REMARK    7  A    between atoms: C_17  and  N_18 
REMARK    8  A    between atoms: N_21  and  C_24 
REMARK    9  A    between atoms: C_24  and  C_25 
ROOT
HETATM    1  N   UNK N   1      34.256  16.037  10.497  0.00  0.00    -0.269 N 
HETATM    2  C   UNK N   1      35.502  15.628  10.818  0.00  0.00     0.253 C 
HETATM    3  O   UNK N   1      36.417  16.433  10.838  0.00  0.00    -0.270 OA
HETATM    4  H   UNK N   1      34.103  16.971  10.228  0.00  0.00     0.190 HD
ENDROOT
BRANCH   1   5
HETATM    5  N   UNK N   1      33.201  15.157  10.542  0.00  0.00    -0.308 N 
HETATM    6  C   UNK N   1      32.615  14.730   9.477  0.00  0.00     0.121 C 
ATOM      7  HN  UNK N   1      32.871  14.831  11.450  1.00  0.00     0.186 HD
BRANCH   6   8
HETATM    8  C   UNK N   1      33.140  14.925   8.107  0.00  0.00     0.014 A 
HETATM    9  C   UNK N   1      33.773  13.837   7.504  0.00  0.00     0.016 A 
HETATM   10  C   UNK N   1      34.279  13.939   6.210  0.00  0.00     0.002 A 
HETATM   11  C   UNK N   1      34.160  15.135   5.505  0.00  0.00     0.010 A 
HETATM   12  C   UNK N   1      33.560  16.250   6.101  0.00  0.00    -0.021 A 
HETATM   13  C   UNK N   1      33.054  16.155   7.408  0.00  0.00     0.084 A 
BRANCH  12  14
HETATM   14  C   UNK N   1      33.438  17.525   5.325  0.00  0.00     0.067 C 
BRANCH  14  15
HETATM   15  C   UNK N   1      32.217  17.523   4.466  0.00  0.00    -0.032 C 
HETATM   16  C   UNK N   1      32.310  17.183   3.185  0.00  0.00     0.007 C 
ENDBRANCH  14  15
ENDBRANCH  12  14
BRANCH  13  17
HETATM   17  O   UNK N   1      32.513  17.243   7.984  0.00  0.00    -0.359 OA
HETATM   18  H   UNK N   1      32.851  17.595   8.783  0.00  0.00     0.217 HD
ENDBRANCH  13  17
ENDBRANCH   6   8
ENDBRANCH   1   5
BRANCH   2  19
HETATM   19  C   UNK N   1      35.742  14.159  11.072  0.00  0.00     0.221 C 
BRANCH  19  20
HETATM   20  N   UNK N   1      35.260  13.659  12.351  0.00  0.00    -0.401 N 
HETATM   21  C   UNK N   1      35.973  14.251  13.483  0.00  0.00     0.147 C 
HETATM   22  C   UNK N   1      36.869  13.257  14.215  0.00  0.00     0.292 C 
HETATM   23  N   UNK N   1      36.163  12.008  14.510  0.00  0.00     0.095 N 
HETATM   24  C   UNK N   1      35.853  11.374  13.229  0.00  0.00     0.292 C 
HETATM   25  C   UNK N   1      34.902  12.232  12.378  0.00  0.00     0.147 C 
BRANCH  23  26
HETATM   26  C   UNK N   1      34.919  12.157  15.292  0.00  0.00     0.311 C 
BRANCH  26  27
HETATM   27  C   UNK N   1      35.108  12.237  16.781  0.00  0.00    -0.030 A 
HETATM   28  C   UNK N   1      35.055  13.474  17.440  0.00  0.00     0.009 A 
HETATM   29  C   UNK N   1      35.181  13.547  18.826  0.00  0.00     0.001 A 
HETATM   30  C   UNK N   1      35.341  12.376  19.569  0.00  0.00     0.000 A 
HETATM   31  C   UNK N   1      35.372  11.136  18.922  0.00  0.00     0.001 A 
HETATM   32  C   UNK N   1      35.250  11.066  17.529  0.00  0.00     0.009 A 
ENDBRANCH  26  27
ENDBRANCH  23  26
ENDBRANCH  19  20
ENDBRANCH   2  19
TORSDOF 9
ENDMDL
MODEL 2
REMARK VINA RESULT:      -7.8      2.073      2.737
REMARK  9 active torsions:
REMARK  status: ('A' for Active; 'I' for Inactive)
REMARK    1  A    between atoms: C_2  and  C_3 
REMARK    2  A    between atoms: C_3  and  C_4 
REMARK    3  A    between atoms: C_8  and  C_11 
REMARK    4  A    between atoms: C_9  and  O_10 
REMARK    5  A    between atoms: N_12  and  N_14 
REMARK       I    between atoms: N_14  and  C_15 
REMARK    6  A    between atoms: C_15  and  C_17 
REMARK    7  A    between atoms: C_17  and  N_18 
REMARK    8  A    between atoms: N_21  and  C_24 
REMARK    9  A    between atoms: C_24  and  C_25 
ROOT
HETATM    1  N   UNK N   1      33.691  15.470   9.744  0.00  0.00    -0.269 N 
HETATM    2  C   UNK N   1      34.497  14.387   9.781  0.00  0.00     0.253 C 
HETATM    3  O   UNK N   1      34.023  13.275   9.624  0.00  0.00    -0.270 OA
HETATM    4  H   UNK N   1      32.719  15.352   9.645  0.00  0.00     0.190 HD
ENDROOT
BRANCH   1   5
HETATM    5  N   UNK N   1      34.220  16.734   9.846  0.00  0.00    -0.308 N 
HETATM    6  C   UNK N   1      34.091  17.611   8.910  0.00  0.00     0.121 C 
ATOM      7  HN  UNK N   1      34.732  16.987  10.691  1.00  0.00     0.186 HD
BRANCH   6   8
HETATM    8  C   UNK N   1      33.178  17.463   7.755  0.00  0.00     0.014 A 
HETATM    9  C   UNK N   1      33.737  17.571   6.481  0.00  0.00     0.016 A 
HETATM   10  C   UNK N   1      32.944  17.428   5.344  0.00  0.00     0.002 A 
HETATM   11  C   UNK N   1      31.579  17.178   5.470  0.00  0.00     0.010 A 
HETATM   12  C   UNK N   1      30.990  17.099   6.737  0.00  0.00    -0.021 A 
HETATM   13  C   UNK N   1      31.783  17.249   7.887  0.00  0.00     0.084 A 
BRANCH  12  14
HETATM   14  C   UNK N   1      29.522  16.825   6.852  0.00  0.00     0.067 C 
BRANCH  14  15
HETATM   15  C   UNK N   1      28.719  18.061   6.612  0.00  0.00    -0.032 C 
HETATM   16  C   UNK N   1      28.373  18.834   7.635  0.00  0.00     0.007 C 
ENDBRANCH  14  15
ENDBRANCH  12  14
BRANCH  13  17
HETATM   17  O   UNK N   1      31.200  17.208   9.098  0.00  0.00    -0.359 OA
HETATM   18  H   UNK N   1      31.599  16.768   9.822  0.00  0.00     0.217 HD
ENDBRANCH  13  17
ENDBRANCH   6   8
ENDBRANCH   1   5
BRANCH   2  19
HETATM   19  C   UNK N   1      35.961  14.580  10.093  0.00  0.00     0.221 C 
BRANCH  19  20
HETATM   20  N   UNK N   1      36.375  14.169  11.426  0.00  0.00    -0.401 N 
HETATM   21  C   UNK N   1      37.367  13.094  11.392  0.00  0.00     0.147 C 
HETATM   22  C   UNK N   1      36.827  11.760  11.899  0.00  0.00     0.292 C 
HETATM   23  N   UNK N   1      36.119  11.912  13.172  0.00  0.00     0.095 N 
HETATM   24  C   UNK N   1      34.936  12.732  12.913  0.00  0.00     0.292 C 
HETATM   25  C   UNK N   1      35.309  14.147  12.441  0.00  0.00     0.147 C 
BRANCH  23  26
HETATM   26  C   UNK N   1      36.906  12.525  14.261  0.00  0.00     0.311 C 
BRANCH  26  27
HETATM   27  C   UNK N   1      36.359  12.305  15.645  0.00  0.00    -0.030 A 
HETATM   28  C   UNK N   1      35.755  13.358  16.347  0.00  0.00     0.009 A 
HETATM   29  C   UNK N   1      35.204  13.145  17.610  0.00  0.00     0.001 A 
HETATM   30  C   UNK N   1      35.234  11.868  18.173  0.00  0.00     0.000 A 
HETATM   31  C   UNK N   1      35.815  10.807  17.469  0.00  0.00     0.001 A 
HETATM   32  C   UNK N   1      36.372  11.024  16.203  0.00  0.00     0.009 A 
ENDBRANCH  26  27
ENDBRANCH  23  26
ENDBRANCH  19  20
ENDBRANCH   2  19
TORSDOF 9
ENDMDL
MODEL 3
REMARK VINA RESULT:      -7.7      2.599      9.310
REMARK  9 active torsions:
REMARK  status: ('A' for Active; 'I' for Inactive)
REMARK    1  A    between atoms: C_2  and  C_3 
REMARK    2  A    between atoms: C_3  and  C_4 
REMARK    3  A    between atoms: C_8  and  C_11 
REMARK    4  A    between atoms: C_9  and  O_10 
REMARK    5  A    between atoms: N_12  and  N_14 
REMARK       I    between atoms: N_14  and  C_15 
REMARK    6  A    between atoms: C_15  and  C_17 
REMARK    7  A    between atoms: C_17  and  N_18 
REMARK    8  A    between atoms: N_21  and  C_24 
REMARK    9  A    between atoms: C_24  and  C_25 
ROOT
HETATM    1  N   UNK N   1      36.541  13.848  11.043  0.00  0.00    -0.269 N 
HETATM    2  C   UNK N   1      36.427  14.933  10.247  0.00  0.00     0.253 C 
HETATM    3  O   UNK N   1      36.711  16.035  10.682  0.00  0.00    -0.270 OA
HETATM    4  H   UNK N   1      36.801  13.959  11.986  0.00  0.00     0.190 HD
ENDROOT
BRANCH   1   5
HETATM    5  N   UNK N   1      36.296  12.591  10.545  0.00  0.00    -0.308 N 
HETATM    6  C   UNK N   1      36.350  11.536  11.283  0.00  0.00     0.121 C 
ATOM      7  HN  UNK N   1      36.063  12.490   9.558  1.00  0.00     0.186 HD
BRANCH   6   8
HETATM    8  C   UNK N   1      36.434  11.561  12.760  0.00  0.00     0.014 A 
HETATM    9  C   UNK N   1      37.527  10.924  13.349  0.00  0.00     0.016 A 
HETATM   10  C   UNK N   1      37.683  10.918  14.734  0.00  0.00     0.002 A 
HETATM   11  C   UNK N   1      36.742  11.548  15.546  0.00  0.00     0.010 A 
HETATM   12  C   UNK N   1      35.620  12.163  14.981  0.00  0.00    -0.021 A 
HETATM   13  C   UNK N   1      35.454  12.167  13.586  0.00  0.00     0.084 A 
BRANCH  12  14
HETATM   14  C   UNK N   1      34.622  12.838  15.871  0.00  0.00     0.067 C 
BRANCH  14  15
HETATM   15  C   UNK N   1      35.078  12.841  17.293  0.00  0.00    -0.032 C 
HETATM   16  C   UNK N   1      35.314  13.993  17.910  0.00  0.00     0.007 C 
ENDBRANCH  14  15
ENDBRANCH  12  14
BRANCH  13  17
HETATM   17  O   UNK N   1      34.353  12.728  13.056  0.00  0.00    -0.359 OA
HETATM   18  H   UNK N   1      33.728  12.225  12.574  0.00  0.00     0.217 HD
ENDBRANCH  13  17
ENDBRANCH   6   8
ENDBRANCH   1   5
BRANCH   2  19
HETATM   19  C   UNK N   1      35.874  14.757   8.853  0.00  0.00     0.221 C 
BRANCH  19  20
HETATM   20  N   UNK N   1      34.818  15.685   8.478  0.00  0.00    -0.401 N 
HETATM   21  C   UNK N   1      33.609  15.504   9.283  0.00  0.00     0.147 C 
HETATM   22  C   UNK N   1      32.439  14.931   8.489  0.00  0.00     0.292 C 
HETATM   23  N   UNK N   1      32.243  15.643   7.225  0.00  0.00     0.095 N 
HETATM   24  C   UNK N   1      33.425  15.393   6.400  0.00  0.00     0.292 C 
HETATM   25  C   UNK N   1      34.702  15.965   7.038  0.00  0.00     0.147 C 
BRANCH  23  26
HETATM   26  C   UNK N   1      32.036  17.100   7.347  0.00  0.00     0.311 C 
BRANCH  26  27
HETATM   27  C   UNK N   1      30.698  17.510   7.898  0.00  0.00    -0.030 A 
HETATM   28  C   UNK N   1      29.514  17.064   7.294  0.00  0.00     0.009 A 
HETATM   29  C   UNK N   1      28.272  17.402   7.830  0.00  0.00     0.001 A 
HETATM   30  C   UNK N   1      28.206  18.175   8.991  0.00  0.00     0.000 A 
HETATM   31  C   UNK N   1      29.384  18.606   9.612  0.00  0.00     0.001 A 
HETATM   32  C   UNK N   1      30.629  18.268   9.069  0.00  0.00     0.009 A 
ENDBRANCH  26  27
ENDBRANCH  23  26
ENDBRANCH  19  20
ENDBRANCH   2  19
TORSDOF 9
ENDMDL
MODEL 4
REMARK VINA RESULT:      -7.5      1.838      2.432
REMARK  9 active torsions:
REMARK  status: ('A' for Active; 'I' for Inactive)
REMARK    1  A    between atoms: C_2  and  C_3 
REMARK    2  A    between atoms: C_3  and  C_4 
REMARK    3  A    between atoms: C_8  and  C_11 
REMARK    4  A    between atoms: C_9  and  O_10 
REMARK    5  A    between atoms: N_12  and  N_14 
REMARK       I    between atoms: N_14  and  C_15 
REMARK    6  A    between atoms: C_15  and  C_17 
REMARK    7  A    between atoms: C_17  and  N_18 
REMARK    8  A    between atoms: N_21  and  C_24 
REMARK    9  A    between atoms: C_24  and  C_25 
ROOT
HETATM    1  N   UNK N   1      34.426  15.114   9.377  0.00  0.00    -0.269 N 
HETATM    2  C   UNK N   1      35.349  14.132   9.461  0.00  0.00     0.253 C 
HETATM    3  O   UNK N   1      35.053  12.996   9.134  0.00  0.00    -0.270 OA
HETATM    4  H   UNK N   1      33.505  14.898   9.105  0.00  0.00     0.190 HD
ENDROOT
BRANCH   1   5
HETATM    5  N   UNK N   1      34.764  16.413   9.671  0.00  0.00    -0.308 N 
HETATM    6  C   UNK N   1      34.278  17.415   9.021  0.00  0.00     0.121 C 
ATOM      7  HN  UNK N   1      35.423  16.591  10.429  1.00  0.00     0.186 HD
BRANCH   6   8
HETATM    8  C   UNK N   1      33.144  17.318   8.076  0.00  0.00     0.014 A 
HETATM    9  C   UNK N   1      31.877  17.098   8.619  0.00  0.00     0.016 A 
HETATM   10  C   UNK N   1      30.757  17.011   7.794  0.00  0.00     0.002 A 
HETATM   11  C   UNK N   1      30.894  17.139   6.414  0.00  0.00     0.010 A 
HETATM   12  C   UNK N   1      32.159  17.326   5.844  0.00  0.00    -0.021 A 
HETATM   13  C   UNK N   1      33.291  17.408   6.670  0.00  0.00     0.084 A 
BRANCH  12  14
HETATM   14  C   UNK N   1      32.284  17.465   4.358  0.00  0.00     0.067 C 
BRANCH  14  15
HETATM   15  C   UNK N   1      32.383  16.132   3.694  0.00  0.00    -0.032 C 
HETATM   16  C   UNK N   1      33.386  15.879   2.861  0.00  0.00     0.007 C 
ENDBRANCH  14  15
ENDBRANCH  12  14
BRANCH  13  17
HETATM   17  O   UNK N   1      34.505  17.550   6.108  0.00  0.00    -0.359 OA
HETATM   18  H   UNK N   1      35.078  16.820   5.985  0.00  0.00     0.217 HD
ENDBRANCH  13  17
ENDBRANCH   6   8
ENDBRANCH   1   5
BRANCH   2  19
HETATM   19  C   UNK N   1      36.708  14.458  10.032  0.00  0.00     0.221 C 
BRANCH  19  20
HETATM   20  N   UNK N   1      36.928  14.028  11.404  0.00  0.00    -0.401 N 
HETATM   21  C   UNK N   1      37.557  12.710  11.479  0.00  0.00     0.147 C 
HETATM   22  C   UNK N   1      36.626  11.628  12.019  0.00  0.00     0.292 C 
HETATM   23  N   UNK N   1      35.945  12.061  13.240  0.00  0.00     0.095 N 
HETATM   24  C   UNK N   1      35.070  13.174  12.875  0.00  0.00     0.292 C 
HETATM   25  C   UNK N   1      35.864  14.385  12.357  0.00  0.00     0.147 C 
BRANCH  23  26
HETATM   26  C   UNK N   1      36.834  12.484  14.341  0.00  0.00     0.311 C 
BRANCH  26  27
HETATM   27  C   UNK N   1      36.324  12.184  15.724  0.00  0.00    -0.030 A 
HETATM   28  C   UNK N   1      35.653  13.168  16.464  0.00  0.00     0.009 A 
HETATM   29  C   UNK N   1      35.136  12.879  17.726  0.00  0.00     0.001 A 
HETATM   30  C   UNK N   1      35.269  11.592  18.251  0.00  0.00     0.000 A 
HETATM   31  C   UNK N   1      35.918  10.598  17.509  0.00  0.00     0.001 A 
HETATM   32  C   UNK N   1      36.440  10.893  16.244  0.00  0.00     0.009 A 
ENDBRANCH  26  27
ENDBRANCH  23  26
ENDBRANCH  19  20
ENDBRANCH   2  19
TORSDOF 9
ENDMDL
MODEL 5
REMARK VINA RESULT:      -7.2      2.108     10.044
REMARK  9 active torsions:
REMARK  status: ('A' for Active; 'I' for Inactive)
REMARK    1  A    between atoms: C_2  and  C_3 
REMARK    2  A    between atoms: C_3  and  C_4 
REMARK    3  A    between atoms: C_8  and  C_11 
REMARK    4  A    between atoms: C_9  and  O_10 
REMARK    5  A    between atoms: N_12  and  N_14 
REMARK       I    between atoms: N_14  and  C_15 
REMARK    6  A    between atoms: C_15  and  C_17 
REMARK    7  A    between atoms: C_17  and  N_18 
REMARK    8  A    between atoms: N_21  and  C_24 
REMARK    9  A    between atoms: C_24  and  C_25 
ROOT
HETATM    1  N   UNK N   1      36.115  13.225  12.549  0.00  0.00    -0.269 N 
HETATM    2  C   UNK N   1      36.066  13.213  11.200  0.00  0.00     0.253 C 
HETATM    3  O   UNK N   1      35.503  12.299  10.623  0.00  0.00    -0.270 OA
HETATM    4  H   UNK N   1      35.743  12.470  13.058  0.00  0.00     0.190 HD
ENDROOT
BRANCH   1   5
HETATM    5  N   UNK N   1      36.681  14.286  13.215  0.00  0.00    -0.308 N 
HETATM    6  C   UNK N   1      36.720  14.348  14.502  0.00  0.00     0.121 C 
ATOM      7  HN  UNK N   1      37.084  15.049  12.673  1.00  0.00     0.186 HD
BRANCH   6   8
HETATM    8  C   UNK N   1      36.399  13.215  15.397  0.00  0.00     0.014 A 
HETATM    9  C   UNK N   1      35.508  13.460  16.444  0.00  0.00     0.016 A 
HETATM   10  C   UNK N   1      35.145  12.438  17.320  0.00  0.00     0.002 A 
HETATM   11  C   UNK N   1      35.674  11.159  17.160  0.00  0.00     0.010 A 
HETATM   12  C   UNK N   1      36.594  10.898  16.138  0.00  0.00    -0.021 A 
HETATM   13  C   UNK N   1      36.969  11.925  15.257  0.00  0.00     0.084 A 
BRANCH  12  14
HETATM   14  C   UNK N   1      37.147   9.515  15.980  0.00  0.00     0.067 C 
BRANCH  14  15
HETATM   15  C   UNK N   1      36.086   8.551  15.563  0.00  0.00    -0.032 C 
HETATM   16  C   UNK N   1      35.929   8.255  14.277  0.00  0.00     0.007 C 
ENDBRANCH  14  15
ENDBRANCH  12  14
BRANCH  13  17
HETATM   17  O   UNK N   1      37.882  11.672  14.303  0.00  0.00    -0.359 OA
HETATM   18  H   UNK N   1      37.643  11.596  13.400  0.00  0.00     0.217 HD
ENDBRANCH  13  17
ENDBRANCH   6   8
ENDBRANCH   1   5
BRANCH   2  19
HETATM   19  C   UNK N   1      36.782  14.302  10.437  0.00  0.00     0.221 C 
BRANCH  19  20
HETATM   20  N   UNK N   1      35.922  15.234   9.723  0.00  0.00    -0.401 N 
HETATM   21  C   UNK N   1      34.841  15.746  10.565  0.00  0.00     0.147 C 
HETATM   22  C   UNK N   1      33.463  15.234  10.154  0.00  0.00     0.292 C 
HETATM   23  N   UNK N   1      33.245  15.368   8.713  0.00  0.00     0.095 N 
HETATM   24  C   UNK N   1      34.199  14.482   8.047  0.00  0.00     0.292 C 
HETATM   25  C   UNK N   1      35.654  14.897   8.315  0.00  0.00     0.147 C 
BRANCH  23  26
HETATM   26  C   UNK N   1      33.398  16.736   8.177  0.00  0.00     0.311 C 
BRANCH  26  27
HETATM   27  C   UNK N   1      32.768  16.967   6.831  0.00  0.00    -0.030 A 
HETATM   28  C   UNK N   1      31.377  16.892   6.673  0.00  0.00     0.009 A 
HETATM   29  C   UNK N   1      30.787  17.154   5.438  0.00  0.00     0.001 A 
HETATM   30  C   UNK N   1      31.586  17.514   4.351  0.00  0.00     0.000 A 
HETATM   31  C   UNK N   1      32.973  17.612   4.505  0.00  0.00     0.001 A 
HETATM   32  C   UNK N   1      33.563  17.345   5.746  0.00  0.00     0.009 A 
ENDBRANCH  26  27
ENDBRANCH  23  26
ENDBRANCH  19  20
ENDBRANCH   2  19
TORSDOF 9
ENDMDL
MODEL 6
REMARK VINA RESULT:      -7.1      2.045      2.886
REMARK  9 active torsions:
REMARK  status: ('A' for Active; 'I' for Inactive)
REMARK    1  A    between atoms: C_2  and  C_3 
REMARK    2  A    between atoms: C_3  and  C_4 
REMARK    3  A    between atoms: C_8  and  C_11 
REMARK    4  A    between atoms: C_9  and  O_10 
REMARK    5  A    between atoms: N_12  and  N_14 
REMARK       I    between atoms: N_14  and  C_15 
REMARK    6  A    between atoms: C_15  and  C_17 
REMARK    7  A    between atoms: C_17  and  N_18 
REMARK    8  A    between atoms: N_21  and  C_24 
REMARK    9  A    between atoms: C_24  and  C_25 
ROOT
HETATM    1  N   UNK N   1      34.803  12.964   7.941  0.00  0.00    -0.269 N 
HETATM    2  C   UNK N   1      34.601  12.566   9.215  0.00  0.00     0.253 C 
HETATM    3  O   UNK N   1      33.530  12.080   9.535  0.00  0.00    -0.270 OA
HETATM    4  H   UNK N   1      34.067  12.911   7.290  0.00  0.00     0.190 HD
ENDROOT
BRANCH   1   5
HETATM    5  N   UNK N   1      36.029  13.445   7.549  0.00  0.00    -0.308 N 
HETATM    6  C   UNK N   1      36.154  14.511   6.835  0.00  0.00     0.121 C 
ATOM      7  HN  UNK N   1      36.869  12.941   7.832  1.00  0.00     0.186 HD
BRANCH   6   8
HETATM    8  C   UNK N   1      35.054  15.461   6.565  0.00  0.00     0.014 A 
HETATM    9  C   UNK N   1      34.606  15.563   5.247  0.00  0.00     0.016 A 
HETATM   10  C   UNK N   1      33.563  16.426   4.916  0.00  0.00     0.002 A 
HETATM   11  C   UNK N   1      32.956  17.200   5.904  0.00  0.00     0.010 A 
HETATM   12  C   UNK N   1      33.410  17.140   7.226  0.00  0.00    -0.021 A 
HETATM   13  C   UNK N   1      34.466  16.278   7.563  0.00  0.00     0.084 A 
BRANCH  12  14
HETATM   14  C   UNK N   1      32.743  17.978   8.273  0.00  0.00     0.067 C 
BRANCH  14  15
HETATM   15  C   UNK N   1      31.326  17.557   8.482  0.00  0.00    -0.032 C 
HETATM   16  C   UNK N   1      30.447  18.417   8.984  0.00  0.00     0.007 C 
ENDBRANCH  14  15
ENDBRANCH  12  14
BRANCH  13  17
HETATM   17  O   UNK N   1      34.919  16.256   8.830  0.00  0.00    -0.359 OA
HETATM   18  H   UNK N   1      35.282  17.019   9.235  0.00  0.00     0.217 HD
ENDBRANCH  13  17
ENDBRANCH   6   8
ENDBRANCH   1   5
BRANCH   2  19
HETATM   19  C   UNK N   1      35.691  12.804  10.233  0.00  0.00     0.221 C 
BRANCH  19  20
HETATM   20  N   UNK N   1      35.342  12.480  11.608  0.00  0.00    -0.401 N 
HETATM   21  C   UNK N   1      35.000  13.669  12.389  0.00  0.00     0.147 C 
HETATM   22  C   UNK N   1      36.035  14.005  13.459  0.00  0.00     0.292 C 
HETATM   23  N   UNK N   1      36.397  12.826  14.249  0.00  0.00     0.095 N 
HETATM   24  C   UNK N   1      37.067  11.890  13.346  0.00  0.00     0.292 C 
HETATM   25  C   UNK N   1      36.133  11.404  12.226  0.00  0.00     0.147 C 
BRANCH  23  26
HETATM   26  C   UNK N   1      35.269  12.139  14.910  0.00  0.00     0.311 C 
BRANCH  26  27
HETATM   27  C   UNK N   1      35.234  12.267  16.408  0.00  0.00    -0.030 A 
HETATM   28  C   UNK N   1      35.286  11.125  17.221  0.00  0.00     0.009 A 
HETATM   29  C   UNK N   1      35.303  11.243  18.610  0.00  0.00     0.001 A 
HETATM   30  C   UNK N   1      35.289  12.509  19.198  0.00  0.00     0.000 A 
HETATM   31  C   UNK N   1      35.259  13.654  18.393  0.00  0.00     0.001 A 
HETATM   32  C   UNK N   1      35.237  13.532  16.999  0.00  0.00     0.009 A 
ENDBRANCH  26  27
ENDBRANCH  23  26
ENDBRANCH  19  20
ENDBRANCH   2  19
TORSDOF 9
ENDMDL
MODEL 7
REMARK VINA RESULT:      -7.1      1.846      9.668
REMARK  9 active torsions:
REMARK  status: ('A' for Active; 'I' for Inactive)
REMARK    1  A    between atoms: C_2  and  C_3 
REMARK    2  A    between atoms: C_3  and  C_4 
REMARK    3  A    between atoms: C_8  and  C_11 
REMARK    4  A    between atoms: C_9  and  O_10 
REMARK    5  A    between atoms: N_12  and  N_14 
REMARK       I    between atoms: N_14  and  C_15 
REMARK    6  A    between atoms: C_15  and  C_17 
REMARK    7  A    between atoms: C_17  and  N_18 
REMARK    8  A    between atoms: N_21  and  C_24 
REMARK    9  A    between atoms: C_24  and  C_25 
ROOT
HETATM    1  N   UNK N   1      37.033  14.141  11.957  0.00  0.00    -0.269 N 
HETATM    2  C   UNK N   1      36.636  14.931  10.937  0.00  0.00     0.253 C 
HETATM    3  O   UNK N   1      36.209  16.049  11.169  0.00  0.00    -0.270 OA
HETATM    4  H   UNK N   1      36.925  14.450  12.885  0.00  0.00     0.190 HD
ENDROOT
BRANCH   1   5
HETATM    5  N   UNK N   1      37.585  12.907  11.708  0.00  0.00    -0.308 N 
HETATM    6  C   UNK N   1      37.285  11.865  12.405  0.00  0.00     0.121 C 
ATOM      7  HN  UNK N   1      38.255  12.813  10.944  1.00  0.00     0.186 HD
BRANCH   6   8
HETATM    8  C   UNK N   1      36.163  11.806  13.367  0.00  0.00     0.014 A 
HETATM    9  C   UNK N   1      35.096  10.963  13.053  0.00  0.00     0.016 A 
HETATM   10  C   UNK N   1      34.010  10.842  13.918  0.00  0.00     0.002 A 
HETATM   11  C   UNK N   1      33.978  11.568  15.106  0.00  0.00     0.010 A 
HETATM   12  C   UNK N   1      35.020  12.446  15.426  0.00  0.00    -0.021 A 
HETATM   13  C   UNK N   1      36.114  12.577  14.555  0.00  0.00     0.084 A 
BRANCH  12  14
HETATM   14  C   UNK N   1      34.968  13.215  16.710  0.00  0.00     0.067 C 
BRANCH  14  15
HETATM   15  C   UNK N   1      35.272  12.338  17.880  0.00  0.00    -0.032 C 
HETATM   16  C   UNK N   1      35.189  12.826  19.113  0.00  0.00     0.007 C 
ENDBRANCH  14  15
ENDBRANCH  12  14
BRANCH  13  17
HETATM   17  O   UNK N   1      37.092  13.451  14.855  0.00  0.00    -0.359 OA
HETATM   18  H   UNK N   1      36.945  14.173  15.434  0.00  0.00     0.217 HD
ENDBRANCH  13  17
ENDBRANCH   6   8
ENDBRANCH   1   5
BRANCH   2  19
HETATM   19  C   UNK N   1      36.662  14.375   9.533  0.00  0.00     0.221 C 
BRANCH  19  20
HETATM   20  N   UNK N   1      35.395  14.425   8.819  0.00  0.00    -0.401 N 
HETATM   21  C   UNK N   1      35.244  15.655   8.042  0.00  0.00     0.147 C 
HETATM   22  C   UNK N   1      34.176  16.591   8.600  0.00  0.00     0.292 C 
HETATM   23  N   UNK N   1      32.928  15.879   8.885  0.00  0.00     0.095 N 
HETATM   24  C   UNK N   1      33.208  14.931   9.962  0.00  0.00     0.292 C 
HETATM   25  C   UNK N   1      34.239  13.870   9.541  0.00  0.00     0.147 C 
BRANCH  23  26
HETATM   26  C   UNK N   1      32.342  15.154   7.740  0.00  0.00     0.311 C 
BRANCH  26  27
HETATM   27  C   UNK N   1      31.713  16.025   6.687  0.00  0.00    -0.030 A 
HETATM   28  C   UNK N   1      32.386  16.285   5.484  0.00  0.00     0.009 A 
HETATM   29  C   UNK N   1      31.786  17.052   4.487  0.00  0.00     0.001 A 
HETATM   30  C   UNK N   1      30.496  17.550   4.677  0.00  0.00     0.000 A 
HETATM   31  C   UNK N   1      29.810  17.277   5.866  0.00  0.00     0.001 A 
HETATM   32  C   UNK N   1      30.416  16.510   6.868  0.00  0.00     0.009 A 
ENDBRANCH  26  27
ENDBRANCH  23  26
ENDBRANCH  19  20
ENDBRANCH   2  19
TORSDOF 9
ENDMDL
MODEL 8
REMARK VINA RESULT:      -7.0      2.096     10.426
REMARK  9 active torsions:
REMARK  status: ('A' for Active; 'I' for Inactive)
REMARK    1  A    between atoms: C_2  and  C_3 
REMARK    2  A    between atoms: C_3  and  C_4 
REMARK    3  A    between atoms: C_8  and  C_11 
REMARK    4  A    between atoms: C_9  and  O_10 
REMARK    5  A    between atoms: N_12  and  N_14 
REMARK       I    between atoms: N_14  and  C_15 
REMARK    6  A    between atoms: C_15  and  C_17 
REMARK    7  A    between atoms: C_17  and  N_18 
REMARK    8  A    between atoms: N_21  and  C_24 
REMARK    9  A    between atoms: C_24  and  C_25 
ROOT
HETATM    1  N   UNK N   1      34.792  13.110  12.165  0.00  0.00    -0.269 N 
HETATM    2  C   UNK N   1      35.124  12.658  10.937  0.00  0.00     0.253 C 
HETATM    3  O   UNK N   1      34.488  11.748  10.434  0.00  0.00    -0.270 OA
HETATM    4  H   UNK N   1      34.072  12.668  12.670  0.00  0.00     0.190 HD
ENDROOT
BRANCH   1   5
HETATM    5  N   UNK N   1      35.452  14.183  12.713  0.00  0.00    -0.308 N 
HETATM    6  C   UNK N   1      36.022  14.124  13.868  0.00  0.00     0.121 C 
ATOM      7  HN  UNK N   1      35.493  15.057  12.188  1.00  0.00     0.186 HD
BRANCH   6   8
HETATM    8  C   UNK N   1      36.249  12.868  14.617  0.00  0.00     0.014 A 
HETATM    9  C   UNK N   1      37.302  12.055  14.196  0.00  0.00     0.016 A 
HETATM   10  C   UNK N   1      37.587  10.864  14.861  0.00  0.00     0.002 A 
HETATM   11  C   UNK N   1      36.818  10.472  15.954  0.00  0.00     0.010 A 
HETATM   12  C   UNK N   1      35.736  11.254  16.373  0.00  0.00    -0.021 A 
HETATM   13  C   UNK N   1      35.439  12.452  15.703  0.00  0.00     0.084 A 
BRANCH  12  14
HETATM   14  C   UNK N   1      34.924  10.817  17.553  0.00  0.00     0.067 C 
BRANCH  14  15
HETATM   15  C   UNK N   1      35.608  11.151  18.837  0.00  0.00    -0.032 C 
HETATM   16  C   UNK N   1      35.303  12.274  19.478  0.00  0.00     0.007 C 
ENDBRANCH  14  15
ENDBRANCH  12  14
BRANCH  13  17
HETATM   17  O   UNK N   1      34.374  13.176  16.091  0.00  0.00    -0.359 OA
HETATM   18  H   UNK N   1      33.637  13.306  15.528  0.00  0.00     0.217 HD
ENDBRANCH  13  17
ENDBRANCH   6   8
ENDBRANCH   1   5
BRANCH   2  19
HETATM   19  C   UNK N   1      36.332  13.246  10.248  0.00  0.00     0.221 C 
BRANCH  19  20
HETATM   20  N   UNK N   1      36.048  14.058   9.074  0.00  0.00    -0.401 N 
HETATM   21  C   UNK N   1      35.072  15.112   9.352  0.00  0.00     0.147 C 
HETATM   22  C   UNK N   1      33.728  14.883   8.666  0.00  0.00     0.292 C 
HETATM   23  N   UNK N   1      33.894  14.547   7.251  0.00  0.00     0.095 N 
HETATM   24  C   UNK N   1      34.580  13.258   7.190  0.00  0.00     0.292 C 
HETATM   25  C   UNK N   1      35.991  13.327   7.798  0.00  0.00     0.147 C 
BRANCH  23  26
HETATM   26  C   UNK N   1      34.647  15.536   6.453  0.00  0.00     0.311 C 
BRANCH  26  27
HETATM   27  C   UNK N   1      33.925  16.064   5.244  0.00  0.00    -0.030 A 
HETATM   28  C   UNK N   1      33.836  15.293   4.076  0.00  0.00     0.009 A 
HETATM   29  C   UNK N   1      33.125  15.758   2.970  0.00  0.00     0.001 A 
HETATM   30  C   UNK N   1      32.478  16.994   3.033  0.00  0.00     0.000 A 
HETATM   31  C   UNK N   1      32.544  17.759   4.203  0.00  0.00     0.001 A 
HETATM   32  C   UNK N   1      33.262  17.291   5.310  0.00  0.00     0.009 A 
ENDBRANCH  26  27
ENDBRANCH  23  26
ENDBRANCH  19  20
ENDBRANCH   2  19
TORSDOF 9
ENDMDL
MODEL 9
REMARK VINA RESULT:      -6.8      2.550      9.732
REMARK  9 active torsions:
REMARK  status: ('A' for Active; 'I' for Inactive)
REMARK    1  A    between atoms: C_2  and  C_3 
REMARK    2  A    between atoms: C_3  and  C_4 
REMARK    3  A    between atoms: C_8  and  C_11 
REMARK    4  A    between atoms: C_9  and  O_10 
REMARK    5  A    between atoms: N_12  and  N_14 
REMARK       I    between atoms: N_14  and  C_15 
REMARK    6  A    between atoms: C_15  and  C_17 
REMARK    7  A    between atoms: C_17  and  N_18 
REMARK    8  A    between atoms: N_21  and  C_24 
REMARK    9  A    between atoms: C_24  and  C_25 
ROOT
HETATM    1  N   UNK N   1      34.708  13.008  12.418  0.00  0.00    -0.269 N 
HETATM    2  C   UNK N   1      35.297  14.011  11.732  0.00  0.00     0.253 C 
HETATM    3  O   UNK N   1      35.656  15.017  12.320  0.00  0.00    -0.270 OA
HETATM    4  H   UNK N   1      34.523  13.116  13.379  0.00  0.00     0.190 HD
ENDROOT
BRANCH   1   5
HETATM    5  N   UNK N   1      34.366  11.839  11.783  0.00  0.00    -0.308 N 
HETATM    6  C   UNK N   1      34.811  10.692  12.167  0.00  0.00     0.121 C 
ATOM      7  HN  UNK N   1      33.737  11.880  10.981  1.00  0.00     0.186 HD
BRANCH   6   8
HETATM    8  C   UNK N   1      35.521  10.463  13.444  0.00  0.00     0.014 A 
HETATM    9  C   UNK N   1      36.860  10.076  13.370  0.00  0.00     0.016 A 
HETATM   10  C   UNK N   1      37.600   9.856  14.531  0.00  0.00     0.002 A 
HETATM   11  C   UNK N   1      37.005  10.019  15.780  0.00  0.00     0.010 A 
HETATM   12  C   UNK N   1      35.655  10.374  15.879  0.00  0.00    -0.021 A 
HETATM   13  C   UNK N   1      34.903  10.590  14.713  0.00  0.00     0.084 A 
BRANCH  12  14
HETATM   14  C   UNK N   1      35.036  10.548  17.232  0.00  0.00     0.067 C 
BRANCH  14  15
HETATM   15  C   UNK N   1      35.268  11.924  17.762  0.00  0.00    -0.032 C 
HETATM   16  C   UNK N   1      35.312  12.129  19.074  0.00  0.00     0.007 C 
ENDBRANCH  14  15
ENDBRANCH  12  14
BRANCH  13  17
HETATM   17  O   UNK N   1      33.597  10.893  14.820  0.00  0.00    -0.359 OA
HETATM   18  H   UNK N   1      33.016  10.387  15.353  0.00  0.00     0.217 HD
ENDBRANCH  13  17
ENDBRANCH   6   8
ENDBRANCH   1   5
BRANCH   2  19
HETATM   19  C   UNK N   1      35.427  13.889  10.233  0.00  0.00     0.221 C 
BRANCH  19  20
HETATM   20  N   UNK N   1      34.740  14.914   9.462  0.00  0.00    -0.401 N 
HETATM   21  C   UNK N   1      33.314  14.988   9.782  0.00  0.00     0.147 C 
HETATM   22  C   UNK N   1      32.417  14.508   8.645  0.00  0.00     0.292 C 
HETATM   23  N   UNK N   1      32.798  15.108   7.365  0.00  0.00     0.095 N 
HETATM   24  C   UNK N   1      34.134  14.612   7.035  0.00  0.00     0.292 C 
HETATM   25  C   UNK N   1      35.184  15.059   8.066  0.00  0.00     0.147 C 
BRANCH  23  26
HETATM   26  C   UNK N   1      32.809  16.585   7.340  0.00  0.00     0.311 C 
BRANCH  26  27
HETATM   27  C   UNK N   1      31.472  17.236   7.561  0.00  0.00    -0.030 A 
HETATM   28  C   UNK N   1      30.412  17.003   6.673  0.00  0.00     0.009 A 
HETATM   29  C   UNK N   1      29.157  17.566   6.902  0.00  0.00     0.001 A 
HETATM   30  C   UNK N   1      28.947  18.354   8.035  0.00  0.00     0.000 A 
HETATM   31  C   UNK N   1      29.994  18.573   8.938  0.00  0.00     0.001 A 
HETATM   32  C   UNK N   1      31.254  18.010   8.703  0.00  0.00     0.009 A 
ENDBRANCH  26  27
ENDBRANCH  23  26
ENDBRANCH  19  20
ENDBRANCH   2  19
TORSDOF 9
ENDMDL
