MODEL 1
REMARK VINA RESULT:      -8.4      0.000      0.000
REMARK  4 active torsions:
REMARK  status: ('A' for Active; 'I' for Inactive)
REMARK    1  A    between atoms: C_19  and  C_16 
REMARK    2  A    between atoms: N_27  and  C_16 
REMARK    3  A    between atoms: C_26  and  C_17 
REMARK    4  A    between atoms: N_28  and  C_17 
REMARK       I    between atoms: N_29  and  C_26 
ROOT
HETATM    1  C   UNK N   1      29.008  16.502   3.095  0.00  0.00     0.375 C 
ENDROOT
BRANCH   1   2
HETATM    2  C   UNK N   1      27.594  16.067   2.775  0.00  0.00     0.257 C 
HETATM    3  N   UNK N   1      26.450  16.699   3.294  0.00  0.00    -0.279 N 
HETATM    4  C   UNK N   1      26.569  17.983   3.989  0.00  0.00     0.059 A 
HETATM    5  C   UNK N   1      25.140  16.059   3.132  0.00  0.00     0.059 A 
HETATM    6  C   UNK N   1      27.792  18.692   3.980  0.00  0.00     0.031 A 
HETATM    7  C   UNK N   1      25.487  18.615   4.656  0.00  0.00     0.033 A 
HETATM    8  C   UNK N   1      27.962  19.924   4.600  0.00  0.00     0.002 A 
HETATM    9  C   UNK N   1      26.894  20.511   5.254  0.00  0.00     0.002 A 
HETATM   10  C   UNK N   1      25.668  19.859   5.278  0.00  0.00     0.021 A 
HETATM   11  S   UNK N   1      23.859  17.945   4.816  0.00  0.00    -0.086 SA
HETATM   12  C   UNK N   1      23.955  16.538   3.749  0.00  0.00     0.033 A 
HETATM   13  C   UNK N   1      22.742  15.854   3.583  0.00  0.00     0.021 A 
HETATM   14  C   UNK N   1      22.659  14.698   2.818  0.00  0.00     0.002 A 
HETATM   15  C   UNK N   1      23.797  14.206   2.206  0.00  0.00     0.002 A 
HETATM   16  C   UNK N   1      25.009  14.875   2.362  0.00  0.00     0.031 A 
HETATM   17  O   UNK N   1      27.504  15.049   2.107  0.00  0.00    -0.271 OA
ENDBRANCH   1   2
BRANCH   1  18
HETATM   18  N   UNK N   1      29.917  15.440   3.527  0.00  0.00     0.100 N 
HETATM   19  C   UNK N   1      31.230  16.102   3.505  0.00  0.00     0.303 C 
HETATM   20  C   UNK N   1      32.311  15.338   4.286  0.00  0.00     0.303 C 
HETATM   21  N   UNK N   1      31.880  15.070   5.659  0.00  0.00     0.096 N 
HETATM   22  C   UNK N   1      30.667  14.249   5.571  0.00  0.00     0.303 C 
HETATM   23  C   UNK N   1      29.543  15.023   4.883  0.00  0.00     0.303 C 
BRANCH  21  24
HETATM   24  C   UNK N   1      31.687  16.358   6.360  0.00  0.00     0.311 C 
BRANCH  24  25
HETATM   25  C   UNK N   1      32.779  16.675   7.337  0.00  0.00    -0.027 A 
HETATM   26  C   UNK N   1      33.511  17.879   7.191  0.00  0.00     0.012 A 
HETATM   27  C   UNK N   1      34.486  18.235   8.140  0.00  0.00     0.040 A 
HETATM   28  C   UNK N   1      34.692  17.363   9.204  0.00  0.00     0.105 A 
HETATM   29  C   UNK N   1      34.008  16.219   9.337  0.00  0.00     0.105 A 
HETATM   30  O   UNK N   1      35.545  17.484  10.218  0.00  0.00    -0.323 OA
HETATM   31  C   UNK N   1      33.030  15.825   8.430  0.00  0.00     0.048 A 
HETATM   32  O   UNK N   1      34.416  15.591  10.437  0.00  0.00    -0.323 OA
HETATM   33  C   UNK N   1      35.409  16.365  11.046  0.00  0.00     0.352 A 
ENDBRANCH  24  25
ENDBRANCH  21  24
ENDBRANCH   1  18
TORSDOF 4
ENDMDL
MODEL 2
REMARK VINA RESULT:      -8.4      5.393      8.725
REMARK  4 active torsions:
REMARK  status: ('A' for Active; 'I' for Inactive)
REMARK    1  A    between atoms: C_19  and  C_16 
REMARK    2  A    between atoms: N_27  and  C_16 
REMARK    3  A    between atoms: C_26  and  C_17 
REMARK    4  A    between atoms: N_28  and  C_17 
REMARK       I    between atoms: N_29  and  C_26 
ROOT
HETATM    1  C   UNK N   1      22.643  16.120   4.082  0.00  0.00     0.375 C 
ENDROOT
BRANCH   1   2
HETATM    2  C   UNK N   1      23.611  17.280   4.165  0.00  0.00     0.257 C 
HETATM    3  N   UNK N   1      24.989  17.163   3.909  0.00  0.00    -0.279 N 
HETATM    4  C   UNK N   1      25.524  15.942   3.303  0.00  0.00     0.059 A 
HETATM    5  C   UNK N   1      25.881  18.275   4.256  0.00  0.00     0.059 A 
HETATM    6  C   UNK N   1      24.652  14.953   2.794  0.00  0.00     0.031 A 
HETATM    7  C   UNK N   1      26.913  15.693   3.139  0.00  0.00     0.033 A 
HETATM    8  C   UNK N   1      25.098  13.784   2.188  0.00  0.00     0.002 A 
HETATM    9  C   UNK N   1      26.457  13.561   2.053  0.00  0.00     0.002 A 
HETATM   10  C   UNK N   1      27.353  14.512   2.524  0.00  0.00     0.021 A 
HETATM   11  S   UNK N   1      28.210  16.763   3.685  0.00  0.00    -0.086 SA
HETATM   12  C   UNK N   1      27.296  18.194   4.179  0.00  0.00     0.033 A 
HETATM   13  C   UNK N   1      28.091  19.284   4.564  0.00  0.00     0.021 A 
HETATM   14  C   UNK N   1      27.528  20.465   5.028  0.00  0.00     0.002 A 
HETATM   15  C   UNK N   1      26.152  20.573   5.116  0.00  0.00     0.002 A 
HETATM   16  C   UNK N   1      25.350  19.499   4.736  0.00  0.00     0.031 A 
HETATM   17  O   UNK N   1      23.132  18.326   4.575  0.00  0.00    -0.271 OA
ENDBRANCH   1   2
BRANCH   1  18
HETATM   18  N   UNK N   1      21.633  16.058   5.139  0.00  0.00     0.100 N 
HETATM   19  C   UNK N   1      21.000  14.750   4.913  0.00  0.00     0.303 C 
HETATM   20  C   UNK N   1      20.175  14.257   6.112  0.00  0.00     0.303 C 
HETATM   21  N   UNK N   1      20.976  14.250   7.337  0.00  0.00     0.096 N 
HETATM   22  C   UNK N   1      21.405  15.634   7.572  0.00  0.00     0.303 C 
HETATM   23  C   UNK N   1      22.309  16.117   6.440  0.00  0.00     0.303 C 
BRANCH  21  24
HETATM   24  C   UNK N   1      22.092  13.292   7.174  0.00  0.00     0.311 C 
BRANCH  24  25
HETATM   25  C   UNK N   1      22.733  12.896   8.470  0.00  0.00    -0.027 A 
HETATM   26  C   UNK N   1      24.145  12.878   8.568  0.00  0.00     0.012 A 
HETATM   27  C   UNK N   1      24.767  12.586   9.794  0.00  0.00     0.040 A 
HETATM   28  C   UNK N   1      23.943  12.319  10.883  0.00  0.00     0.105 A 
HETATM   29  C   UNK N   1      22.606  12.326  10.790  0.00  0.00     0.105 A 
HETATM   30  O   UNK N   1      24.293  12.025  12.133  0.00  0.00    -0.323 OA
HETATM   31  C   UNK N   1      21.943  12.614   9.601  0.00  0.00     0.048 A 
HETATM   32  O   UNK N   1      22.083  12.034  11.978  0.00  0.00    -0.323 OA
HETATM   33  C   UNK N   1      23.129  11.832  12.884  0.00  0.00     0.352 A 
ENDBRANCH  24  25
ENDBRANCH  21  24
ENDBRANCH   1  18
TORSDOF 4
ENDMDL
MODEL 3
REMARK VINA RESULT:      -8.3      3.911      5.088
REMARK  4 active torsions:
REMARK  status: ('A' for Active; 'I' for Inactive)
REMARK    1  A    between atoms: C_19  and  C_16 
REMARK    2  A    between atoms: N_27  and  C_16 
REMARK    3  A    between atoms: C_26  and  C_17 
REMARK    4  A    between atoms: N_28  and  C_17 
REMARK       I    between atoms: N_29  and  C_26 
ROOT
HETATM    1  C   UNK N   1      25.590  15.478   5.947  0.00  0.00     0.375 C 
ENDROOT
BRANCH   1   2
HETATM    2  C   UNK N   1      24.869  14.450   6.792  0.00  0.00     0.257 C 
HETATM    3  N   UNK N   1      23.563  14.624   7.283  0.00  0.00    -0.279 N 
HETATM    4  C   UNK N   1      22.731  15.724   6.789  0.00  0.00     0.059 A 
HETATM    5  C   UNK N   1      23.046  13.694   8.293  0.00  0.00     0.059 A 
HETATM    6  C   UNK N   1      23.152  16.500   5.685  0.00  0.00     0.031 A 
HETATM    7  C   UNK N   1      21.459  16.047   7.330  0.00  0.00     0.033 A 
HETATM    8  C   UNK N   1      22.397  17.541   5.156  0.00  0.00     0.002 A 
HETATM    9  C   UNK N   1      21.167  17.843   5.711  0.00  0.00     0.002 A 
HETATM   10  C   UNK N   1      20.705  17.098   6.788  0.00  0.00     0.021 A 
HETATM   11  S   UNK N   1      20.703  15.236   8.707  0.00  0.00    -0.086 SA
HETATM   12  C   UNK N   1      21.805  13.876   8.958  0.00  0.00     0.033 A 
HETATM   13  C   UNK N   1      21.388  12.968   9.943  0.00  0.00     0.021 A 
HETATM   14  C   UNK N   1      22.166  11.874  10.297  0.00  0.00     0.002 A 
HETATM   15  C   UNK N   1      23.381  11.671   9.667  0.00  0.00     0.002 A 
HETATM   16  C   UNK N   1      23.807  12.565   8.687  0.00  0.00     0.031 A 
HETATM   17  O   UNK N   1      25.541  13.483   7.116  0.00  0.00    -0.271 OA
ENDBRANCH   1   2
BRANCH   1  18
HETATM   18  N   UNK N   1      26.474  14.944   4.911  0.00  0.00     0.100 N 
HETATM   19  C   UNK N   1      26.514  16.030   3.920  0.00  0.00     0.303 C 
HETATM   20  C   UNK N   1      27.673  15.899   2.919  0.00  0.00     0.303 C 
HETATM   21  N   UNK N   1      28.956  15.771   3.612  0.00  0.00     0.096 N 
HETATM   22  C   UNK N   1      28.877  14.556   4.432  0.00  0.00     0.303 C 
HETATM   23  C   UNK N   1      27.794  14.698   5.501  0.00  0.00     0.303 C 
BRANCH  21  24
HETATM   24  C   UNK N   1      29.207  17.006   4.387  0.00  0.00     0.311 C 
BRANCH  24  25
HETATM   25  C   UNK N   1      30.627  17.142   4.848  0.00  0.00    -0.027 A 
HETATM   26  C   UNK N   1      31.652  17.329   3.889  0.00  0.00     0.012 A 
HETATM   27  C   UNK N   1      32.980  17.537   4.301  0.00  0.00     0.040 A 
HETATM   28  C   UNK N   1      33.231  17.548   5.670  0.00  0.00     0.105 A 
HETATM   29  C   UNK N   1      32.264  17.362   6.578  0.00  0.00     0.105 A 
HETATM   30  O   UNK N   1      34.391  17.730   6.296  0.00  0.00    -0.323 OA
HETATM   31  C   UNK N   1      30.935  17.157   6.221  0.00  0.00     0.048 A 
HETATM   32  O   UNK N   1      32.792  17.419   7.798  0.00  0.00    -0.323 OA
HETATM   33  C   UNK N   1      34.165  17.656   7.674  0.00  0.00     0.352 A 
ENDBRANCH  24  25
ENDBRANCH  21  24
ENDBRANCH   1  18
TORSDOF 4
ENDMDL
MODEL 4
REMARK VINA RESULT:      -8.2      5.725      8.673
REMARK  4 active torsions:
REMARK  status: ('A' for Active; 'I' for Inactive)
REMARK    1  A    between atoms: C_19  and  C_16 
REMARK    2  A    between atoms: N_27  and  C_16 
REMARK    3  A    between atoms: C_26  and  C_17 
REMARK    4  A    between atoms: N_28  and  C_17 
REMARK       I    between atoms: N_29  and  C_26 
ROOT
HETATM    1  C   UNK N   1      21.752  15.610   3.802  0.00  0.00     0.375 C 
ENDROOT
BRANCH   1   2
HETATM    2  C   UNK N   1      23.023  16.284   4.273  0.00  0.00     0.257 C 
HETATM    3  N   UNK N   1      23.333  17.630   4.008  0.00  0.00    -0.279 N 
HETATM    4  C   UNK N   1      22.313  18.527   3.463  0.00  0.00     0.059 A 
HETATM    5  C   UNK N   1      24.688  18.122   4.284  0.00  0.00     0.059 A 
HETATM    6  C   UNK N   1      20.964  18.111   3.377  0.00  0.00     0.031 A 
HETATM    7  C   UNK N   1      22.583  19.857   3.044  0.00  0.00     0.033 A 
HETATM    8  C   UNK N   1      19.947  18.924   2.891  0.00  0.00     0.002 A 
HETATM    9  C   UNK N   1      20.240  20.211   2.477  0.00  0.00     0.002 A 
HETATM   10  C   UNK N   1      21.548  20.670   2.556  0.00  0.00     0.021 A 
HETATM   11  S   UNK N   1      24.177  20.621   3.046  0.00  0.00    -0.086 SA
HETATM   12  C   UNK N   1      25.140  19.415   3.910  0.00  0.00     0.033 A 
HETATM   13  C   UNK N   1      26.461  19.807   4.169  0.00  0.00     0.021 A 
HETATM   14  C   UNK N   1      27.362  18.955   4.793  0.00  0.00     0.002 A 
HETATM   15  C   UNK N   1      26.951  17.688   5.168  0.00  0.00     0.002 A 
HETATM   16  C   UNK N   1      25.642  17.285   4.916  0.00  0.00     0.031 A 
HETATM   17  O   UNK N   1      23.828  15.547   4.820  0.00  0.00    -0.271 OA
ENDBRANCH   1   2
BRANCH   1  18
HETATM   18  N   UNK N   1      20.835  15.176   4.856  0.00  0.00     0.100 N 
HETATM   19  C   UNK N   1      20.962  13.711   4.820  0.00  0.00     0.303 C 
HETATM   20  C   UNK N   1      20.409  13.021   6.077  0.00  0.00     0.303 C 
HETATM   21  N   UNK N   1      21.013  13.572   7.291  0.00  0.00     0.096 N 
HETATM   22  C   UNK N   1      20.671  14.999   7.325  0.00  0.00     0.303 C 
HETATM   23  C   UNK N   1      21.292  15.729   6.135  0.00  0.00     0.303 C 
BRANCH  21  24
HETATM   24  C   UNK N   1      22.467  13.301   7.268  0.00  0.00     0.311 C 
BRANCH  24  25
HETATM   25  C   UNK N   1      23.020  12.899   8.602  0.00  0.00    -0.027 A 
HETATM   26  C   UNK N   1      24.422  12.894   8.797  0.00  0.00     0.012 A 
HETATM   27  C   UNK N   1      24.961  12.596  10.062  0.00  0.00     0.040 A 
HETATM   28  C   UNK N   1      24.066  12.313  11.089  0.00  0.00     0.105 A 
HETATM   29  C   UNK N   1      22.739  12.308  10.903  0.00  0.00     0.105 A 
HETATM   30  O   UNK N   1      24.332  12.012  12.357  0.00  0.00    -0.323 OA
HETATM   31  C   UNK N   1      22.157  12.600   9.673  0.00  0.00     0.048 A 
HETATM   32  O   UNK N   1      22.138  12.001  12.050  0.00  0.00    -0.323 OA
HETATM   33  C   UNK N   1      23.121  11.800  13.024  0.00  0.00     0.352 A 
ENDBRANCH  24  25
ENDBRANCH  21  24
ENDBRANCH   1  18
TORSDOF 4
ENDMDL
MODEL 5
REMARK VINA RESULT:      -8.2      4.096      6.956
REMARK  4 active torsions:
REMARK  status: ('A' for Active; 'I' for Inactive)
REMARK    1  A    between atoms: C_19  and  C_16 
REMARK    2  A    between atoms: N_27  and  C_16 
REMARK    3  A    between atoms: C_26  and  C_17 
REMARK    4  A    between atoms: N_28  and  C_17 
REMARK       I    between atoms: N_29  and  C_26 
ROOT
HETATM    1  C   UNK N   1      33.329  16.744   8.567  0.00  0.00     0.375 C 
ENDROOT
BRANCH   1   2
HETATM    2  C   UNK N   1      32.963  16.929   7.111  0.00  0.00     0.257 C 
HETATM    3  N   UNK N   1      31.639  17.020   6.647  0.00  0.00    -0.279 N 
HETATM    4  C   UNK N   1      30.537  17.186   7.597  0.00  0.00     0.059 A 
HETATM    5  C   UNK N   1      31.376  16.946   5.206  0.00  0.00     0.059 A 
HETATM    6  C   UNK N   1      30.799  17.450   8.961  0.00  0.00     0.031 A 
HETATM    7  C   UNK N   1      29.168  17.150   7.221  0.00  0.00     0.033 A 
HETATM    8  C   UNK N   1      29.797  17.640   9.905  0.00  0.00     0.002 A 
HETATM    9  C   UNK N   1      28.471  17.586   9.514  0.00  0.00     0.002 A 
HETATM   10  C   UNK N   1      28.164  17.345   8.182  0.00  0.00     0.021 A 
HETATM   11  S   UNK N   1      28.569  16.840   5.587  0.00  0.00    -0.086 SA
HETATM   12  C   UNK N   1      30.070  16.874   4.653  0.00  0.00     0.033 A 
HETATM   13  C   UNK N   1      29.891  16.765   3.266  0.00  0.00     0.021 A 
HETATM   14  C   UNK N   1      30.972  16.725   2.396  0.00  0.00     0.002 A 
HETATM   15  C   UNK N   1      32.257  16.790   2.905  0.00  0.00     0.002 A 
HETATM   16  C   UNK N   1      32.449  16.899   4.280  0.00  0.00     0.031 A 
HETATM   17  O   UNK N   1      33.903  16.891   6.331  0.00  0.00    -0.271 OA
ENDBRANCH   1   2
BRANCH   1  18
HETATM   18  N   UNK N   1      34.715  16.354   8.830  0.00  0.00     0.100 N 
HETATM   19  C   UNK N   1      34.931  16.817  10.209  0.00  0.00     0.303 C 
HETATM   20  C   UNK N   1      36.167  16.193  10.875  0.00  0.00     0.303 C 
HETATM   21  N   UNK N   1      36.119  14.731  10.813  0.00  0.00     0.096 N 
HETATM   22  C   UNK N   1      36.092  14.368   9.391  0.00  0.00     0.303 C 
HETATM   23  C   UNK N   1      34.821  14.895   8.725  0.00  0.00     0.303 C 
BRANCH  21  24
HETATM   24  C   UNK N   1      34.945  14.258  11.579  0.00  0.00     0.311 C 
BRANCH  24  25
HETATM   25  C   UNK N   1      35.306  13.584  12.868  0.00  0.00    -0.027 A 
HETATM   26  C   UNK N   1      36.207  14.223  13.754  0.00  0.00     0.012 A 
HETATM   27  C   UNK N   1      36.500  13.648  15.003  0.00  0.00     0.040 A 
HETATM   28  C   UNK N   1      35.875  12.445  15.317  0.00  0.00     0.105 A 
HETATM   29  C   UNK N   1      35.030  11.835  14.476  0.00  0.00     0.105 A 
HETATM   30  O   UNK N   1      35.987  11.721  16.427  0.00  0.00    -0.323 OA
HETATM   31  C   UNK N   1      34.704  12.365  13.231  0.00  0.00     0.048 A 
HETATM   32  O   UNK N   1      34.592  10.710  15.035  0.00  0.00    -0.323 OA
HETATM   33  C   UNK N   1      35.179  10.587  16.299  0.00  0.00     0.352 A 
ENDBRANCH  24  25
ENDBRANCH  21  24
ENDBRANCH   1  18
TORSDOF 4
ENDMDL
MODEL 6
REMARK VINA RESULT:      -8.0      3.585      9.571
REMARK  4 active torsions:
REMARK  status: ('A' for Active; 'I' for Inactive)
REMARK    1  A    between atoms: C_19  and  C_16 
REMARK    2  A    between atoms: N_27  and  C_16 
REMARK    3  A    between atoms: C_26  and  C_17 
REMARK    4  A    between atoms: N_28  and  C_17 
REMARK       I    between atoms: N_29  and  C_26 
ROOT
HETATM    1  C   UNK N   1      28.543  16.595   4.742  0.00  0.00     0.375 C 
ENDROOT
BRANCH   1   2
HETATM    2  C   UNK N   1      29.958  16.095   4.941  0.00  0.00     0.257 C 
HETATM    3  N   UNK N   1      30.771  16.475   6.023  0.00  0.00    -0.279 N 
HETATM    4  C   UNK N   1      30.194  17.195   7.161  0.00  0.00     0.059 A 
HETATM    5  C   UNK N   1      32.200  16.143   5.999  0.00  0.00     0.059 A 
HETATM    6  C   UNK N   1      28.793  17.347   7.278  0.00  0.00     0.031 A 
HETATM    7  C   UNK N   1      30.970  17.730   8.224  0.00  0.00     0.033 A 
HETATM    8  C   UNK N   1      28.185  17.999   8.344  0.00  0.00     0.002 A 
HETATM    9  C   UNK N   1      28.965  18.522   9.359  0.00  0.00     0.002 A 
HETATM   10  C   UNK N   1      30.346  18.384   9.296  0.00  0.00     0.021 A 
HETATM   11  S   UNK N   1      32.734  17.677   8.323  0.00  0.00    -0.086 SA
HETATM   12  C   UNK N   1      33.128  16.614   6.966  0.00  0.00     0.033 A 
HETATM   13  C   UNK N   1      34.488  16.290   6.860  0.00  0.00     0.021 A 
HETATM   14  C   UNK N   1      34.969  15.506   5.820  0.00  0.00     0.002 A 
HETATM   15  C   UNK N   1      34.089  15.035   4.861  0.00  0.00     0.002 A 
HETATM   16  C   UNK N   1      32.736  15.349   4.954  0.00  0.00     0.031 A 
HETATM   17  O   UNK N   1      30.397  15.409   4.032  0.00  0.00    -0.271 OA
ENDBRANCH   1   2
BRANCH   1  18
HETATM   18  N   UNK N   1      27.619  15.653   4.110  0.00  0.00     0.100 N 
HETATM   19  C   UNK N   1      26.826  15.157   5.246  0.00  0.00     0.303 C 
HETATM   20  C   UNK N   1      25.527  14.454   4.821  0.00  0.00     0.303 C 
HETATM   21  N   UNK N   1      24.722  15.312   3.951  0.00  0.00     0.096 N 
HETATM   22  C   UNK N   1      25.536  15.596   2.763  0.00  0.00     0.303 C 
HETATM   23  C   UNK N   1      26.789  16.383   3.146  0.00  0.00     0.303 C 
BRANCH  21  24
HETATM   24  C   UNK N   1      24.318  16.517   4.708  0.00  0.00     0.311 C 
BRANCH  24  25
HETATM   25  C   UNK N   1      23.183  17.265   4.077  0.00  0.00    -0.027 A 
HETATM   26  C   UNK N   1      22.021  16.558   3.683  0.00  0.00     0.012 A 
HETATM   27  C   UNK N   1      20.914  17.249   3.161  0.00  0.00     0.040 A 
HETATM   28  C   UNK N   1      21.015  18.632   3.052  0.00  0.00     0.105 A 
HETATM   29  C   UNK N   1      22.117  19.302   3.415  0.00  0.00     0.105 A 
HETATM   30  O   UNK N   1      20.108  19.494   2.598  0.00  0.00    -0.323 OA
HETATM   31  C   UNK N   1      23.237  18.665   3.941  0.00  0.00     0.048 A 
HETATM   32  O   UNK N   1      21.932  20.601   3.196  0.00  0.00    -0.323 OA
HETATM   33  C   UNK N   1      20.649  20.782   2.670  0.00  0.00     0.352 A 
ENDBRANCH  24  25
ENDBRANCH  21  24
ENDBRANCH   1  18
TORSDOF 4
ENDMDL
MODEL 7
REMARK VINA RESULT:      -8.0      6.339     12.268
REMARK  4 active torsions:
REMARK  status: ('A' for Active; 'I' for Inactive)
REMARK    1  A    between atoms: C_19  and  C_16 
REMARK    2  A    between atoms: N_27  and  C_16 
REMARK    3  A    between atoms: C_26  and  C_17 
REMARK    4  A    between atoms: N_28  and  C_17 
REMARK       I    between atoms: N_29  and  C_26 
ROOT
HETATM    1  C   UNK N   1      36.111  14.403  11.864  0.00  0.00     0.375 C 
ENDROOT
BRANCH   1   2
HETATM    2  C   UNK N   1      36.170  14.145  13.353  0.00  0.00     0.257 C 
HETATM    3  N   UNK N   1      35.809  12.921  13.945  0.00  0.00    -0.279 N 
HETATM    4  C   UNK N   1      35.585  11.738  13.112  0.00  0.00     0.059 A 
HETATM    5  C   UNK N   1      35.659  12.845  15.403  0.00  0.00     0.059 A 
HETATM    6  C   UNK N   1      35.913  11.757  11.737  0.00  0.00     0.031 A 
HETATM    7  C   UNK N   1      35.089  10.507  13.617  0.00  0.00     0.033 A 
HETATM    8  C   UNK N   1      35.746  10.661  10.899  0.00  0.00     0.002 A 
HETATM    9  C   UNK N   1      35.248   9.478  11.415  0.00  0.00     0.002 A 
HETATM   10  C   UNK N   1      34.926   9.406  12.764  0.00  0.00     0.021 A 
HETATM   11  S   UNK N   1      34.604  10.216  15.291  0.00  0.00    -0.086 SA
HETATM   12  C   UNK N   1      35.152  11.703  16.077  0.00  0.00     0.033 A 
HETATM   13  C   UNK N   1      34.998  11.712  17.471  0.00  0.00     0.021 A 
HETATM   14  C   UNK N   1      35.333  12.824  18.231  0.00  0.00     0.002 A 
HETATM   15  C   UNK N   1      35.827  13.953  17.602  0.00  0.00     0.002 A 
HETATM   16  C   UNK N   1      35.986  13.958  16.218  0.00  0.00     0.031 A 
HETATM   17  O   UNK N   1      36.458  15.115  14.037  0.00  0.00    -0.271 OA
ENDBRANCH   1   2
BRANCH   1  18
HETATM   18  N   UNK N   1      35.026  15.275  11.412  0.00  0.00     0.100 N 
HETATM   19  C   UNK N   1      35.735  16.317  10.654  0.00  0.00     0.303 C 
HETATM   20  C   UNK N   1      34.812  17.142   9.743  0.00  0.00     0.303 C 
HETATM   21  N   UNK N   1      34.039  16.276   8.851  0.00  0.00     0.096 N 
HETATM   22  C   UNK N   1      33.229  15.401   9.707  0.00  0.00     0.303 C 
HETATM   23  C   UNK N   1      34.124  14.499  10.555  0.00  0.00     0.303 C 
BRANCH  21  24
HETATM   24  C   UNK N   1      34.972  15.552   7.960  0.00  0.00     0.311 C 
BRANCH  24  25
HETATM   25  C   UNK N   1      34.559  15.576   6.519  0.00  0.00    -0.027 A 
HETATM   26  C   UNK N   1      34.912  14.491   5.680  0.00  0.00     0.012 A 
HETATM   27  C   UNK N   1      34.469  14.455   4.345  0.00  0.00     0.040 A 
HETATM   28  C   UNK N   1      33.686  15.515   3.901  0.00  0.00     0.105 A 
HETATM   29  C   UNK N   1      33.360  16.547   4.691  0.00  0.00     0.105 A 
HETATM   30  O   UNK N   1      33.151  15.700   2.697  0.00  0.00    -0.323 OA
HETATM   31  C   UNK N   1      33.768  16.628   6.019  0.00  0.00     0.048 A 
HETATM   32  O   UNK N   1      32.614  17.407   4.003  0.00  0.00    -0.323 OA
HETATM   33  C   UNK N   1      32.447  16.908   2.707  0.00  0.00     0.352 A 
ENDBRANCH  24  25
ENDBRANCH  21  24
ENDBRANCH   1  18
TORSDOF 4
ENDMDL
MODEL 8
REMARK VINA RESULT:      -8.0      2.757      4.512
REMARK  4 active torsions:
REMARK  status: ('A' for Active; 'I' for Inactive)
REMARK    1  A    between atoms: C_19  and  C_16 
REMARK    2  A    between atoms: N_27  and  C_16 
REMARK    3  A    between atoms: C_26  and  C_17 
REMARK    4  A    between atoms: N_28  and  C_17 
REMARK       I    between atoms: N_29  and  C_26 
ROOT
HETATM    1  C   UNK N   1      25.553  17.643   5.046  0.00  0.00     0.375 C 
ENDROOT
BRANCH   1   2
HETATM    2  C   UNK N   1      24.260  18.289   4.599  0.00  0.00     0.257 C 
HETATM    3  N   UNK N   1      23.021  17.624   4.590  0.00  0.00    -0.279 N 
HETATM    4  C   UNK N   1      22.877  16.327   5.255  0.00  0.00     0.059 A 
HETATM    5  C   UNK N   1      21.879  18.244   3.910  0.00  0.00     0.059 A 
HETATM    6  C   UNK N   1      23.914  15.820   6.071  0.00  0.00     0.031 A 
HETATM    7  C   UNK N   1      21.702  15.533   5.175  0.00  0.00     0.033 A 
HETATM    8  C   UNK N   1      23.828  14.608   6.745  0.00  0.00     0.002 A 
HETATM    9  C   UNK N   1      22.677  13.848   6.639  0.00  0.00     0.002 A 
HETATM   10  C   UNK N   1      21.625  14.312   5.861  0.00  0.00     0.021 A 
HETATM   11  S   UNK N   1      20.265  15.934   4.228  0.00  0.00    -0.086 SA
HETATM   12  C   UNK N   1      20.635  17.586   3.715  0.00  0.00     0.033 A 
HETATM   13  C   UNK N   1      19.597  18.223   3.020  0.00  0.00     0.021 A 
HETATM   14  C   UNK N   1      19.747  19.503   2.505  0.00  0.00     0.002 A 
HETATM   15  C   UNK N   1      20.947  20.169   2.677  0.00  0.00     0.002 A 
HETATM   16  C   UNK N   1      21.987  19.548   3.365  0.00  0.00     0.031 A 
HETATM   17  O   UNK N   1      24.375  19.414   4.139  0.00  0.00    -0.271 OA
ENDBRANCH   1   2
BRANCH   1  18
HETATM   18  N   UNK N   1      26.699  17.830   4.156  0.00  0.00     0.100 N 
HETATM   19  C   UNK N   1      27.654  18.566   4.998  0.00  0.00     0.303 C 
HETATM   20  C   UNK N   1      29.089  18.552   4.448  0.00  0.00     0.303 C 
HETATM   21  N   UNK N   1      29.548  17.184   4.205  0.00  0.00     0.096 N 
HETATM   22  C   UNK N   1      28.636  16.600   3.213  0.00  0.00     0.303 C 
HETATM   23  C   UNK N   1      27.217  16.512   3.773  0.00  0.00     0.303 C 
BRANCH  21  24
HETATM   24  C   UNK N   1      29.584  16.455   5.492  0.00  0.00     0.311 C 
BRANCH  24  25
HETATM   25  C   UNK N   1      30.622  16.974   6.442  0.00  0.00    -0.027 A 
HETATM   26  C   UNK N   1      30.272  17.193   7.797  0.00  0.00     0.012 A 
HETATM   27  C   UNK N   1      31.248  17.604   8.722  0.00  0.00     0.040 A 
HETATM   28  C   UNK N   1      32.544  17.784   8.250  0.00  0.00     0.105 A 
HETATM   29  C   UNK N   1      32.873  17.587   6.966  0.00  0.00     0.105 A 
HETATM   30  O   UNK N   1      33.626  18.159   8.927  0.00  0.00    -0.323 OA
HETATM   31  C   UNK N   1      31.947  17.175   6.013  0.00  0.00     0.048 A 
HETATM   32  O   UNK N   1      34.170  17.836   6.803  0.00  0.00    -0.323 OA
HETATM   33  C   UNK N   1      34.707  18.209   8.040  0.00  0.00     0.352 A 
ENDBRANCH  24  25
ENDBRANCH  21  24
ENDBRANCH   1  18
TORSDOF 4
ENDMDL
MODEL 9
REMARK VINA RESULT:      -8.0      6.638     13.025
REMARK  4 active torsions:
REMARK  status: ('A' for Active; 'I' for Inactive)
REMARK    1  A    between atoms: C_19  and  C_16 
REMARK    2  A    between atoms: N_27  and  C_16 
REMARK    3  A    between atoms: C_26  and  C_17 
REMARK    4  A    between atoms: N_28  and  C_17 
REMARK       I    between atoms: N_29  and  C_26 
ROOT
HETATM    1  C   UNK N   1      35.289  12.953  12.668  0.00  0.00     0.375 C 
ENDROOT
BRANCH   1   2
HETATM    2  C   UNK N   1      35.458  13.024  14.170  0.00  0.00     0.257 C 
HETATM    3  N   UNK N   1      35.535  11.890  14.999  0.00  0.00    -0.279 N 
HETATM    4  C   UNK N   1      35.704  10.559  14.411  0.00  0.00     0.059 A 
HETATM    5  C   UNK N   1      35.444  12.056  16.453  0.00  0.00     0.059 A 
HETATM    6  C   UNK N   1      35.982  10.414  13.033  0.00  0.00     0.031 A 
HETATM    7  C   UNK N   1      35.654   9.358  15.166  0.00  0.00     0.033 A 
HETATM    8  C   UNK N   1      36.175   9.181  12.421  0.00  0.00     0.002 A 
HETATM    9  C   UNK N   1      36.109   8.026  13.178  0.00  0.00     0.002 A 
HETATM   10  C   UNK N   1      35.852   8.118  14.540  0.00  0.00     0.021 A 
HETATM   11  S   UNK N   1      35.323   9.259  16.900  0.00  0.00    -0.086 SA
HETATM   12  C   UNK N   1      35.359  10.966  17.360  0.00  0.00     0.033 A 
HETATM   13  C   UNK N   1      35.235  11.197  18.737  0.00  0.00     0.021 A 
HETATM   14  C   UNK N   1      35.193  12.484  19.257  0.00  0.00     0.002 A 
HETATM   15  C   UNK N   1      35.272  13.566  18.398  0.00  0.00     0.002 A 
HETATM   16  C   UNK N   1      35.396  13.351  17.028  0.00  0.00     0.031 A 
HETATM   17  O   UNK N   1      35.418  14.149  14.644  0.00  0.00    -0.271 OA
ENDBRANCH   1   2
BRANCH   1  18
HETATM   18  N   UNK N   1      36.036  13.946  11.897  0.00  0.00     0.100 N 
HETATM   19  C   UNK N   1      36.316  13.243  10.636  0.00  0.00     0.303 C 
HETATM   20  C   UNK N   1      36.744  14.181   9.496  0.00  0.00     0.303 C 
HETATM   21  N   UNK N   1      35.764  15.250   9.296  0.00  0.00     0.096 N 
HETATM   22  C   UNK N   1      35.697  16.005  10.554  0.00  0.00     0.303 C 
HETATM   23  C   UNK N   1      35.179  15.118  11.686  0.00  0.00     0.303 C 
BRANCH  21  24
HETATM   24  C   UNK N   1      34.477  14.649   8.884  0.00  0.00     0.311 C 
BRANCH  24  25
HETATM   25  C   UNK N   1      33.709  15.492   7.911  0.00  0.00    -0.027 A 
HETATM   26  C   UNK N   1      34.411  16.386   7.066  0.00  0.00     0.012 A 
HETATM   27  C   UNK N   1      33.721  17.130   6.092  0.00  0.00     0.040 A 
HETATM   28  C   UNK N   1      32.344  16.948   6.004  0.00  0.00     0.105 A 
HETATM   29  C   UNK N   1      31.678  16.110   6.810  0.00  0.00     0.105 A 
HETATM   30  O   UNK N   1      31.486  17.528   5.169  0.00  0.00    -0.323 OA
HETATM   31  C   UNK N   1      32.315  15.349   7.785  0.00  0.00     0.048 A 
HETATM   32  O   UNK N   1      30.384  16.144   6.503  0.00  0.00    -0.323 OA
HETATM   33  C   UNK N   1      30.204  17.044   5.447  0.00  0.00     0.352 A 
ENDBRANCH  24  25
ENDBRANCH  21  24
ENDBRANCH   1  18
TORSDOF 4
ENDMDL
