REMARK  6 active torsions:
REMARK  status: ('A' for Active; 'I' for Inactive)
REMARK    1  A    between atoms: C_4  and  O_38 
REMARK    2  A    between atoms: C_5  and  O_37 
REMARK    3  A    between atoms: C_9  and  O_31 
REMARK    4  A    between atoms: C_10  and  O_29 
REMARK    5  A    between atoms: C_22  and  N_27 
REMARK    6  A    between atoms: O_31  and  C_32 
REMARK       I    between atoms: C_32  and  N_34 
ROOT
HETATM    1  C   UNK N   1       2.137   1.113   1.844  0.00  0.00     0.010 C 
HETATM    2  C   UNK N   1       1.646   1.723   0.539  0.00  0.00    -0.012 C 
HETATM    3  C   UNK N   1       2.683   2.613  -0.167  0.00  0.00     0.039 C 
HETATM    4  C   UNK N   1       4.114   2.049  -0.287  0.00  0.00     0.150 C 
HETATM    5  C   UNK N   1       4.195   0.618  -0.869  0.00  0.00     0.154 C 
HETATM    6  C   UNK N   1       5.532  -0.134  -0.703  0.00  0.00     0.035 C 
HETATM    7  C   UNK N   1       5.680  -0.689   0.691  0.00  0.00    -0.015 C 
HETATM    8  C   UNK N   1       6.157  -1.911   1.025  0.00  0.00    -0.055 C 
HETATM    9  C   UNK N   1       6.671  -2.943   0.011  0.00  0.00     0.194 C 
HETATM   10  C   UNK N   1       7.299  -4.210   0.674  0.00  0.00     0.177 C 
HETATM   11  C   UNK N   1       7.170  -5.551  -0.027  0.00  0.00     0.008 C 
HETATM   12  C   UNK N   1       6.007  -6.143  -0.313  0.00  0.00    -0.001 C 
HETATM   13  C   UNK N   1       4.712  -5.501  -0.049  0.00  0.00     0.012 C 
HETATM   14  C   UNK N   1       3.535  -6.111  -0.260  0.00  0.00     0.006 C 
HETATM   15  C   UNK N   1       2.286  -5.338  -0.094  0.00  0.00     0.251 C 
HETATM   16  O   UNK N   1       1.211  -5.856  -0.370  0.00  0.00    -0.268 OA
HETATM   17  N   UNK N   1       2.360  -4.026   0.249  0.00  0.00    -0.320 N 
HETATM   18  C   UNK N   1       1.291  -3.083   0.261  0.00  0.00     0.090 C 
HETATM   19  C   UNK N   1       0.001  -3.452   0.176  0.00  0.00     0.090 C 
HETATM   20  C   UNK N   1      -1.057  -2.430   0.033  0.00  0.00     0.201 C 
HETATM   21  O   UNK N   1      -2.228  -2.774  -0.002  0.00  0.00    -0.286 OA
HETATM   22  C   UNK N   1      -0.685  -1.007  -0.181  0.00  0.00     0.086 C 
HETATM   23  C   UNK N   1       0.611  -0.631  -0.102  0.00  0.00     0.025 C 
HETATM   24  C   UNK N   1       1.017   0.775  -0.482  0.00  0.00     0.049 C 
HETATM   25  C   UNK N   1       1.642  -1.654   0.216  0.00  0.00     0.207 C 
HETATM   26  O   UNK N   1       2.805  -1.331   0.372  0.00  0.00    -0.285 OA
HETATM   27  C   UNK N   1       3.478  -7.522  -0.763  0.00  0.00     0.054 C 
HETATM   28  C   UNK N   1       6.179  -2.248   2.482  0.00  0.00     0.046 C 
HETATM   29  C   UNK N   1       6.702   0.764  -1.067  0.00  0.00     0.017 C 
HETATM   30  H   UNK N   1       3.246  -3.691   0.519  0.00  0.00     0.169 HD
ENDROOT
BRANCH   9  31
HETATM   31  O   UNK N   1       7.488  -2.397  -0.970  0.00  0.00    -0.291 OA
BRANCH  31  32
HETATM   32  C   UNK N   1       8.586  -1.619  -0.761  0.00  0.00     0.359 C 
HETATM   33  O   UNK N   1       9.225  -1.218  -1.718  0.00  0.00    -0.239 OA
HETATM   34  N   UNK N   1       8.955  -1.247   0.484  0.00  0.00    -0.346 N 
HETATM   35  H   UNK N   1       9.324  -1.344   1.392  0.00  0.00     0.161 HD
HETATM   36  H   UNK N   1       8.696  -0.297   0.484  0.00  0.00     0.161 HD
ENDBRANCH  31  32
ENDBRANCH   9  31
BRANCH  10  37
HETATM   37  O   UNK N   1       8.560  -4.003   1.284  0.00  0.00    -0.384 OA
HETATM   38  C   UNK N   1       9.584  -4.247   0.349  0.00  0.00     0.202 C 
ENDBRANCH  10  37
BRANCH   5  39
HETATM   39  O   UNK N   1       3.820   0.635  -2.213  0.00  0.00    -0.392 OA
HETATM   40  H   UNK N   1       3.700   0.866  -3.147  0.00  0.00     0.210 HD
ENDBRANCH   5  39
BRANCH   4  41
HETATM   41  O   UNK N   1       4.790   2.188   0.927  0.00  0.00    -0.388 OA
HETATM   42  C   UNK N   1       5.619   3.299   0.736  0.00  0.00     0.202 C 
ENDBRANCH   4  41
BRANCH  22  43
HETATM   43  N   UNK N   1      -1.687  -0.065  -0.516  0.00  0.00    -0.395 N 
HETATM   44  H   UNK N   1      -1.468   0.866  -0.749  0.00  0.00     0.156 HD
HETATM   45  H   UNK N   1      -2.630  -0.349  -0.516  0.00  0.00     0.156 HD
ENDBRANCH  22  43
TORSDOF 6
