REMARK  4 active torsions:
REMARK  status: ('A' for Active; 'I' for Inactive)
REMARK    1  A    between atoms: C_12  and  C_9 
REMARK    2  A    between atoms: N_17  and  C_9 
REMARK    3  A    between atoms: O_18  and  C_12 
REMARK    4  A    between atoms: N_15  and  C_14 
ROOT
HETATM    1  C   UNK N   1       1.049   4.588  -0.211  0.00  0.00     0.134 C 
HETATM    2  N   UNK N   1       0.133   5.232   0.432  0.00  0.00    -0.338 N 
ATOM      3  HN  UNK N   1      -0.422   4.710   1.111  1.00  0.00     0.168 HD
ENDROOT
BRANCH   1   4
HETATM    4  C   UNK N   1       1.347   3.172   0.183  0.00  0.00     0.209 C 
BRANCH   4   5
HETATM    5  N   UNK N   1       2.726   2.805  -0.076  0.00  0.00    -0.345 N 
HETATM    6  C   UNK N   1       3.076   1.639  -0.822  0.00  0.00     0.127 A 
HETATM    7  C   UNK N   1       4.618   1.621  -0.801  0.00  0.00     0.029 A 
HETATM    8  C   UNK N   1       5.082   2.863  -0.019  0.00  0.00     0.104 A 
HETATM    9  C   UNK N   1       3.797   3.473   0.372  0.00  0.00     0.220 A 
HETATM   10  O   UNK N   1       3.718   4.493   1.036  0.00  0.00    -0.273 OA
ENDBRANCH   4   5
ENDBRANCH   1   4
BRANCH   1  11
HETATM   11  O   UNK N   1       1.733   5.169  -1.221  0.00  0.00    -0.348 OA
HETATM   12  H   UNK N   1       2.319   4.959  -1.922  0.00  0.00     0.219 HD
ENDBRANCH   1  11
BRANCH   2  13
HETATM   13  C   UNK N   1      -0.163   6.619   0.265  0.00  0.00     0.045 A 
HETATM   14  C   UNK N   1      -1.503   7.025   0.103  0.00  0.00    -0.035 A 
HETATM   15  C   UNK N   1      -2.607   6.026   0.048  0.00  0.00     0.050 C 
HETATM   16  C   UNK N   1      -1.817   8.382  -0.014  0.00  0.00     0.009 A 
HETATM   17  C   UNK N   1      -0.811   9.346   0.040  0.00  0.00     0.001 A 
HETATM   18  C   UNK N   1       0.516   8.960   0.218  0.00  0.00     0.009 A 
HETATM   19  C   UNK N   1       0.852   7.609   0.331  0.00  0.00    -0.035 A 
HETATM   20  C   UNK N   1       2.281   7.265   0.584  0.00  0.00     0.050 C 
ENDBRANCH   2  13
TORSDOF 4
