MODEL 1
REMARK VINA RESULT:      -8.1      0.000      0.000
REMARK  4 active torsions:
REMARK  status: ('A' for Active; 'I' for Inactive)
REMARK    1  A    between atoms: C_4  and  C_8 
REMARK    2  A    between atoms: C_11  and  C_9 
REMARK    3  A    between atoms: C_19  and  O_33 
REMARK    4  A    between atoms: C_24  and  O_29 
ROOT
HETATM    1  C   UNK N   1      30.336  16.731   5.214  0.00  0.00     0.164 C 
HETATM    2  C   UNK N   1      30.841  16.678   3.768  0.00  0.00     0.064 C 
HETATM    3  C   UNK N   1      29.773  16.181   2.825  0.00  0.00    -0.021 C 
HETATM    4  C   UNK N   1      29.219  14.963   2.895  0.00  0.00    -0.084 C 
HETATM    5  C   UNK N   1      29.655  13.955   3.919  0.00  0.00     0.060 C 
HETATM    6  C   UNK N   1      30.089  12.702   3.232  0.00  0.00    -0.026 C 
HETATM    7  C   UNK N   1      31.260  12.068   3.391  0.00  0.00    -0.024 C 
HETATM    8  C   UNK N   1      32.437  12.371   4.291  0.00  0.00     0.033 C 
HETATM    9  C   UNK N   1      32.420  13.660   5.137  0.00  0.00     0.136 C 
HETATM   10  C   UNK N   1      33.806  14.029   5.718  0.00  0.00     0.081 C 
HETATM   11  C   UNK N   1      33.792  15.452   6.245  0.00  0.00     0.143 C 
HETATM   12  O   UNK N   1      33.597  16.343   5.434  0.00  0.00    -0.297 OA
HETATM   13  C   UNK N   1      34.046  15.815   7.715  0.00  0.00     0.040 C 
HETATM   14  C   UNK N   1      33.801  17.315   8.034  0.00  0.00     0.142 C 
HETATM   15  C   UNK N   1      32.350  17.810   8.219  0.00  0.00     0.144 C 
HETATM   16  C   UNK N   1      31.291  17.155   7.379  0.00  0.00     0.262 C 
HETATM   17  O   UNK N   1      30.428  16.488   7.931  0.00  0.00    -0.265 OA
HETATM   18  O   UNK N   1      31.283  17.314   6.033  0.00  0.00    -0.311 OA
HETATM   19  C   UNK N   1      33.171  14.984   8.646  0.00  0.00     0.026 C 
HETATM   20  C   UNK N   1      35.495  15.502   8.050  0.00  0.00     0.026 C 
HETATM   21  C   UNK N   1      34.310  13.001   6.727  0.00  0.00     0.020 C 
HETATM   22  C   UNK N   1      32.699  11.130   5.128  0.00  0.00     0.017 C 
HETATM   23  C   UNK N   1      28.107  14.627   1.957  0.00  0.00     0.043 C 
ENDROOT
BRANCH   1  24
HETATM   24  C   UNK N   1      29.015  17.444   5.312  0.00  0.00    -0.052 C 
HETATM   25  C   UNK N   1      28.892  18.690   4.821  0.00  0.00     0.036 C 
HETATM   26  C   UNK N   1      27.861  16.703   5.910  0.00  0.00     0.046 C 
BRANCH  25  27
HETATM   27  C   UNK N   1      27.622  19.423   4.694  0.00  0.00     0.057 A 
HETATM   28  C   UNK N   1      26.674  19.265   3.700  0.00  0.00     0.066 A 
HETATM   29  C   UNK N   1      25.755  20.249   3.983  0.00  0.00     0.074 A 
HETATM   30  C   UNK N   1      24.534  20.554   3.193  0.00  0.00     0.079 C 
HETATM   31  O   UNK N   1      26.146  20.914   5.044  0.00  0.00    -0.242 OA
HETATM   32  N   UNK N   1      27.271  20.449   5.491  0.00  0.00    -0.261 N 
ATOM     33  HN  UNK N   1      27.793  20.794   6.297  1.00  0.00     0.195 HD
ENDBRANCH  25  27
ENDBRANCH   1  24
BRANCH  14  34
HETATM   34  O   UNK N   1      34.529  18.170   7.202  0.00  0.00    -0.394 OA
HETATM   35  H   UNK N   1      34.904  18.946   6.756  0.00  0.00     0.210 HD
ENDBRANCH  14  34
BRANCH   9  36
HETATM   36  O   UNK N   1      31.461  13.590   6.154  0.00  0.00    -0.394 OA
HETATM   37  H   UNK N   1      30.908  13.181   6.838  0.00  0.00     0.210 HD
ENDBRANCH   9  36
TORSDOF 4
ENDMDL
MODEL 2
REMARK VINA RESULT:      -7.7      7.170     11.281
REMARK  4 active torsions:
REMARK  status: ('A' for Active; 'I' for Inactive)
REMARK    1  A    between atoms: C_4  and  C_8 
REMARK    2  A    between atoms: C_11  and  C_9 
REMARK    3  A    between atoms: C_19  and  O_33 
REMARK    4  A    between atoms: C_24  and  O_29 
ROOT
HETATM    1  C   UNK N   1      35.307  12.034  13.127  0.00  0.00     0.164 C 
HETATM    2  C   UNK N   1      34.301  10.879  13.041  0.00  0.00     0.064 C 
HETATM    3  C   UNK N   1      34.791   9.660  13.785  0.00  0.00    -0.021 C 
HETATM    4  C   UNK N   1      35.905   8.988  13.469  0.00  0.00    -0.084 C 
HETATM    5  C   UNK N   1      36.758   9.378  12.297  0.00  0.00     0.060 C 
HETATM    6  C   UNK N   1      36.904   8.212  11.376  0.00  0.00    -0.026 C 
HETATM    7  C   UNK N   1      36.643   8.195  10.060  0.00  0.00    -0.024 C 
HETATM    8  C   UNK N   1      36.182   9.292   9.126  0.00  0.00     0.033 C 
HETATM    9  C   UNK N   1      35.836  10.676   9.712  0.00  0.00     0.136 C 
HETATM   10  C   UNK N   1      35.046  11.575   8.731  0.00  0.00     0.081 C 
HETATM   11  C   UNK N   1      34.458  12.764   9.467  0.00  0.00     0.143 C 
HETATM   12  O   UNK N   1      33.633  12.528  10.335  0.00  0.00    -0.297 OA
HETATM   13  C   UNK N   1      34.818  14.223   9.148  0.00  0.00     0.040 C 
HETATM   14  C   UNK N   1      34.221  15.242  10.156  0.00  0.00     0.142 C 
HETATM   15  C   UNK N   1      34.913  15.429  11.525  0.00  0.00     0.144 C 
HETATM   16  C   UNK N   1      35.543  14.214  12.144  0.00  0.00     0.262 C 
HETATM   17  O   UNK N   1      36.757  14.185  12.283  0.00  0.00    -0.265 OA
HETATM   18  O   UNK N   1      34.777  13.174  12.555  0.00  0.00    -0.311 OA
HETATM   19  C   UNK N   1      36.329  14.422   9.112  0.00  0.00     0.026 C 
HETATM   20  C   UNK N   1      34.278  14.566   7.769  0.00  0.00     0.026 C 
HETATM   21  C   UNK N   1      35.862  11.953   7.498  0.00  0.00     0.020 C 
HETATM   22  C   UNK N   1      37.190   9.376   7.993  0.00  0.00     0.017 C 
HETATM   23  C   UNK N   1      36.327   7.851  14.341  0.00  0.00     0.043 C 
ENDROOT
BRANCH   1  24
HETATM   24  C   UNK N   1      35.741  12.282  14.545  0.00  0.00    -0.052 C 
HETATM   25  C   UNK N   1      34.825  12.601  15.476  0.00  0.00     0.036 C 
HETATM   26  C   UNK N   1      37.190  12.106  14.875  0.00  0.00     0.046 C 
BRANCH  25  27
HETATM   27  C   UNK N   1      35.092  12.693  16.921  0.00  0.00     0.057 A 
HETATM   28  C   UNK N   1      35.259  11.638  17.799  0.00  0.00     0.066 A 
HETATM   29  C   UNK N   1      35.368  12.261  19.022  0.00  0.00     0.074 A 
HETATM   30  C   UNK N   1      35.525  11.582  20.334  0.00  0.00     0.079 C 
HETATM   31  O   UNK N   1      35.269  13.559  18.856  0.00  0.00    -0.242 OA
HETATM   32  N   UNK N   1      35.093  13.853  17.606  0.00  0.00    -0.261 N 
ATOM     33  HN  UNK N   1      34.977  14.788  17.213  1.00  0.00     0.195 HD
ENDBRANCH  25  27
ENDBRANCH   1  24
BRANCH  14  34
HETATM   34  O   UNK N   1      32.836  15.116  10.298  0.00  0.00    -0.394 OA
HETATM   35  H   UNK N   1      31.894  15.278  10.463  0.00  0.00     0.210 HD
ENDBRANCH  14  34
BRANCH   9  36
HETATM   36  O   UNK N   1      36.982  11.335  10.173  0.00  0.00    -0.394 OA
HETATM   37  H   UNK N   1      37.642  12.041  10.244  0.00  0.00     0.210 HD
ENDBRANCH   9  36
TORSDOF 4
ENDMDL
MODEL 3
REMARK VINA RESULT:      -7.6      2.871      4.463
REMARK  4 active torsions:
REMARK  status: ('A' for Active; 'I' for Inactive)
REMARK    1  A    between atoms: C_4  and  C_8 
REMARK    2  A    between atoms: C_11  and  C_9 
REMARK    3  A    between atoms: C_19  and  O_33 
REMARK    4  A    between atoms: C_24  and  O_29 
ROOT
HETATM    1  C   UNK N   1      33.751  15.663   7.794  0.00  0.00     0.164 C 
HETATM    2  C   UNK N   1      34.450  15.673   6.429  0.00  0.00     0.064 C 
HETATM    3  C   UNK N   1      33.454  15.677   5.295  0.00  0.00    -0.021 C 
HETATM    4  C   UNK N   1      32.574  14.693   5.069  0.00  0.00    -0.084 C 
HETATM    5  C   UNK N   1      32.532  13.458   5.922  0.00  0.00     0.060 C 
HETATM    6  C   UNK N   1      32.698  12.250   5.061  0.00  0.00    -0.026 C 
HETATM    7  C   UNK N   1      33.598  11.269   5.224  0.00  0.00    -0.024 C 
HETATM    8  C   UNK N   1      34.649  11.056   6.291  0.00  0.00     0.033 C 
HETATM    9  C   UNK N   1      34.860  12.146   7.361  0.00  0.00     0.136 C 
HETATM   10  C   UNK N   1      36.179  11.979   8.153  0.00  0.00     0.081 C 
HETATM   11  C   UNK N   1      36.484  13.240   8.938  0.00  0.00     0.143 C 
HETATM   12  O   UNK N   1      36.686  14.259   8.296  0.00  0.00    -0.297 OA
HETATM   13  C   UNK N   1      36.586  13.283  10.469  0.00  0.00     0.040 C 
HETATM   14  C   UNK N   1      36.729  14.720  11.040  0.00  0.00     0.142 C 
HETATM   15  C   UNK N   1      35.468  15.606  11.155  0.00  0.00     0.144 C 
HETATM   16  C   UNK N   1      34.420  15.443  10.092  0.00  0.00     0.262 C 
HETATM   17  O   UNK N   1      33.325  14.999  10.406  0.00  0.00    -0.265 OA
HETATM   18  O   UNK N   1      34.678  15.796   8.809  0.00  0.00    -0.311 OA
HETATM   19  C   UNK N   1      35.371  12.634  11.121  0.00  0.00     0.026 C 
HETATM   20  C   UNK N   1      37.812  12.492  10.897  0.00  0.00     0.026 C 
HETATM   21  C   UNK N   1      36.198  10.706   8.996  0.00  0.00     0.020 C 
HETATM   22  C   UNK N   1      34.406   9.685   6.898  0.00  0.00     0.017 C 
HETATM   23  C   UNK N   1      31.581  14.860   3.965  0.00  0.00     0.043 C 
ENDROOT
BRANCH   1  24
HETATM   24  C   UNK N   1      32.690  16.725   7.878  0.00  0.00    -0.052 C 
HETATM   25  C   UNK N   1      31.399  16.370   8.001  0.00  0.00     0.036 C 
HETATM   26  C   UNK N   1      33.130  18.156   7.877  0.00  0.00     0.046 C 
BRANCH  25  27
HETATM   27  C   UNK N   1      30.292  17.302   8.271  0.00  0.00     0.057 A 
HETATM   28  C   UNK N   1      29.447  17.872   7.337  0.00  0.00     0.066 A 
HETATM   29  C   UNK N   1      28.681  18.733   8.090  0.00  0.00     0.074 A 
HETATM   30  C   UNK N   1      27.624  19.639   7.571  0.00  0.00     0.079 C 
HETATM   31  O   UNK N   1      29.060  18.664   9.344  0.00  0.00    -0.242 OA
HETATM   32  N   UNK N   1      30.034  17.820   9.486  0.00  0.00    -0.261 N 
ATOM     33  HN  UNK N   1      30.515  17.590  10.357  1.00  0.00     0.195 HD
ENDBRANCH  25  27
ENDBRANCH   1  24
BRANCH  14  34
HETATM   34  O   UNK N   1      37.796  15.424  10.474  0.00  0.00    -0.394 OA
HETATM   35  H   UNK N   1      38.359  16.101  10.067  0.00  0.00     0.210 HD
ENDBRANCH  14  34
BRANCH   9  36
HETATM   36  O   UNK N   1      33.767  12.224   8.232  0.00  0.00    -0.394 OA
HETATM   37  H   UNK N   1      33.113  12.640   8.814  0.00  0.00     0.210 HD
ENDBRANCH   9  36
TORSDOF 4
ENDMDL
MODEL 4
REMARK VINA RESULT:      -7.6      3.773      8.150
REMARK  4 active torsions:
REMARK  status: ('A' for Active; 'I' for Inactive)
REMARK    1  A    between atoms: C_4  and  C_8 
REMARK    2  A    between atoms: C_11  and  C_9 
REMARK    3  A    between atoms: C_19  and  O_33 
REMARK    4  A    between atoms: C_24  and  O_29 
ROOT
HETATM    1  C   UNK N   1      34.260  14.252   8.622  0.00  0.00     0.164 C 
HETATM    2  C   UNK N   1      33.601  12.871   8.534  0.00  0.00     0.064 C 
HETATM    3  C   UNK N   1      34.613  11.762   8.690  0.00  0.00    -0.021 C 
HETATM    4  C   UNK N   1      35.635  11.557   7.849  0.00  0.00    -0.084 C 
HETATM    5  C   UNK N   1      35.840  12.410   6.630  0.00  0.00     0.060 C 
HETATM    6  C   UNK N   1      35.876  11.545   5.415  0.00  0.00    -0.026 C 
HETATM    7  C   UNK N   1      35.127  11.686   4.310  0.00  0.00    -0.024 C 
HETATM    8  C   UNK N   1      34.094  12.726   3.939  0.00  0.00     0.033 C 
HETATM    9  C   UNK N   1      33.697  13.791   4.981  0.00  0.00     0.136 C 
HETATM   10  C   UNK N   1      32.399  14.549   4.616  0.00  0.00     0.081 C 
HETATM   11  C   UNK N   1      31.890  15.327   5.815  0.00  0.00     0.143 C 
HETATM   12  O   UNK N   1      31.555  14.681   6.795  0.00  0.00    -0.297 OA
HETATM   13  C   UNK N   1      31.746  16.856   5.837  0.00  0.00     0.040 C 
HETATM   14  C   UNK N   1      31.377  17.424   7.234  0.00  0.00     0.142 C 
HETATM   15  C   UNK N   1      32.489  17.570   8.296  0.00  0.00     0.144 C 
HETATM   16  C   UNK N   1      33.576  16.533   8.295  0.00  0.00     0.262 C 
HETATM   17  O   UNK N   1      34.717  16.874   8.018  0.00  0.00    -0.265 OA
HETATM   18  O   UNK N   1      33.299  15.244   8.611  0.00  0.00    -0.311 OA
HETATM   19  C   UNK N   1      33.028  17.537   5.372  0.00  0.00     0.026 C 
HETATM   20  C   UNK N   1      30.641  17.253   4.870  0.00  0.00     0.026 C 
HETATM   21  C   UNK N   1      32.548  15.391   3.352  0.00  0.00     0.020 C 
HETATM   22  C   UNK N   1      34.523  13.339   2.616  0.00  0.00     0.017 C 
HETATM   23  C   UNK N   1      36.619  10.479   8.166  0.00  0.00     0.043 C 
ENDROOT
BRANCH   1  24
HETATM   24  C   UNK N   1      35.149  14.363   9.830  0.00  0.00    -0.052 C 
HETATM   25  C   UNK N   1      34.610  14.313  11.061  0.00  0.00     0.036 C 
HETATM   26  C   UNK N   1      36.625  14.472   9.606  0.00  0.00     0.046 C 
BRANCH  25  27
HETATM   27  C   UNK N   1      35.380  14.231  12.313  0.00  0.00     0.057 A 
HETATM   28  C   UNK N   1      35.365  13.192  13.225  0.00  0.00     0.066 A 
HETATM   29  C   UNK N   1      36.159  13.661  14.248  0.00  0.00     0.074 A 
HETATM   30  C   UNK N   1      36.453  12.948  15.518  0.00  0.00     0.079 C 
HETATM   31  O   UNK N   1      36.587  14.864  13.947  0.00  0.00    -0.242 OA
HETATM   32  N   UNK N   1      36.129  15.242  12.793  0.00  0.00    -0.261 N 
ATOM     33  HN  UNK N   1      36.304  16.136  12.335  1.00  0.00     0.195 HD
ENDBRANCH  25  27
ENDBRANCH   1  24
BRANCH  14  34
HETATM   34  O   UNK N   1      30.231  16.832   7.774  0.00  0.00    -0.394 OA
HETATM   35  H   UNK N   1      29.569  16.446   8.369  0.00  0.00     0.210 HD
ENDBRANCH  14  34
BRANCH   9  36
HETATM   36  O   UNK N   1      34.745  14.689   5.217  0.00  0.00    -0.394 OA
HETATM   37  H   UNK N   1      35.657  15.016   5.235  0.00  0.00     0.210 HD
ENDBRANCH   9  36
TORSDOF 4
ENDMDL
MODEL 5
REMARK VINA RESULT:      -7.6     11.250     15.788
REMARK  4 active torsions:
REMARK  status: ('A' for Active; 'I' for Inactive)
REMARK    1  A    between atoms: C_4  and  C_8 
REMARK    2  A    between atoms: C_11  and  C_9 
REMARK    3  A    between atoms: C_19  and  O_33 
REMARK    4  A    between atoms: C_24  and  O_29 
ROOT
HETATM    1  C   UNK N   1      30.009  24.510  -5.033  0.00  0.00     0.164 C 
HETATM    2  C   UNK N   1      30.691  24.992  -6.319  0.00  0.00     0.064 C 
HETATM    3  C   UNK N   1      32.182  25.140  -6.134  0.00  0.00    -0.021 C 
HETATM    4  C   UNK N   1      32.748  25.991  -5.268  0.00  0.00    -0.084 C 
HETATM    5  C   UNK N   1      31.928  26.917  -4.418  0.00  0.00     0.060 C 
HETATM    6  C   UNK N   1      32.358  28.326  -4.656  0.00  0.00    -0.026 C 
HETATM    7  C   UNK N   1      31.569  29.357  -4.996  0.00  0.00    -0.024 C 
HETATM    8  C   UNK N   1      30.072  29.435  -5.198  0.00  0.00     0.033 C 
HETATM    9  C   UNK N   1      29.238  28.141  -5.114  0.00  0.00     0.136 C 
HETATM   10  C   UNK N   1      27.810  28.296  -5.689  0.00  0.00     0.081 C 
HETATM   11  C   UNK N   1      27.171  26.933  -5.882  0.00  0.00     0.143 C 
HETATM   12  O   UNK N   1      27.701  26.179  -6.683  0.00  0.00    -0.297 OA
HETATM   13  C   UNK N   1      25.893  26.485  -5.158  0.00  0.00     0.040 C 
HETATM   14  C   UNK N   1      25.544  24.989  -5.388  0.00  0.00     0.142 C 
HETATM   15  C   UNK N   1      26.308  23.914  -4.586  0.00  0.00     0.144 C 
HETATM   16  C   UNK N   1      27.751  24.191  -4.273  0.00  0.00     0.262 C 
HETATM   17  O   UNK N   1      28.084  24.345  -3.107  0.00  0.00    -0.265 OA
HETATM   18  O   UNK N   1      28.672  24.255  -5.266  0.00  0.00    -0.311 OA
HETATM   19  C   UNK N   1      25.999  26.721  -3.656  0.00  0.00     0.026 C 
HETATM   20  C   UNK N   1      24.728  27.316  -5.671  0.00  0.00     0.026 C 
HETATM   21  C   UNK N   1      26.956  29.270  -4.882  0.00  0.00     0.020 C 
HETATM   22  C   UNK N   1      29.547  30.526  -4.280  0.00  0.00     0.017 C 
HETATM   23  C   UNK N   1      34.235  25.976  -5.118  0.00  0.00     0.043 C 
ENDROOT
BRANCH   1  24
HETATM   24  C   UNK N   1      30.705  23.307  -4.457  0.00  0.00    -0.052 C 
HETATM   25  C   UNK N   1      30.942  22.238  -5.237  0.00  0.00     0.036 C 
HETATM   26  C   UNK N   1      31.160  23.376  -3.033  0.00  0.00     0.046 C 
BRANCH  25  27
HETATM   27  C   UNK N   1      31.764  21.080  -4.849  0.00  0.00     0.057 A 
HETATM   28  C   UNK N   1      33.111  20.902  -5.102  0.00  0.00     0.066 A 
HETATM   29  C   UNK N   1      33.354  19.630  -4.636  0.00  0.00     0.074 A 
HETATM   30  C   UNK N   1      34.653  18.912  -4.698  0.00  0.00     0.079 C 
HETATM   31  O   UNK N   1      32.240  19.124  -4.161  0.00  0.00    -0.242 OA
HETATM   32  N   UNK N   1      31.261  19.967  -4.282  0.00  0.00    -0.261 N 
ATOM     33  HN  UNK N   1      30.292  19.816  -4.001  1.00  0.00     0.195 HD
ENDBRANCH  25  27
ENDBRANCH   1  24
BRANCH  14  34
HETATM   34  O   UNK N   1      25.464  24.654  -6.743  0.00  0.00    -0.394 OA
HETATM   35  H   UNK N   1      25.476  24.671  -7.713  0.00  0.00     0.210 HD
ENDBRANCH  14  34
BRANCH   9  36
HETATM   36  O   UNK N   1      29.193  27.648  -3.805  0.00  0.00    -0.394 OA
HETATM   37  H   UNK N   1      29.523  27.241  -2.988  0.00  0.00     0.210 HD
ENDBRANCH   9  36
TORSDOF 4
ENDMDL
MODEL 6
REMARK VINA RESULT:      -7.5      2.960      7.331
REMARK  4 active torsions:
REMARK  status: ('A' for Active; 'I' for Inactive)
REMARK    1  A    between atoms: C_4  and  C_8 
REMARK    2  A    between atoms: C_11  and  C_9 
REMARK    3  A    between atoms: C_19  and  O_33 
REMARK    4  A    between atoms: C_24  and  O_29 
ROOT
HETATM    1  C   UNK N   1      32.764  15.431   7.073  0.00  0.00     0.164 C 
HETATM    2  C   UNK N   1      32.807  16.894   6.617  0.00  0.00     0.064 C 
HETATM    3  C   UNK N   1      32.147  17.808   7.620  0.00  0.00    -0.021 C 
HETATM    4  C   UNK N   1      30.854  17.736   7.961  0.00  0.00    -0.084 C 
HETATM    5  C   UNK N   1      29.923  16.742   7.329  0.00  0.00     0.060 C 
HETATM    6  C   UNK N   1      28.766  17.460   6.718  0.00  0.00    -0.026 C 
HETATM    7  C   UNK N   1      28.334  17.349   5.452  0.00  0.00    -0.024 C 
HETATM    8  C   UNK N   1      28.821  16.484   4.311  0.00  0.00     0.033 C 
HETATM    9  C   UNK N   1      30.082  15.621   4.512  0.00  0.00     0.136 C 
HETATM   10  C   UNK N   1      30.671  15.081   3.187  0.00  0.00     0.081 C 
HETATM   11  C   UNK N   1      32.067  14.534   3.418  0.00  0.00     0.143 C 
HETATM   12  O   UNK N   1      32.920  15.325   3.786  0.00  0.00    -0.297 OA
HETATM   13  C   UNK N   1      32.455  13.068   3.176  0.00  0.00     0.040 C 
HETATM   14  C   UNK N   1      33.891  12.720   3.655  0.00  0.00     0.142 C 
HETATM   15  C   UNK N   1      34.137  12.479   5.161  0.00  0.00     0.144 C 
HETATM   16  C   UNK N   1      33.322  13.293   6.125  0.00  0.00     0.262 C 
HETATM   17  O   UNK N   1      32.516  12.723   6.846  0.00  0.00    -0.265 OA
HETATM   18  O   UNK N   1      33.489  14.636   6.207  0.00  0.00    -0.311 OA
HETATM   19  C   UNK N   1      31.483  12.120   3.869  0.00  0.00     0.026 C 
HETATM   20  C   UNK N   1      32.385  12.786   1.684  0.00  0.00     0.026 C 
HETATM   21  C   UNK N   1      29.733  14.104   2.484  0.00  0.00     0.020 C 
HETATM   22  C   UNK N   1      27.634  15.674   3.818  0.00  0.00     0.017 C 
HETATM   23  C   UNK N   1      30.345  18.642   9.035  0.00  0.00     0.043 C 
ENDROOT
BRANCH   1  24
HETATM   24  C   UNK N   1      33.246  15.280   8.489  0.00  0.00    -0.052 C 
HETATM   25  C   UNK N   1      34.515  15.599   8.798  0.00  0.00     0.036 C 
HETATM   26  C   UNK N   1      32.261  14.826   9.520  0.00  0.00     0.046 C 
BRANCH  25  27
HETATM   27  C   UNK N   1      35.056  15.666  10.166  0.00  0.00     0.057 A 
HETATM   28  C   UNK N   1      35.542  14.609  10.914  0.00  0.00     0.066 A 
HETATM   29  C   UNK N   1      35.812  15.187  12.134  0.00  0.00     0.074 A 
HETATM   30  C   UNK N   1      36.325  14.481  13.337  0.00  0.00     0.079 C 
HETATM   31  O   UNK N   1      35.503  16.461  12.087  0.00  0.00    -0.242 OA
HETATM   32  N   UNK N   1      35.036  16.780  10.920  0.00  0.00    -0.261 N 
ATOM     33  HN  UNK N   1      34.715  17.704  10.628  1.00  0.00     0.195 HD
ENDBRANCH  25  27
ENDBRANCH   1  24
BRANCH  14  34
HETATM   34  O   UNK N   1      34.863  13.564   3.109  0.00  0.00    -0.394 OA
HETATM   35  H   UNK N   1      35.567  14.218   2.978  0.00  0.00     0.210 HD
ENDBRANCH  14  34
BRANCH   9  36
HETATM   36  O   UNK N   1      29.845  14.574   5.410  0.00  0.00    -0.394 OA
HETATM   37  H   UNK N   1      29.953  13.701   5.818  0.00  0.00     0.210 HD
ENDBRANCH   9  36
TORSDOF 4
ENDMDL
MODEL 7
REMARK VINA RESULT:      -7.4      4.562      9.811
REMARK  4 active torsions:
REMARK  status: ('A' for Active; 'I' for Inactive)
REMARK    1  A    between atoms: C_4  and  C_8 
REMARK    2  A    between atoms: C_11  and  C_9 
REMARK    3  A    between atoms: C_19  and  O_33 
REMARK    4  A    between atoms: C_24  and  O_29 
ROOT
HETATM    1  C   UNK N   1      25.140  16.358   4.690  0.00  0.00     0.164 C 
HETATM    2  C   UNK N   1      25.458  16.694   3.228  0.00  0.00     0.064 C 
HETATM    3  C   UNK N   1      26.353  17.904   3.119  0.00  0.00    -0.021 C 
HETATM    4  C   UNK N   1      26.012  19.128   3.542  0.00  0.00    -0.084 C 
HETATM    5  C   UNK N   1      24.664  19.411   4.138  0.00  0.00     0.060 C 
HETATM    6  C   UNK N   1      23.997  20.502   3.369  0.00  0.00    -0.026 C 
HETATM    7  C   UNK N   1      22.772  20.461   2.821  0.00  0.00    -0.024 C 
HETATM    8  C   UNK N   1      21.715  19.379   2.838  0.00  0.00     0.033 C 
HETATM    9  C   UNK N   1      22.045  18.020   3.488  0.00  0.00     0.136 C 
HETATM   10  C   UNK N   1      21.036  16.906   3.122  0.00  0.00     0.081 C 
HETATM   11  C   UNK N   1      21.590  15.548   3.509  0.00  0.00     0.143 C 
HETATM   12  O   UNK N   1      22.608  15.182   2.944  0.00  0.00    -0.297 OA
HETATM   13  C   UNK N   1      20.920  14.618   4.531  0.00  0.00     0.040 C 
HETATM   14  C   UNK N   1      21.774  13.370   4.885  0.00  0.00     0.142 C 
HETATM   15  C   UNK N   1      22.945  13.526   5.879  0.00  0.00     0.144 C 
HETATM   16  C   UNK N   1      23.697  14.826   5.852  0.00  0.00     0.262 C 
HETATM   17  O   UNK N   1      23.644  15.560   6.828  0.00  0.00    -0.265 OA
HETATM   18  O   UNK N   1      24.433  15.174   4.768  0.00  0.00    -0.311 OA
HETATM   19  C   UNK N   1      20.603  15.357   5.825  0.00  0.00     0.026 C 
HETATM   20  C   UNK N   1      19.604  14.127   3.950  0.00  0.00     0.026 C 
HETATM   21  C   UNK N   1      19.637  17.181   3.667  0.00  0.00     0.020 C 
HETATM   22  C   UNK N   1      20.443  19.997   3.395  0.00  0.00     0.017 C 
HETATM   23  C   UNK N   1      27.025  20.223   3.457  0.00  0.00     0.043 C 
ENDROOT
BRANCH   1  24
HETATM   24  C   UNK N   1      26.387  16.309   5.529  0.00  0.00    -0.052 C 
HETATM   25  C   UNK N   1      26.720  17.366   6.290  0.00  0.00     0.036 C 
HETATM   26  C   UNK N   1      27.186  15.044   5.523  0.00  0.00     0.046 C 
BRANCH  25  27
HETATM   27  C   UNK N   1      27.807  17.378   7.283  0.00  0.00     0.057 A 
HETATM   28  C   UNK N   1      29.157  17.532   7.028  0.00  0.00     0.066 A 
HETATM   29  C   UNK N   1      29.733  17.358   8.266  0.00  0.00     0.074 A 
HETATM   30  C   UNK N   1      31.188  17.383   8.561  0.00  0.00     0.079 C 
HETATM   31  O   UNK N   1      28.793  17.121   9.151  0.00  0.00    -0.242 OA
HETATM   32  N   UNK N   1      27.623  17.116   8.591  0.00  0.00    -0.261 N 
ATOM     33  HN  UNK N   1      26.729  16.947   9.055  1.00  0.00     0.195 HD
ENDBRANCH  25  27
ENDBRANCH   1  24
BRANCH  14  34
HETATM   34  O   UNK N   1      22.157  12.638   3.757  0.00  0.00    -0.394 OA
HETATM   35  H   UNK N   1      22.252  11.960   3.070  0.00  0.00     0.210 HD
ENDBRANCH  14  34
BRANCH   9  36
HETATM   36  O   UNK N   1      22.170  18.138   4.877  0.00  0.00    -0.394 OA
HETATM   37  H   UNK N   1      22.263  17.844   5.797  0.00  0.00     0.210 HD
ENDBRANCH   9  36
TORSDOF 4
ENDMDL
MODEL 8
REMARK VINA RESULT:      -7.4      7.405     10.477
REMARK  4 active torsions:
REMARK  status: ('A' for Active; 'I' for Inactive)
REMARK    1  A    between atoms: C_4  and  C_8 
REMARK    2  A    between atoms: C_11  and  C_9 
REMARK    3  A    between atoms: C_19  and  O_33 
REMARK    4  A    between atoms: C_24  and  O_29 
ROOT
HETATM    1  C   UNK N   1      36.030  12.272  12.144  0.00  0.00     0.164 C 
HETATM    2  C   UNK N   1      37.483  12.722  11.945  0.00  0.00     0.064 C 
HETATM    3  C   UNK N   1      37.902  12.619  10.498  0.00  0.00    -0.021 C 
HETATM    4  C   UNK N   1      37.946  11.470   9.812  0.00  0.00    -0.084 C 
HETATM    5  C   UNK N   1      37.610  10.153  10.451  0.00  0.00     0.060 C 
HETATM    6  C   UNK N   1      38.760   9.214  10.294  0.00  0.00    -0.026 C 
HETATM    7  C   UNK N   1      39.378   8.535  11.273  0.00  0.00    -0.024 C 
HETATM    8  C   UNK N   1      39.103   8.469  12.759  0.00  0.00     0.033 C 
HETATM    9  C   UNK N   1      38.009   9.375  13.359  0.00  0.00     0.136 C 
HETATM   10  C   UNK N   1      38.078   9.479  14.901  0.00  0.00     0.081 C 
HETATM   11  C   UNK N   1      37.209  10.623  15.390  0.00  0.00     0.143 C 
HETATM   12  O   UNK N   1      37.519  11.748  15.032  0.00  0.00    -0.297 OA
HETATM   13  C   UNK N   1      36.006  10.434  16.325  0.00  0.00     0.040 C 
HETATM   14  C   UNK N   1      35.176  11.730  16.534  0.00  0.00     0.142 C 
HETATM   15  C   UNK N   1      34.182  12.165  15.434  0.00  0.00     0.144 C 
HETATM   16  C   UNK N   1      34.569  11.877  14.011  0.00  0.00     0.262 C 
HETATM   17  O   UNK N   1      33.903  11.080  13.367  0.00  0.00    -0.265 OA
HETATM   18  O   UNK N   1      35.631  12.503  13.445  0.00  0.00    -0.311 OA
HETATM   19  C   UNK N   1      35.069   9.351  15.805  0.00  0.00     0.026 C 
HETATM   20  C   UNK N   1      36.514   9.986  17.685  0.00  0.00     0.026 C 
HETATM   21  C   UNK N   1      37.793   8.147  15.590  0.00  0.00     0.020 C 
HETATM   22  C   UNK N   1      38.908   7.006  13.119  0.00  0.00     0.017 C 
HETATM   23  C   UNK N   1      38.292  11.516   8.359  0.00  0.00     0.043 C 
ENDROOT
BRANCH   1  24
HETATM   24  C   UNK N   1      35.107  12.938  11.161  0.00  0.00    -0.052 C 
HETATM   25  C   UNK N   1      34.872  14.259  11.256  0.00  0.00     0.036 C 
HETATM   26  C   UNK N   1      34.524  12.099  10.068  0.00  0.00     0.046 C 
BRANCH  25  27
HETATM   27  C   UNK N   1      34.137  15.056  10.260  0.00  0.00     0.057 A 
HETATM   28  C   UNK N   1      34.678  15.965   9.370  0.00  0.00     0.066 A 
HETATM   29  C   UNK N   1      33.568  16.502   8.757  0.00  0.00     0.074 A 
HETATM   30  C   UNK N   1      33.575  17.572   7.726  0.00  0.00     0.079 C 
HETATM   31  O   UNK N   1      32.488  15.950   9.258  0.00  0.00    -0.242 OA
HETATM   32  N   UNK N   1      32.794  15.083  10.172  0.00  0.00    -0.261 N 
ATOM     33  HN  UNK N   1      32.140  14.524  10.721  1.00  0.00     0.195 HD
ENDBRANCH  25  27
ENDBRANCH   1  24
BRANCH  14  34
HETATM   34  O   UNK N   1      35.953  12.806  16.972  0.00  0.00    -0.394 OA
HETATM   35  H   UNK N   1      36.275  13.613  17.405  0.00  0.00     0.210 HD
ENDBRANCH  14  34
BRANCH   9  36
HETATM   36  O   UNK N   1      36.733   8.974  12.947  0.00  0.00    -0.394 OA
HETATM   37  H   UNK N   1      36.066   8.524  12.404  0.00  0.00     0.210 HD
ENDBRANCH   9  36
TORSDOF 4
ENDMDL
MODEL 9
REMARK VINA RESULT:      -7.3      4.212      8.779
REMARK  4 active torsions:
REMARK  status: ('A' for Active; 'I' for Inactive)
REMARK    1  A    between atoms: C_4  and  C_8 
REMARK    2  A    between atoms: C_11  and  C_9 
REMARK    3  A    between atoms: C_19  and  O_33 
REMARK    4  A    between atoms: C_24  and  O_29 
ROOT
HETATM    1  C   UNK N   1      26.636  15.980   5.275  0.00  0.00     0.164 C 
HETATM    2  C   UNK N   1      26.702  16.323   3.781  0.00  0.00     0.064 C 
HETATM    3  C   UNK N   1      27.296  17.692   3.552  0.00  0.00    -0.021 C 
HETATM    4  C   UNK N   1      26.750  18.829   4.002  0.00  0.00    -0.084 C 
HETATM    5  C   UNK N   1      25.451  18.840   4.755  0.00  0.00     0.060 C 
HETATM    6  C   UNK N   1      24.479  19.735   4.061  0.00  0.00    -0.026 C 
HETATM    7  C   UNK N   1      23.237  19.414   3.667  0.00  0.00    -0.024 C 
HETATM    8  C   UNK N   1      22.448  18.133   3.823  0.00  0.00     0.033 C 
HETATM    9  C   UNK N   1      23.137  16.900   4.442  0.00  0.00     0.136 C 
HETATM   10  C   UNK N   1      22.357  15.584   4.212  0.00  0.00     0.081 C 
HETATM   11  C   UNK N   1      23.233  14.390   4.542  0.00  0.00     0.143 C 
HETATM   12  O   UNK N   1      24.233  14.229   3.862  0.00  0.00    -0.297 OA
HETATM   13  C   UNK N   1      22.903  13.375   5.647  0.00  0.00     0.040 C 
HETATM   14  C   UNK N   1      24.042  12.352   5.907  0.00  0.00     0.142 C 
HETATM   15  C   UNK N   1      25.260  12.790   6.750  0.00  0.00     0.144 C 
HETATM   16  C   UNK N   1      25.704  14.218   6.618  0.00  0.00     0.262 C 
HETATM   17  O   UNK N   1      25.609  14.958   7.586  0.00  0.00    -0.265 OA
HETATM   18  O   UNK N   1      26.217  14.676   5.449  0.00  0.00    -0.311 OA
HETATM   19  C   UNK N   1      22.587  14.076   6.963  0.00  0.00     0.026 C 
HETATM   20  C   UNK N   1      21.665  12.595   5.236  0.00  0.00     0.026 C 
HETATM   21  C   UNK N   1      21.005  15.574   4.921  0.00  0.00     0.020 C 
HETATM   22  C   UNK N   1      21.147  18.485   4.525  0.00  0.00     0.017 C 
HETATM   23  C   UNK N   1      27.485  20.111   3.783  0.00  0.00     0.043 C 
ENDROOT
BRANCH   1  24
HETATM   24  C   UNK N   1      27.954  16.228   5.956  0.00  0.00    -0.052 C 
HETATM   25  C   UNK N   1      29.061  15.608   5.511  0.00  0.00     0.036 C 
HETATM   26  C   UNK N   1      27.986  17.212   7.082  0.00  0.00     0.046 C 
BRANCH  25  27
HETATM   27  C   UNK N   1      30.429  15.898   5.971  0.00  0.00     0.057 A 
HETATM   28  C   UNK N   1      31.235  16.943   5.559  0.00  0.00     0.066 A 
HETATM   29  C   UNK N   1      32.427  16.692   6.199  0.00  0.00     0.074 A 
HETATM   30  C   UNK N   1      33.669  17.498   6.074  0.00  0.00     0.079 C 
HETATM   31  O   UNK N   1      32.313  15.597   6.913  0.00  0.00    -0.242 OA
HETATM   32  N   UNK N   1      31.126  15.088   6.790  0.00  0.00    -0.261 N 
ATOM     33  HN  UNK N   1      30.784  14.235   7.232  1.00  0.00     0.195 HD
ENDBRANCH  25  27
ENDBRANCH   1  24
BRANCH  14  34
HETATM   34  O   UNK N   1      24.439  11.679   4.748  0.00  0.00    -0.394 OA
HETATM   35  H   UNK N   1      24.786  11.451   3.871  0.00  0.00     0.210 HD
ENDBRANCH  14  34
BRANCH   9  36
HETATM   36  O   UNK N   1      23.395  17.091   5.804  0.00  0.00    -0.394 OA
HETATM   37  H   UNK N   1      23.411  16.883   6.751  0.00  0.00     0.210 HD
ENDBRANCH   9  36
TORSDOF 4
ENDMDL
