REMARK  8 active torsions:
REMARK  status: ('A' for Active; 'I' for Inactive)
REMARK    1  A    between atoms: C_2  and  C_3 
REMARK    2  A    between atoms: C_2  and  O_12 
REMARK    3  A    between atoms: O_12  and  C_13 
REMARK    4  A    between atoms: C_19  and  C_23 
REMARK    5  A    between atoms: C_24  and  C_25 
REMARK    6  A    between atoms: N_29  and  C_31 
REMARK    7  A    between atoms: C_31  and  C_32 
REMARK    8  A    between atoms: C_32  and  O_33 
ROOT
HETATM    1  C   UNK N   1       3.160   0.934   0.074  0.00  0.00     0.070 A 
HETATM    2  C   UNK N   1       3.106  -0.465  -0.191  0.00  0.00     0.039 A 
HETATM    3  C   UNK N   1       1.859  -1.141  -0.223  0.00  0.00     0.034 A 
HETATM    4  C   UNK N   1       0.706  -0.386   0.015  0.00  0.00     0.060 A 
HETATM    5  C   UNK N   1       0.776   0.941   0.263  0.00  0.00     0.023 A 
HETATM    6  C   UNK N   1       1.976   1.632   0.300  0.00  0.00     0.053 A 
HETATM    7  C   UNK N   1      -0.525   1.369   0.394  0.00  0.00     0.060 A 
HETATM    8  N   UNK N   1      -1.342   0.305   0.224  0.00  0.00    -0.299 N 
ATOM      9  HN  UNK N   1      -2.361   0.323   0.260  1.00  0.00     0.187 HD
HETATM   10  N   UNK N   1      -0.584  -0.776   0.000  0.00  0.00    -0.299 N 
HETATM   11  H   UNK N   1      -0.910  -1.692  -0.148  0.00  0.00     0.187 HD
ENDROOT
BRANCH   1  12
HETATM   12  O   UNK N   1       4.315   1.638   0.122  0.00  0.00    -0.342 OA
BRANCH  12  13
HETATM   13  C   UNK N   1       5.568   1.161  -0.178  0.00  0.00     0.161 C 
HETATM   14  C   UNK N   1       5.672   0.848  -1.666  0.00  0.00     0.045 C 
BRANCH  13  15
HETATM   15  C   UNK N   1       6.682   2.117   0.228  0.00  0.00     0.017 A 
HETATM   16  C   UNK N   1       6.478   3.498   0.517  0.00  0.00     0.059 A 
HETATM   17  C   UNK N   1       7.571   4.288   0.882  0.00  0.00     0.112 A 
HETATM   18 Cl   UNK N   1       4.919   4.310   0.418  0.00  0.00    -0.082 Cl
HETATM   19  N   UNK N   1       8.816   3.755   0.967  0.00  0.00    -0.372 N 
HETATM   20  C   UNK N   1       9.043   2.445   0.699  0.00  0.00     0.112 A 
ATOM     21  HN  UNK N   1       9.597   4.352   1.238  1.00  0.00     0.164 HD
HETATM   22  C   UNK N   1       7.994   1.605   0.326  0.00  0.00     0.059 A 
HETATM   23 Cl   UNK N   1       8.355  -0.087   0.009  0.00  0.00    -0.082 Cl
ENDBRANCH  13  15
ENDBRANCH  12  13
ENDBRANCH   1  12
BRANCH   7  24
HETATM   24  C   UNK N   1      -0.937   2.784   0.525  0.00  0.00     0.033 C 
HETATM   25  C   UNK N   1       0.048   3.652   0.753  0.00  0.00     0.016 C 
BRANCH  25  26
HETATM   26  C   UNK N   1       0.071   5.058   0.401  0.00  0.00    -0.002 A 
HETATM   27  C   UNK N   1      -0.901   5.825  -0.207  0.00  0.00     0.120 A 
HETATM   28  N   UNK N   1      -0.314   6.972  -0.612  0.00  0.00    -0.309 N 
HETATM   29  N   UNK N   1       0.972   6.920  -0.303  0.00  0.00    -0.301 N 
ATOM     30  HN  UNK N   1      -0.783   7.748  -1.079  1.00  0.00     0.186 HD
HETATM   31  C   UNK N   1       1.247   5.759   0.313  0.00  0.00     0.122 A 
BRANCH  29  32
HETATM   32  C   UNK N   1       1.939   7.939  -0.708  0.00  0.00     0.174 C 
BRANCH  32  33
HETATM   33  C   UNK N   1       3.387   7.504  -0.486  0.00  0.00     0.185 C 
BRANCH  33  34
HETATM   34  O   UNK N   1       3.838   7.966   0.749  0.00  0.00    -0.399 OA
HETATM   35  H   UNK N   1       4.273   7.855   1.609  0.00  0.00     0.209 HD
ENDBRANCH  33  34
ENDBRANCH  32  33
ENDBRANCH  29  32
ENDBRANCH  25  26
ENDBRANCH   7  24
TORSDOF 8
