MODEL 1
REMARK VINA RESULT:      -3.9      0.000      0.000
REMARK  2 active torsions:
REMARK  status: ('A' for Active; 'I' for Inactive)
REMARK    1  A    between atoms: C_2  and  C_1 
REMARK    2  A    between atoms: C_3  and  C_1 
ROOT
HETATM    1  C   UNK N   1      22.566  11.604  10.652  0.00  0.00     0.188 C 
ENDROOT
BRANCH   1   2
HETATM    2  C   UNK N   1      23.337  12.092  11.874  0.00  0.00     0.361 C 
HETATM    3  F   UNK N   1      22.803  11.504  13.005  0.00  0.00    -0.214 F 
HETATM    4  F   UNK N   1      24.675  11.756  11.782  0.00  0.00    -0.214 F 
ENDBRANCH   1   2
BRANCH   1   5
HETATM    5  C   UNK N   1      21.531  12.610  10.158  0.00  0.00     0.392 C 
HETATM    6  F   UNK N   1      21.184  12.346   8.846  0.00  0.00    -0.171 F 
HETATM    7  F   UNK N   1      22.073  13.880  10.234  0.00  0.00    -0.171 F 
HETATM    8  F   UNK N   1      20.403  12.562  10.956  0.00  0.00    -0.171 F 
ENDBRANCH   1   5
TORSDOF 2
ENDMDL
MODEL 2
REMARK VINA RESULT:      -3.8     21.005     22.097
REMARK  2 active torsions:
REMARK  status: ('A' for Active; 'I' for Inactive)
REMARK    1  A    between atoms: C_2  and  C_1 
REMARK    2  A    between atoms: C_3  and  C_1 
ROOT
HETATM    1  C   UNK N   1      26.067  27.661  -5.095  0.00  0.00     0.188 C 
ENDROOT
BRANCH   1   2
HETATM    2  C   UNK N   1      25.617  27.976  -3.672  0.00  0.00     0.361 C 
HETATM    3  F   UNK N   1      26.001  26.940  -2.842  0.00  0.00    -0.214 F 
HETATM    4  F   UNK N   1      26.191  29.150  -3.220  0.00  0.00    -0.214 F 
ENDBRANCH   1   2
BRANCH   1   5
HETATM    5  C   UNK N   1      25.044  26.844  -5.877  0.00  0.00     0.392 C 
HETATM    6  F   UNK N   1      24.972  25.554  -5.384  0.00  0.00    -0.171 F 
HETATM    7  F   UNK N   1      25.433  26.797  -7.204  0.00  0.00    -0.171 F 
HETATM    8  F   UNK N   1      23.800  27.441  -5.802  0.00  0.00    -0.171 F 
ENDBRANCH   1   5
TORSDOF 2
ENDMDL
MODEL 3
REMARK VINA RESULT:      -3.7      1.393      3.234
REMARK  2 active torsions:
REMARK  status: ('A' for Active; 'I' for Inactive)
REMARK    1  A    between atoms: C_2  and  C_1 
REMARK    2  A    between atoms: C_3  and  C_1 
ROOT
HETATM    1  C   UNK N   1      22.494  13.093  10.419  0.00  0.00     0.188 C 
ENDROOT
BRANCH   1   2
HETATM    2  C   UNK N   1      21.015  12.720  10.469  0.00  0.00     0.361 C 
HETATM    3  F   UNK N   1      20.725  12.206  11.718  0.00  0.00    -0.214 F 
HETATM    4  F   UNK N   1      20.218  13.826  10.241  0.00  0.00    -0.214 F 
ENDBRANCH   1   2
BRANCH   1   5
HETATM    5  C   UNK N   1      23.415  11.934  10.788  0.00  0.00     0.392 C 
HETATM    6  F   UNK N   1      24.685  12.142  10.282  0.00  0.00    -0.171 F 
HETATM    7  F   UNK N   1      22.901  10.768  10.249  0.00  0.00    -0.171 F 
HETATM    8  F   UNK N   1      23.478  11.797  12.162  0.00  0.00    -0.171 F 
ENDBRANCH   1   5
TORSDOF 2
ENDMDL
MODEL 4
REMARK VINA RESULT:      -3.6      1.277      3.268
REMARK  2 active torsions:
REMARK  status: ('A' for Active; 'I' for Inactive)
REMARK    1  A    between atoms: C_2  and  C_1 
REMARK    2  A    between atoms: C_3  and  C_1 
ROOT
HETATM    1  C   UNK N   1      21.265  12.355  11.168  0.00  0.00     0.188 C 
ENDROOT
BRANCH   1   2
HETATM    2  C   UNK N   1      20.777  13.139   9.954  0.00  0.00     0.361 C 
HETATM    3  F   UNK N   1      21.249  14.435  10.038  0.00  0.00    -0.214 F 
HETATM    4  F   UNK N   1      21.236  12.569   8.781  0.00  0.00    -0.214 F 
ENDBRANCH   1   2
BRANCH   1   5
HETATM    5  C   UNK N   1      22.740  11.977  11.083  0.00  0.00     0.392 C 
HETATM    6  F   UNK N   1      22.912  10.866  10.278  0.00  0.00    -0.171 F 
HETATM    7  F   UNK N   1      23.199  11.687  12.355  0.00  0.00    -0.171 F 
HETATM    8  F   UNK N   1      23.473  13.035  10.578  0.00  0.00    -0.171 F 
ENDBRANCH   1   5
TORSDOF 2
ENDMDL
MODEL 5
REMARK VINA RESULT:      -3.6     13.826     14.832
REMARK  2 active torsions:
REMARK  status: ('A' for Active; 'I' for Inactive)
REMARK    1  A    between atoms: C_2  and  C_1 
REMARK    2  A    between atoms: C_3  and  C_1 
ROOT
HETATM    1  C   UNK N   1      34.863  13.274  17.025  0.00  0.00     0.188 C 
ENDROOT
BRANCH   1   2
HETATM    2  C   UNK N   1      35.361  13.831  18.355  0.00  0.00     0.361 C 
HETATM    3  F   UNK N   1      34.991  15.158  18.451  0.00  0.00    -0.214 F 
HETATM    4  F   UNK N   1      34.817  13.134  19.418  0.00  0.00    -0.214 F 
ENDBRANCH   1   2
BRANCH   1   5
HETATM    5  C   UNK N   1      35.901  13.368  15.912  0.00  0.00     0.392 C 
HETATM    6  F   UNK N   1      36.760  14.428  16.135  0.00  0.00    -0.171 F 
HETATM    7  F   UNK N   1      35.247  13.564  14.709  0.00  0.00    -0.171 F 
HETATM    8  F   UNK N   1      36.625  12.192  15.836  0.00  0.00    -0.171 F 
ENDBRANCH   1   5
TORSDOF 2
ENDMDL
MODEL 6
REMARK VINA RESULT:      -3.5     13.481     14.802
REMARK  2 active torsions:
REMARK  status: ('A' for Active; 'I' for Inactive)
REMARK    1  A    between atoms: C_2  and  C_1 
REMARK    2  A    between atoms: C_3  and  C_1 
ROOT
HETATM    1  C   UNK N   1      36.143  12.876  15.907  0.00  0.00     0.188 C 
ENDROOT
BRANCH   1   2
HETATM    2  C   UNK N   1      36.509  14.086  15.053  0.00  0.00     0.361 C 
HETATM    3  F   UNK N   1      37.556  14.758  15.654  0.00  0.00    -0.214 F 
HETATM    4  F   UNK N   1      36.894  13.697  13.784  0.00  0.00    -0.214 F 
ENDBRANCH   1   2
BRANCH   1   5
HETATM    5  C   UNK N   1      35.113  13.196  16.985  0.00  0.00     0.392 C 
HETATM    6  F   UNK N   1      35.505  14.300  17.721  0.00  0.00    -0.171 F 
HETATM    7  F   UNK N   1      35.001  12.108  17.832  0.00  0.00    -0.171 F 
HETATM    8  F   UNK N   1      33.880  13.436  16.408  0.00  0.00    -0.171 F 
ENDBRANCH   1   5
TORSDOF 2
ENDMDL
MODEL 7
REMARK VINA RESULT:      -3.5     20.341     21.510
REMARK  2 active torsions:
REMARK  status: ('A' for Active; 'I' for Inactive)
REMARK    1  A    between atoms: C_2  and  C_1 
REMARK    2  A    between atoms: C_3  and  C_1 
ROOT
HETATM    1  C   UNK N   1      25.778  25.966  -5.012  0.00  0.00     0.188 C 
ENDROOT
BRANCH   1   2
HETATM    2  C   UNK N   1      26.528  25.707  -3.709  0.00  0.00     0.361 C 
HETATM    3  F   UNK N   1      26.504  24.352  -3.442  0.00  0.00    -0.214 F 
HETATM    4  F   UNK N   1      27.842  26.124  -3.803  0.00  0.00    -0.214 F 
ENDBRANCH   1   2
BRANCH   1   5
HETATM    5  C   UNK N   1      25.283  27.403  -5.141  0.00  0.00     0.392 C 
HETATM    6  F   UNK N   1      25.160  27.988  -3.894  0.00  0.00    -0.171 F 
HETATM    7  F   UNK N   1      24.045  27.393  -5.757  0.00  0.00    -0.171 F 
HETATM    8  F   UNK N   1      26.158  28.140  -5.916  0.00  0.00    -0.171 F 
ENDBRANCH   1   5
TORSDOF 2
ENDMDL
MODEL 8
REMARK VINA RESULT:      -3.5     13.642     15.012
REMARK  2 active torsions:
REMARK  status: ('A' for Active; 'I' for Inactive)
REMARK    1  A    between atoms: C_2  and  C_1 
REMARK    2  A    between atoms: C_3  and  C_1 
ROOT
HETATM    1  C   UNK N   1      35.189  12.209  18.166  0.00  0.00     0.188 C 
ENDROOT
BRANCH   1   2
HETATM    2  C   UNK N   1      35.556  12.489  19.620  0.00  0.00     0.361 C 
HETATM    3  F   UNK N   1      34.409  12.829  20.313  0.00  0.00    -0.214 F 
HETATM    4  F   UNK N   1      36.124  11.376  20.210  0.00  0.00    -0.214 F 
ENDBRANCH   1   2
BRANCH   1   5
HETATM    5  C   UNK N   1      35.133  13.470  17.310  0.00  0.00     0.392 C 
HETATM    6  F   UNK N   1      35.124  14.600  18.109  0.00  0.00    -0.171 F 
HETATM    7  F   UNK N   1      33.975  13.444  16.555  0.00  0.00    -0.171 F 
HETATM    8  F   UNK N   1      36.219  13.514  16.456  0.00  0.00    -0.171 F 
ENDBRANCH   1   5
TORSDOF 2
ENDMDL
MODEL 9
REMARK VINA RESULT:      -3.4     20.172     21.535
REMARK  2 active torsions:
REMARK  status: ('A' for Active; 'I' for Inactive)
REMARK    1  A    between atoms: C_2  and  C_1 
REMARK    2  A    between atoms: C_3  and  C_1 
ROOT
HETATM    1  C   UNK N   1      25.815  26.013  -4.956  0.00  0.00     0.188 C 
ENDROOT
BRANCH   1   2
HETATM    2  C   UNK N   1      25.220  27.410  -5.103  0.00  0.00     0.361 C 
HETATM    3  F   UNK N   1      26.110  28.205  -5.799  0.00  0.00    -0.214 F 
HETATM    4  F   UNK N   1      24.022  27.366  -5.793  0.00  0.00    -0.214 F 
ENDBRANCH   1   2
BRANCH   1   5
HETATM    5  C   UNK N   1      26.632  25.843  -3.679  0.00  0.00     0.392 C 
HETATM    6  F   UNK N   1      26.147  26.666  -2.679  0.00  0.00    -0.171 F 
HETATM    7  F   UNK N   1      27.947  26.182  -3.943  0.00  0.00    -0.171 F 
HETATM    8  F   UNK N   1      26.590  24.527  -3.260  0.00  0.00    -0.171 F 
ENDBRANCH   1   5
TORSDOF 2
ENDMDL
