REMARK  6 active torsions:
REMARK  status: ('A' for Active; 'I' for Inactive)
REMARK       I    between atoms: C_2  and  N_4 
REMARK    1  A    between atoms: N_4  and  C_5 
REMARK    2  A    between atoms: C_5  and  C_6 
REMARK       I    between atoms: C_6  and  N_8 
REMARK    3  A    between atoms: C_17  and  N_19 
REMARK       I    between atoms: N_19  and  C_20 
REMARK    4  A    between atoms: C_24  and  C_33 
REMARK    5  A    between atoms: C_25  and  N_28 
REMARK    6  A    between atoms: N_28  and  C_29 
ROOT
HETATM    1  N   UNK N   1      -1.822   3.129   0.167  0.00  0.00    -0.192 N 
HETATM    2  C   UNK N   1      -2.995   2.333   0.254  0.00  0.00     0.684 A 
HETATM    3  N   UNK N   1      -2.918   0.979   0.270  0.00  0.00    -0.201 N 
ATOM      4  HN  UNK N   1      -2.004   0.531   0.326  1.00  0.00     0.183 HD
HETATM    5  C   UNK N   1      -4.030   0.213   0.214  0.00  0.00     0.126 A 
HETATM    6  C   UNK N   1      -5.285   0.809   0.139  0.00  0.00     0.107 A 
HETATM    7  C   UNK N   1      -5.351   2.224   0.196  0.00  0.00     0.133 A 
HETATM    8  N   UNK N   1      -4.195   2.936   0.257  0.00  0.00    -0.176 N 
ATOM      9  HN  UNK N   1      -4.240   3.954   0.306  1.00  0.00     0.186 HD
HETATM   10  H   UNK N   1      -1.883   4.097   0.334  0.00  0.00     0.184 HD
ENDROOT
BRANCH   1  11
HETATM   11  C   UNK N   1      -0.571   2.559  -0.155  0.00  0.00     0.049 A 
HETATM   12  C   UNK N   1      -0.504   1.294  -0.795  0.00  0.00     0.030 A 
HETATM   13  C   UNK N   1       0.691   0.588  -0.871  0.00  0.00     0.012 A 
HETATM   14  C   UNK N   1       1.806   1.187  -0.324  0.00  0.00    -0.027 A 
HETATM   15  C   UNK N   1       1.781   2.464   0.194  0.00  0.00    -0.025 A 
HETATM   16  C   UNK N   1       3.141   0.609  -0.054  0.00  0.00     0.121 C 
HETATM   17  C   UNK N   1       3.136   2.760   0.736  0.00  0.00     0.122 C 
HETATM   18  C   UNK N   1       0.596   3.174   0.314  0.00  0.00     0.039 A 
HETATM   19  C   UNK N   1       3.177   1.908   2.022  0.00  0.00     0.033 C 
HETATM   20  N   UNK N   1       3.846   1.837  -0.095  0.00  0.00    -0.333 N 
HETATM   21  C   UNK N   1       3.163   0.430   1.480  0.00  0.00     0.033 C 
HETATM   22  C   UNK N   1       4.976   2.063  -0.810  0.00  0.00     0.238 C 
HETATM   23  O   UNK N   1       5.477   3.175  -0.838  0.00  0.00    -0.272 OA
BRANCH  22  24
HETATM   24  C   UNK N   1       5.640   0.927  -1.530  0.00  0.00     0.225 C 
BRANCH  24  25
HETATM   25  N   UNK N   1       6.246   0.059  -0.545  0.00  0.00    -0.353 N 
HETATM   26  C   UNK N   1       5.779  -1.180  -0.254  0.00  0.00     0.213 C 
HETATM   27  C   UNK N   1       6.446  -1.982   0.809  0.00  0.00     0.117 C 
HETATM   28  O   UNK N   1       4.805  -1.638  -0.833  0.00  0.00    -0.274 OA
HETATM   29  H   UNK N   1       7.039   0.384  -0.061  0.00  0.00     0.162 HD
ENDBRANCH  24  25
ENDBRANCH  22  24
ENDBRANCH   1  11
BRANCH   7  30
HETATM   30  N   UNK N   1      -6.582   2.930   0.144  0.00  0.00    -0.370 N 
HETATM   31  H   UNK N   1      -7.397   2.434  -0.102  0.00  0.00     0.161 HD
BRANCH  30  32
HETATM   32  C   UNK N   1      -6.698   4.353   0.436  0.00  0.00     0.083 A 
HETATM   33  C   UNK N   1      -7.702   4.983  -0.508  0.00  0.00     0.025 A 
HETATM   34  C   UNK N   1      -6.612   5.822  -1.143  0.00  0.00     0.004 A 
HETATM   35  C   UNK N   1      -5.604   5.203  -0.210  0.00  0.00     0.025 A 
ENDBRANCH  30  32
ENDBRANCH   7  30
BRANCH   6  36
HETATM   36  C   UNK N   1      -6.466  -0.112  -0.024  0.00  0.00     0.422 C 
HETATM   37  F   UNK N   1      -6.284  -0.853  -1.180  0.00  0.00    -0.166 F 
HETATM   38  F   UNK N   1      -7.663   0.566  -0.123  0.00  0.00    -0.166 F 
HETATM   39  F   UNK N   1      -6.528  -0.981   1.051  0.00  0.00    -0.166 F 
ENDBRANCH   6  36
TORSDOF 6
