MODEL 1
REMARK VINA RESULT:      -9.3      0.000      0.000
REMARK  7 active torsions:
REMARK  status: ('A' for Active; 'I' for Inactive)
REMARK    1  A    between atoms: C_4  and  C_7 
REMARK    2  A    between atoms: C_8  and  C_7 
REMARK    3  A    between atoms: C_13  and  C_19 
REMARK    4  A    between atoms: C_17  and  O_18 
REMARK    5  A    between atoms: C_21  and  C_28 
REMARK    6  A    between atoms: C_24  and  C_25 
REMARK    7  A    between atoms: C_25  and  O_27 
ROOT
HETATM    1  C   UNK N   1      20.858  14.827   8.654  0.00  0.00     0.048 C 
HETATM    2  C   UNK N   1      20.348  16.221   9.066  0.00  0.00     0.183 C 
HETATM    3  O   UNK N   1      20.674  17.190   8.113  0.00  0.00    -0.350 OA
HETATM    4  C   UNK N   1      21.174  16.886   6.882  0.00  0.00     0.078 A 
HETATM    5  C   UNK N   1      21.853  17.849   6.142  0.00  0.00     0.049 A 
HETATM    6  C   UNK N   1      22.501  17.515   4.933  0.00  0.00    -0.022 A 
HETATM    7  C   UNK N   1      22.409  16.196   4.471  0.00  0.00     0.013 A 
HETATM    8  C   UNK N   1      21.704  15.231   5.190  0.00  0.00     0.013 A 
HETATM    9  C   UNK N   1      21.079  15.577   6.392  0.00  0.00     0.004 A 
HETATM   10  C   UNK N   1      20.354  14.576   7.230  0.00  0.00     0.160 C 
ENDROOT
BRANCH   6  11
HETATM   11  C   UNK N   1      23.206  18.595   4.176  0.00  0.00    -0.008 A 
HETATM   12  C   UNK N   1      24.605  18.576   4.301  0.00  0.00     0.029 A 
HETATM   13  C   UNK N   1      25.424  19.525   3.704  0.00  0.00     0.048 A 
HETATM   14  C   UNK N   1      24.850  20.533   2.936  0.00  0.00     0.017 A 
HETATM   15  C   UNK N   1      23.468  20.578   2.770  0.00  0.00     0.020 A 
HETATM   16  C   UNK N   1      22.613  19.636   3.369  0.00  0.00     0.048 A 
BRANCH  13  17
HETATM   17  C   UNK N   1      26.909  19.472   3.906  0.00  0.00     0.417 C 
HETATM   18  F   UNK N   1      27.517  20.450   3.142  0.00  0.00    -0.166 F 
HETATM   19  F   UNK N   1      27.199  19.688   5.241  0.00  0.00    -0.166 F 
HETATM   20  F   UNK N   1      27.418  18.237   3.538  0.00  0.00    -0.166 F 
ENDBRANCH  13  17
BRANCH  16  21
HETATM   21  C   UNK N   1      21.161  19.797   3.032  0.00  0.00     0.177 C 
HETATM   22  O   UNK N   1      20.666  19.310   2.036  0.00  0.00    -0.646 OA
BRANCH  21  23
HETATM   23  O   UNK N   1      20.386  20.572   3.820  0.00  0.00    -0.773 OA
HETATM   24  H   UNK N   1      20.418  20.488   4.753  0.00  0.00     0.167 HD
ENDBRANCH  21  23
ENDBRANCH  16  21
ENDBRANCH   6  11
BRANCH  10  25
HETATM   25  O   UNK N   1      20.589  13.281   6.760  0.00  0.00    -0.390 OA
HETATM   26  H   UNK N   1      19.897  12.765   6.318  0.00  0.00     0.210 HD
ENDBRANCH  10  25
BRANCH   1  27
HETATM   27  C   UNK N   1      20.582  13.739   9.689  0.00  0.00     0.048 C 
BRANCH  27  28
HETATM   28  C   UNK N   1      21.878  13.098  10.074  0.00  0.00    -0.058 A 
HETATM   29  C   UNK N   1      23.037  13.404   9.355  0.00  0.00     0.007 A 
HETATM   30  C   UNK N   1      24.276  12.920   9.788  0.00  0.00     0.001 A 
HETATM   31  C   UNK N   1      24.360  12.145  10.948  0.00  0.00     0.000 A 
HETATM   32  C   UNK N   1      23.203  11.833  11.667  0.00  0.00     0.001 A 
HETATM   33  C   UNK N   1      21.963  12.308  11.232  0.00  0.00     0.007 A 
ENDBRANCH  27  28
ENDBRANCH   1  27
TORSDOF 7
ENDMDL
MODEL 2
REMARK VINA RESULT:      -8.5      9.873     12.075
REMARK  7 active torsions:
REMARK  status: ('A' for Active; 'I' for Inactive)
REMARK    1  A    between atoms: C_4  and  C_7 
REMARK    2  A    between atoms: C_8  and  C_7 
REMARK    3  A    between atoms: C_13  and  C_19 
REMARK    4  A    between atoms: C_17  and  O_18 
REMARK    5  A    between atoms: C_21  and  C_28 
REMARK    6  A    between atoms: C_24  and  C_25 
REMARK    7  A    between atoms: C_25  and  O_27 
ROOT
HETATM    1  C   UNK N   1      35.911  13.836  11.043  0.00  0.00     0.048 C 
HETATM    2  C   UNK N   1      35.431  12.761  10.050  0.00  0.00     0.183 C 
HETATM    3  O   UNK N   1      34.557  13.294   9.098  0.00  0.00    -0.350 OA
HETATM    4  C   UNK N   1      34.349  14.632   8.945  0.00  0.00     0.078 A 
HETATM    5  C   UNK N   1      33.208  15.096   8.298  0.00  0.00     0.049 A 
HETATM    6  C   UNK N   1      32.904  16.475   8.257  0.00  0.00    -0.022 A 
HETATM    7  C   UNK N   1      33.803  17.372   8.845  0.00  0.00     0.013 A 
HETATM    8  C   UNK N   1      34.966  16.919   9.468  0.00  0.00     0.013 A 
HETATM    9  C   UNK N   1      35.244  15.549   9.511  0.00  0.00     0.004 A 
HETATM   10  C   UNK N   1      36.446  15.002  10.207  0.00  0.00     0.160 C 
ENDROOT
BRANCH   6  11
HETATM   11  C   UNK N   1      31.668  16.914   7.539  0.00  0.00    -0.008 A 
HETATM   12  C   UNK N   1      30.641  17.377   8.377  0.00  0.00     0.029 A 
HETATM   13  C   UNK N   1      29.406  17.788   7.894  0.00  0.00     0.048 A 
HETATM   14  C   UNK N   1      29.167  17.758   6.524  0.00  0.00     0.017 A 
HETATM   15  C   UNK N   1      30.165  17.324   5.654  0.00  0.00     0.020 A 
HETATM   16  C   UNK N   1      31.422  16.895   6.115  0.00  0.00     0.048 A 
BRANCH  13  17
HETATM   17  C   UNK N   1      28.336  18.237   8.844  0.00  0.00     0.417 C 
HETATM   18  F   UNK N   1      27.468  17.191   9.095  0.00  0.00    -0.166 F 
HETATM   19  F   UNK N   1      28.917  18.645  10.031  0.00  0.00    -0.166 F 
HETATM   20  F   UNK N   1      27.616  19.298   8.318  0.00  0.00    -0.166 F 
ENDBRANCH  13  17
BRANCH  16  21
HETATM   21  C   UNK N   1      32.396  16.522   5.039  0.00  0.00     0.177 C 
HETATM   22  O   UNK N   1      32.641  15.368   4.754  0.00  0.00    -0.646 OA
BRANCH  21  23
HETATM   23  O   UNK N   1      33.085  17.498   4.410  0.00  0.00    -0.773 OA
HETATM   24  H   UNK N   1      33.179  17.493   3.477  0.00  0.00     0.167 HD
ENDBRANCH  21  23
ENDBRANCH  16  21
ENDBRANCH   6  11
BRANCH  10  25
HETATM   25  O   UNK N   1      37.077  16.000  10.954  0.00  0.00    -0.390 OA
HETATM   26  H   UNK N   1      38.030  16.167  10.883  0.00  0.00     0.210 HD
ENDBRANCH  10  25
BRANCH   1  27
HETATM   27  C   UNK N   1      36.823  13.296  12.143  0.00  0.00     0.048 C 
BRANCH  27  28
HETATM   28  C   UNK N   1      36.020  13.124  13.394  0.00  0.00    -0.058 A 
HETATM   29  C   UNK N   1      34.963  12.209  13.414  0.00  0.00     0.007 A 
HETATM   30  C   UNK N   1      34.295  11.939  14.612  0.00  0.00     0.001 A 
HETATM   31  C   UNK N   1      34.692  12.569  15.795  0.00  0.00     0.000 A 
HETATM   32  C   UNK N   1      35.745  13.488  15.779  0.00  0.00     0.001 A 
HETATM   33  C   UNK N   1      36.409  13.766  14.582  0.00  0.00     0.007 A 
ENDBRANCH  27  28
ENDBRANCH   1  27
TORSDOF 7
ENDMDL
MODEL 3
REMARK VINA RESULT:      -8.2      9.547     11.880
REMARK  7 active torsions:
REMARK  status: ('A' for Active; 'I' for Inactive)
REMARK    1  A    between atoms: C_4  and  C_7 
REMARK    2  A    between atoms: C_8  and  C_7 
REMARK    3  A    between atoms: C_13  and  C_19 
REMARK    4  A    between atoms: C_17  and  O_18 
REMARK    5  A    between atoms: C_21  and  C_28 
REMARK    6  A    between atoms: C_24  and  C_25 
REMARK    7  A    between atoms: C_25  and  O_27 
ROOT
HETATM    1  C   UNK N   1      35.902  13.853  10.834  0.00  0.00     0.048 C 
HETATM    2  C   UNK N   1      35.575  12.822   9.738  0.00  0.00     0.183 C 
HETATM    3  O   UNK N   1      34.703  13.347   8.781  0.00  0.00    -0.350 OA
HETATM    4  C   UNK N   1      34.377  14.669   8.716  0.00  0.00     0.078 A 
HETATM    5  C   UNK N   1      33.231  15.078   8.042  0.00  0.00     0.049 A 
HETATM    6  C   UNK N   1      32.801  16.423   8.086  0.00  0.00    -0.022 A 
HETATM    7  C   UNK N   1      33.582  17.348   8.789  0.00  0.00     0.013 A 
HETATM    8  C   UNK N   1      34.750  16.953   9.441  0.00  0.00     0.013 A 
HETATM    9  C   UNK N   1      35.153  15.615   9.398  0.00  0.00     0.004 A 
HETATM   10  C   UNK N   1      36.366  15.125  10.118  0.00  0.00     0.160 C 
ENDROOT
BRANCH   6  11
HETATM   11  C   UNK N   1      31.566  16.804   7.333  0.00  0.00    -0.008 A 
HETATM   12  C   UNK N   1      31.609  16.516   5.959  0.00  0.00     0.029 A 
HETATM   13  C   UNK N   1      30.572  16.836   5.093  0.00  0.00     0.048 A 
HETATM   14  C   UNK N   1      29.433  17.455   5.596  0.00  0.00     0.017 A 
HETATM   15  C   UNK N   1      29.340  17.741   6.956  0.00  0.00     0.020 A 
HETATM   16  C   UNK N   1      30.377  17.436   7.855  0.00  0.00     0.048 A 
BRANCH  13  17
HETATM   17  C   UNK N   1      30.694  16.536   3.628  0.00  0.00     0.417 C 
HETATM   18  F   UNK N   1      30.949  15.190   3.449  0.00  0.00    -0.166 F 
HETATM   19  F   UNK N   1      29.512  16.867   2.992  0.00  0.00    -0.166 F 
HETATM   20  F   UNK N   1      31.723  17.266   3.055  0.00  0.00    -0.166 F 
ENDBRANCH  13  17
BRANCH  16  21
HETATM   21  C   UNK N   1      30.083  17.755   9.290  0.00  0.00     0.177 C 
HETATM   22  O   UNK N   1      30.006  18.895   9.701  0.00  0.00    -0.646 OA
BRANCH  21  23
HETATM   23  O   UNK N   1      29.973  16.744  10.178  0.00  0.00    -0.773 OA
HETATM   24  H   UNK N   1      30.193  16.874  11.080  0.00  0.00     0.167 HD
ENDBRANCH  21  23
ENDBRANCH  16  21
ENDBRANCH   6  11
BRANCH  10  25
HETATM   25  O   UNK N   1      36.862  16.113  10.972  0.00  0.00    -0.390 OA
HETATM   26  H   UNK N   1      36.669  16.111  11.923  0.00  0.00     0.210 HD
ENDBRANCH  10  25
BRANCH   1  27
HETATM   27  C   UNK N   1      36.805  13.312  11.941  0.00  0.00     0.048 C 
BRANCH  27  28
HETATM   28  C   UNK N   1      35.980  13.083  13.168  0.00  0.00    -0.058 A 
HETATM   29  C   UNK N   1      34.992  12.094  13.159  0.00  0.00     0.007 A 
HETATM   30  C   UNK N   1      34.310  11.777  14.338  0.00  0.00     0.001 A 
HETATM   31  C   UNK N   1      34.625  12.435  15.530  0.00  0.00     0.000 A 
HETATM   32  C   UNK N   1      35.609  13.428  15.542  0.00  0.00     0.001 A 
HETATM   33  C   UNK N   1      36.286  13.753  14.365  0.00  0.00     0.007 A 
ENDBRANCH  27  28
ENDBRANCH   1  27
TORSDOF 7
ENDMDL
MODEL 4
REMARK VINA RESULT:      -8.0     11.797     15.521
REMARK  7 active torsions:
REMARK  status: ('A' for Active; 'I' for Inactive)
REMARK    1  A    between atoms: C_4  and  C_7 
REMARK    2  A    between atoms: C_8  and  C_7 
REMARK    3  A    between atoms: C_13  and  C_19 
REMARK    4  A    between atoms: C_17  and  O_18 
REMARK    5  A    between atoms: C_21  and  C_28 
REMARK    6  A    between atoms: C_24  and  C_25 
REMARK    7  A    between atoms: C_25  and  O_27 
ROOT
HETATM    1  C   UNK N   1      33.456  16.711   7.688  0.00  0.00     0.048 C 
HETATM    2  C   UNK N   1      32.321  15.774   8.139  0.00  0.00     0.183 C 
HETATM    3  O   UNK N   1      32.684  15.032   9.266  0.00  0.00    -0.350 OA
HETATM    4  C   UNK N   1      33.809  15.283   9.993  0.00  0.00     0.078 A 
HETATM    5  C   UNK N   1      34.339  14.304  10.828  0.00  0.00     0.049 A 
HETATM    6  C   UNK N   1      35.580  14.493  11.475  0.00  0.00    -0.022 A 
HETATM    7  C   UNK N   1      36.247  15.711  11.292  0.00  0.00     0.013 A 
HETATM    8  C   UNK N   1      35.708  16.711  10.483  0.00  0.00     0.013 A 
HETATM    9  C   UNK N   1      34.484  16.501   9.839  0.00  0.00     0.004 A 
HETATM   10  C   UNK N   1      33.883  17.513   8.921  0.00  0.00     0.160 C 
ENDROOT
BRANCH   6  11
HETATM   11  C   UNK N   1      36.094  13.410  12.368  0.00  0.00    -0.008 A 
HETATM   12  C   UNK N   1      35.376  13.252  13.565  0.00  0.00     0.029 A 
HETATM   13  C   UNK N   1      35.731  12.325  14.535  0.00  0.00     0.048 A 
HETATM   14  C   UNK N   1      36.831  11.502  14.320  0.00  0.00     0.017 A 
HETATM   15  C   UNK N   1      37.560  11.611  13.138  0.00  0.00     0.020 A 
HETATM   16  C   UNK N   1      37.229  12.546  12.141  0.00  0.00     0.048 A 
BRANCH  13  17
HETATM   17  C   UNK N   1      34.947  12.231  15.811  0.00  0.00     0.417 C 
HETATM   18  F   UNK N   1      34.057  13.285  15.888  0.00  0.00    -0.166 F 
HETATM   19  F   UNK N   1      34.247  11.038  15.833  0.00  0.00    -0.166 F 
HETATM   20  F   UNK N   1      35.784  12.272  16.914  0.00  0.00    -0.166 F 
ENDBRANCH  13  17
BRANCH  16  21
HETATM   21  C   UNK N   1      38.080  12.483  10.909  0.00  0.00     0.177 C 
HETATM   22  O   UNK N   1      37.987  11.583  10.099  0.00  0.00    -0.646 OA
BRANCH  21  23
HETATM   23  O   UNK N   1      39.038  13.416  10.723  0.00  0.00    -0.773 OA
HETATM   24  H   UNK N   1      39.868  13.340  11.152  0.00  0.00     0.167 HD
ENDBRANCH  21  23
ENDBRANCH  16  21
ENDBRANCH   6  11
BRANCH  10  25
HETATM   25  O   UNK N   1      34.797  18.535   8.651  0.00  0.00    -0.390 OA
HETATM   26  H   UNK N   1      35.227  18.620   7.785  0.00  0.00     0.210 HD
ENDBRANCH  10  25
BRANCH   1  27
HETATM   27  C   UNK N   1      33.136  17.504   6.422  0.00  0.00     0.048 C 
BRANCH  27  28
HETATM   28  C   UNK N   1      33.474  16.666   5.229  0.00  0.00    -0.058 A 
HETATM   29  C   UNK N   1      34.271  15.529   5.390  0.00  0.00     0.007 A 
HETATM   30  C   UNK N   1      34.481  14.665   4.311  0.00  0.00     0.001 A 
HETATM   31  C   UNK N   1      33.880  14.925   3.076  0.00  0.00     0.000 A 
HETATM   32  C   UNK N   1      33.086  16.064   2.910  0.00  0.00     0.001 A 
HETATM   33  C   UNK N   1      32.882  16.934   3.983  0.00  0.00     0.007 A 
ENDBRANCH  27  28
ENDBRANCH   1  27
TORSDOF 7
ENDMDL
MODEL 5
REMARK VINA RESULT:      -7.9     14.160     16.736
REMARK  7 active torsions:
REMARK  status: ('A' for Active; 'I' for Inactive)
REMARK    1  A    between atoms: C_4  and  C_7 
REMARK    2  A    between atoms: C_8  and  C_7 
REMARK    3  A    between atoms: C_13  and  C_19 
REMARK    4  A    between atoms: C_17  and  O_18 
REMARK    5  A    between atoms: C_21  and  C_28 
REMARK    6  A    between atoms: C_24  and  C_25 
REMARK    7  A    between atoms: C_25  and  O_27 
ROOT
HETATM    1  C   UNK N   1      26.169  26.407  -5.228  0.00  0.00     0.048 C 
HETATM    2  C   UNK N   1      25.664  25.600  -6.438  0.00  0.00     0.183 C 
HETATM    3  O   UNK N   1      26.365  24.399  -6.584  0.00  0.00    -0.350 OA
HETATM    4  C   UNK N   1      27.220  23.916  -5.640  0.00  0.00     0.078 A 
HETATM    5  C   UNK N   1      28.180  22.969  -5.980  0.00  0.00     0.049 A 
HETATM    6  C   UNK N   1      29.165  22.565  -5.052  0.00  0.00    -0.022 A 
HETATM    7  C   UNK N   1      29.127  23.109  -3.762  0.00  0.00     0.013 A 
HETATM    8  C   UNK N   1      28.149  24.036  -3.402  0.00  0.00     0.013 A 
HETATM    9  C   UNK N   1      27.190  24.434  -4.338  0.00  0.00     0.004 A 
HETATM   10  C   UNK N   1      26.150  25.459  -4.026  0.00  0.00     0.160 C 
ENDROOT
BRANCH   6  11
HETATM   11  C   UNK N   1      30.165  21.535  -5.472  0.00  0.00    -0.008 A 
HETATM   12  C   UNK N   1      29.759  20.738  -6.555  0.00  0.00     0.029 A 
HETATM   13  C   UNK N   1      30.538  19.704  -7.058  0.00  0.00     0.048 A 
HETATM   14  C   UNK N   1      31.778  19.445  -6.484  0.00  0.00     0.017 A 
HETATM   15  C   UNK N   1      32.228  20.224  -5.420  0.00  0.00     0.020 A 
HETATM   16  C   UNK N   1      31.458  21.272  -4.885  0.00  0.00     0.048 A 
BRANCH  13  17
HETATM   17  C   UNK N   1      30.033  18.863  -8.193  0.00  0.00     0.417 C 
HETATM   18  F   UNK N   1      29.119  17.942  -7.718  0.00  0.00    -0.166 F 
HETATM   19  F   UNK N   1      29.420  19.676  -9.129  0.00  0.00    -0.166 F 
HETATM   20  F   UNK N   1      31.072  18.185  -8.810  0.00  0.00    -0.166 F 
ENDBRANCH  13  17
BRANCH  16  21
HETATM   21  C   UNK N   1      32.122  22.046  -3.787  0.00  0.00     0.177 C 
HETATM   22  O   UNK N   1      32.710  23.089  -3.989  0.00  0.00    -0.646 OA
BRANCH  21  23
HETATM   23  O   UNK N   1      32.136  21.533  -2.538  0.00  0.00    -0.773 OA
HETATM   24  H   UNK N   1      31.459  20.951  -2.252  0.00  0.00     0.167 HD
ENDBRANCH  21  23
ENDBRANCH  16  21
ENDBRANCH   6  11
BRANCH  10  25
HETATM   25  O   UNK N   1      26.424  26.079  -2.804  0.00  0.00    -0.390 OA
HETATM   26  H   UNK N   1      26.039  26.938  -2.569  0.00  0.00     0.210 HD
ENDBRANCH  10  25
BRANCH   1  27
HETATM   27  C   UNK N   1      25.479  27.759  -5.057  0.00  0.00     0.048 C 
BRANCH  27  28
HETATM   28  C   UNK N   1      26.521  28.832  -5.020  0.00  0.00    -0.058 A 
HETATM   29  C   UNK N   1      27.507  28.868  -6.009  0.00  0.00     0.007 A 
HETATM   30  C   UNK N   1      28.402  29.942  -6.065  0.00  0.00     0.001 A 
HETATM   31  C   UNK N   1      28.301  30.988  -5.144  0.00  0.00     0.000 A 
HETATM   32  C   UNK N   1      27.319  30.953  -4.150  0.00  0.00     0.001 A 
HETATM   33  C   UNK N   1      26.430  29.879  -4.087  0.00  0.00     0.007 A 
ENDBRANCH  27  28
ENDBRANCH   1  27
TORSDOF 7
ENDMDL
MODEL 6
REMARK VINA RESULT:      -7.9     13.958     16.508
REMARK  7 active torsions:
REMARK  status: ('A' for Active; 'I' for Inactive)
REMARK    1  A    between atoms: C_4  and  C_7 
REMARK    2  A    between atoms: C_8  and  C_7 
REMARK    3  A    between atoms: C_13  and  C_19 
REMARK    4  A    between atoms: C_17  and  O_18 
REMARK    5  A    between atoms: C_21  and  C_28 
REMARK    6  A    between atoms: C_24  and  C_25 
REMARK    7  A    between atoms: C_25  and  O_27 
ROOT
HETATM    1  C   UNK N   1      26.265  26.004  -5.441  0.00  0.00     0.048 C 
HETATM    2  C   UNK N   1      25.881  25.145  -6.660  0.00  0.00     0.183 C 
HETATM    3  O   UNK N   1      26.683  24.004  -6.758  0.00  0.00    -0.350 OA
HETATM    4  C   UNK N   1      27.531  23.603  -5.770  0.00  0.00     0.078 A 
HETATM    5  C   UNK N   1      28.579  22.733  -6.054  0.00  0.00     0.049 A 
HETATM    6  C   UNK N   1      29.550  22.420  -5.078  0.00  0.00    -0.022 A 
HETATM    7  C   UNK N   1      29.411  22.973  -3.799  0.00  0.00     0.013 A 
HETATM    8  C   UNK N   1      28.345  23.821  -3.496  0.00  0.00     0.013 A 
HETATM    9  C   UNK N   1      27.400  24.130  -4.478  0.00  0.00     0.004 A 
HETATM   10  C   UNK N   1      26.268  25.070  -4.227  0.00  0.00     0.160 C 
ENDROOT
BRANCH   6  11
HETATM   11  C   UNK N   1      30.648  21.471  -5.439  0.00  0.00    -0.008 A 
HETATM   12  C   UNK N   1      31.696  21.411  -4.505  0.00  0.00     0.029 A 
HETATM   13  C   UNK N   1      32.820  20.617  -4.690  0.00  0.00     0.048 A 
HETATM   14  C   UNK N   1      32.920  19.835  -5.835  0.00  0.00     0.017 A 
HETATM   15  C   UNK N   1      31.895  19.849  -6.779  0.00  0.00     0.020 A 
HETATM   16  C   UNK N   1      30.748  20.649  -6.622  0.00  0.00     0.048 A 
BRANCH  13  17
HETATM   17  C   UNK N   1      33.923  20.624  -3.674  0.00  0.00     0.417 C 
HETATM   18  F   UNK N   1      34.538  19.387  -3.646  0.00  0.00    -0.166 F 
HETATM   19  F   UNK N   1      34.854  21.590  -4.012  0.00  0.00    -0.166 F 
HETATM   20  F   UNK N   1      33.433  20.908  -2.409  0.00  0.00    -0.166 F 
ENDBRANCH  13  17
BRANCH  16  21
HETATM   21  C   UNK N   1      29.718  20.493  -7.700  0.00  0.00     0.177 C 
HETATM   22  O   UNK N   1      28.810  19.692  -7.622  0.00  0.00    -0.646 OA
BRANCH  21  23
HETATM   23  O   UNK N   1      29.841  21.215  -8.835  0.00  0.00    -0.773 OA
HETATM   24  H   UNK N   1      29.084  21.562  -9.265  0.00  0.00     0.167 HD
ENDBRANCH  21  23
ENDBRANCH  16  21
ENDBRANCH   6  11
BRANCH  10  25
HETATM   25  O   UNK N   1      26.435  25.723  -3.003  0.00  0.00    -0.390 OA
HETATM   26  H   UNK N   1      27.190  26.308  -2.835  0.00  0.00     0.210 HD
ENDBRANCH  10  25
BRANCH   1  27
HETATM   27  C   UNK N   1      25.460  27.296  -5.319  0.00  0.00     0.048 C 
BRANCH  27  28
HETATM   28  C   UNK N   1      26.408  28.440  -5.140  0.00  0.00    -0.058 A 
HETATM   29  C   UNK N   1      27.400  28.668  -6.098  0.00  0.00     0.007 A 
HETATM   30  C   UNK N   1      28.203  29.810  -6.014  0.00  0.00     0.001 A 
HETATM   31  C   UNK N   1      28.003  30.735  -4.985  0.00  0.00     0.000 A 
HETATM   32  C   UNK N   1      27.015  30.508  -4.023  0.00  0.00     0.001 A 
HETATM   33  C   UNK N   1      26.218  29.364  -4.099  0.00  0.00     0.007 A 
ENDBRANCH  27  28
ENDBRANCH   1  27
TORSDOF 7
ENDMDL
MODEL 7
REMARK VINA RESULT:      -7.8     14.724     16.695
REMARK  7 active torsions:
REMARK  status: ('A' for Active; 'I' for Inactive)
REMARK    1  A    between atoms: C_4  and  C_7 
REMARK    2  A    between atoms: C_8  and  C_7 
REMARK    3  A    between atoms: C_13  and  C_19 
REMARK    4  A    between atoms: C_17  and  O_18 
REMARK    5  A    between atoms: C_21  and  C_28 
REMARK    6  A    between atoms: C_24  and  C_25 
REMARK    7  A    between atoms: C_25  and  O_27 
ROOT
HETATM    1  C   UNK N   1      27.110  28.920  -4.623  0.00  0.00     0.048 C 
HETATM    2  C   UNK N   1      27.423  29.124  -6.116  0.00  0.00     0.183 C 
HETATM    3  O   UNK N   1      27.365  27.919  -6.823  0.00  0.00    -0.350 OA
HETATM    4  C   UNK N   1      26.872  26.766  -6.290  0.00  0.00     0.078 A 
HETATM    5  C   UNK N   1      27.198  25.536  -6.852  0.00  0.00     0.049 A 
HETATM    6  C   UNK N   1      26.816  24.327  -6.231  0.00  0.00    -0.022 A 
HETATM    7  C   UNK N   1      26.060  24.393  -5.055  0.00  0.00     0.013 A 
HETATM    8  C   UNK N   1      25.700  25.622  -4.501  0.00  0.00     0.013 A 
HETATM    9  C   UNK N   1      26.099  26.809  -5.122  0.00  0.00     0.004 A 
HETATM   10  C   UNK N   1      25.787  28.152  -4.549  0.00  0.00     0.160 C 
ENDROOT
BRANCH   6  11
HETATM   11  C   UNK N   1      27.188  23.036  -6.888  0.00  0.00    -0.008 A 
HETATM   12  C   UNK N   1      28.394  22.477  -6.434  0.00  0.00     0.029 A 
HETATM   13  C   UNK N   1      28.920  21.304  -6.956  0.00  0.00     0.048 A 
HETATM   14  C   UNK N   1      28.229  20.636  -7.960  0.00  0.00     0.017 A 
HETATM   15  C   UNK N   1      27.019  21.144  -8.428  0.00  0.00     0.020 A 
HETATM   16  C   UNK N   1      26.465  22.334  -7.923  0.00  0.00     0.048 A 
BRANCH  13  17
HETATM   17  C   UNK N   1      30.233  20.778  -6.454  0.00  0.00     0.417 C 
HETATM   18  F   UNK N   1      31.265  21.535  -6.974  0.00  0.00    -0.166 F 
HETATM   19  F   UNK N   1      30.260  20.851  -5.074  0.00  0.00    -0.166 F 
HETATM   20  F   UNK N   1      30.415  19.456  -6.830  0.00  0.00    -0.166 F 
ENDBRANCH  13  17
BRANCH  16  21
HETATM   21  C   UNK N   1      25.128  22.700  -8.494  0.00  0.00     0.177 C 
HETATM   22  O   UNK N   1      24.977  23.638  -9.249  0.00  0.00    -0.646 OA
BRANCH  21  23
HETATM   23  O   UNK N   1      24.035  22.012  -8.099  0.00  0.00    -0.773 OA
HETATM   24  H   UNK N   1      23.297  21.919  -8.670  0.00  0.00     0.167 HD
ENDBRANCH  21  23
ENDBRANCH  16  21
ENDBRANCH   6  11
BRANCH  10  25
HETATM   25  O   UNK N   1      25.270  28.026  -3.258  0.00  0.00    -0.390 OA
HETATM   26  H   UNK N   1      25.514  28.639  -2.547  0.00  0.00     0.210 HD
ENDBRANCH  10  25
BRANCH   1  27
HETATM   27  C   UNK N   1      27.218  30.196  -3.790  0.00  0.00     0.048 C 
BRANCH  27  28
HETATM   28  C   UNK N   1      28.406  30.084  -2.887  0.00  0.00    -0.058 A 
HETATM   29  C   UNK N   1      28.274  30.401  -1.532  0.00  0.00     0.007 A 
HETATM   30  C   UNK N   1      29.337  30.171  -0.653  0.00  0.00     0.001 A 
HETATM   31  C   UNK N   1      30.526  29.607  -1.122  0.00  0.00     0.000 A 
HETATM   32  C   UNK N   1      30.664  29.293  -2.477  0.00  0.00     0.001 A 
HETATM   33  C   UNK N   1      29.608  29.530  -3.359  0.00  0.00     0.007 A 
ENDBRANCH  27  28
ENDBRANCH   1  27
TORSDOF 7
ENDMDL
MODEL 8
REMARK VINA RESULT:      -7.8      4.463      7.415
REMARK  7 active torsions:
REMARK  status: ('A' for Active; 'I' for Inactive)
REMARK    1  A    between atoms: C_4  and  C_7 
REMARK    2  A    between atoms: C_8  and  C_7 
REMARK    3  A    between atoms: C_13  and  C_19 
REMARK    4  A    between atoms: C_17  and  O_18 
REMARK    5  A    between atoms: C_21  and  C_28 
REMARK    6  A    between atoms: C_24  and  C_25 
REMARK    7  A    between atoms: C_25  and  O_27 
ROOT
HETATM    1  C   UNK N   1      23.816  18.758   4.042  0.00  0.00     0.048 C 
HETATM    2  C   UNK N   1      24.657  20.015   3.751  0.00  0.00     0.183 C 
HETATM    3  O   UNK N   1      25.979  19.860   4.179  0.00  0.00    -0.350 OA
HETATM    4  C   UNK N   1      26.494  18.667   4.589  0.00  0.00     0.078 A 
HETATM    5  C   UNK N   1      27.644  18.630   5.372  0.00  0.00     0.049 A 
HETATM    6  C   UNK N   1      28.109  17.417   5.925  0.00  0.00    -0.022 A 
HETATM    7  C   UNK N   1      27.410  16.240   5.630  0.00  0.00     0.013 A 
HETATM    8  C   UNK N   1      26.275  16.263   4.820  0.00  0.00     0.013 A 
HETATM    9  C   UNK N   1      25.821  17.475   4.292  0.00  0.00     0.004 A 
HETATM   10  C   UNK N   1      24.584  17.568   3.460  0.00  0.00     0.160 C 
ENDROOT
BRANCH   6  11
HETATM   11  C   UNK N   1      29.356  17.439   6.751  0.00  0.00    -0.008 A 
HETATM   12  C   UNK N   1      30.546  17.338   6.011  0.00  0.00     0.029 A 
HETATM   13  C   UNK N   1      31.799  17.301   6.608  0.00  0.00     0.048 A 
HETATM   14  C   UNK N   1      31.895  17.378   7.993  0.00  0.00     0.017 A 
HETATM   15  C   UNK N   1      30.741  17.498   8.765  0.00  0.00     0.020 A 
HETATM   16  C   UNK N   1      29.459  17.531   8.188  0.00  0.00     0.048 A 
BRANCH  13  17
HETATM   17  C   UNK N   1      33.031  17.154   5.765  0.00  0.00     0.417 C 
HETATM   18  F   UNK N   1      33.231  15.820   5.463  0.00  0.00    -0.166 F 
HETATM   19  F   UNK N   1      32.874  17.871   4.593  0.00  0.00    -0.166 F 
HETATM   20  F   UNK N   1      34.148  17.634   6.430  0.00  0.00    -0.166 F 
ENDBRANCH  13  17
BRANCH  16  21
HETATM   21  C   UNK N   1      28.335  17.728   9.160  0.00  0.00     0.177 C 
HETATM   22  O   UNK N   1      28.069  16.915  10.022  0.00  0.00    -0.646 OA
BRANCH  21  23
HETATM   23  O   UNK N   1      27.538  18.810   9.032  0.00  0.00    -0.773 OA
HETATM   24  H   UNK N   1      27.874  19.672   9.180  0.00  0.00     0.167 HD
ENDBRANCH  21  23
ENDBRANCH  16  21
ENDBRANCH   6  11
BRANCH  10  25
HETATM   25  O   UNK N   1      23.880  16.362   3.492  0.00  0.00    -0.390 OA
HETATM   26  H   UNK N   1      22.977  16.288   3.145  0.00  0.00     0.210 HD
ENDBRANCH  10  25
BRANCH   1  27
HETATM   27  C   UNK N   1      22.347  18.894   3.649  0.00  0.00     0.048 C 
BRANCH  27  28
HETATM   28  C   UNK N   1      21.516  18.090   4.599  0.00  0.00    -0.058 A 
HETATM   29  C   UNK N   1      20.487  17.285   4.102  0.00  0.00     0.007 A 
HETATM   30  C   UNK N   1      19.794  16.426   4.962  0.00  0.00     0.001 A 
HETATM   31  C   UNK N   1      20.141  16.358   6.314  0.00  0.00     0.000 A 
HETATM   32  C   UNK N   1      21.167  17.164   6.816  0.00  0.00     0.001 A 
HETATM   33  C   UNK N   1      21.854  18.029   5.961  0.00  0.00     0.007 A 
ENDBRANCH  27  28
ENDBRANCH   1  27
TORSDOF 7
ENDMDL
MODEL 9
REMARK VINA RESULT:      -7.8     11.302     14.676
REMARK  7 active torsions:
REMARK  status: ('A' for Active; 'I' for Inactive)
REMARK    1  A    between atoms: C_4  and  C_7 
REMARK    2  A    between atoms: C_8  and  C_7 
REMARK    3  A    between atoms: C_13  and  C_19 
REMARK    4  A    between atoms: C_17  and  O_18 
REMARK    5  A    between atoms: C_21  and  C_28 
REMARK    6  A    between atoms: C_24  and  C_25 
REMARK    7  A    between atoms: C_25  and  O_27 
ROOT
HETATM    1  C   UNK N   1      32.878  16.693   7.952  0.00  0.00     0.048 C 
HETATM    2  C   UNK N   1      34.091  17.487   8.472  0.00  0.00     0.183 C 
HETATM    3  O   UNK N   1      34.925  16.693   9.263  0.00  0.00    -0.350 OA
HETATM    4  C   UNK N   1      34.791  15.341   9.363  0.00  0.00     0.078 A 
HETATM    5  C   UNK N   1      35.349  14.656  10.438  0.00  0.00     0.049 A 
HETATM    6  C   UNK N   1      35.099  13.280  10.634  0.00  0.00    -0.022 A 
HETATM    7  C   UNK N   1      34.309  12.607   9.695  0.00  0.00     0.013 A 
HETATM    8  C   UNK N   1      33.772  13.277   8.596  0.00  0.00     0.013 A 
HETATM    9  C   UNK N   1      34.019  14.643   8.424  0.00  0.00     0.004 A 
HETATM   10  C   UNK N   1      33.430  15.423   7.297  0.00  0.00     0.160 C 
ENDROOT
BRANCH   6  11
HETATM   11  C   UNK N   1      35.734  12.597  11.803  0.00  0.00    -0.008 A 
HETATM   12  C   UNK N   1      34.860  12.337  12.871  0.00  0.00     0.029 A 
HETATM   13  C   UNK N   1      35.279  11.746  14.056  0.00  0.00     0.048 A 
HETATM   14  C   UNK N   1      36.612  11.380  14.200  0.00  0.00     0.017 A 
HETATM   15  C   UNK N   1      37.510  11.602  13.158  0.00  0.00     0.020 A 
HETATM   16  C   UNK N   1      37.117  12.205  11.950  0.00  0.00     0.048 A 
BRANCH  13  17
HETATM   17  C   UNK N   1      34.304  11.529  15.175  0.00  0.00     0.417 C 
HETATM   18  F   UNK N   1      33.173  10.898  14.691  0.00  0.00    -0.166 F 
HETATM   19  F   UNK N   1      34.889  10.738  16.147  0.00  0.00    -0.166 F 
HETATM   20  F   UNK N   1      33.931  12.733  15.751  0.00  0.00    -0.166 F 
ENDBRANCH  13  17
BRANCH  16  21
HETATM   21  C   UNK N   1      38.196  12.309  10.915  0.00  0.00     0.177 C 
HETATM   22  O   UNK N   1      38.472  11.392  10.168  0.00  0.00    -0.646 OA
BRANCH  21  23
HETATM   23  O   UNK N   1      38.943  13.432  10.855  0.00  0.00    -0.773 OA
HETATM   24  H   UNK N   1      39.353  13.776  11.625  0.00  0.00     0.167 HD
ENDBRANCH  21  23
ENDBRANCH  16  21
ENDBRANCH   6  11
BRANCH  10  25
HETATM   25  O   UNK N   1      32.470  14.664   6.623  0.00  0.00    -0.390 OA
HETATM   26  H   UNK N   1      32.186  14.882   5.721  0.00  0.00     0.210 HD
ENDBRANCH  10  25
BRANCH   1  27
HETATM   27  C   UNK N   1      31.900  17.529   7.130  0.00  0.00     0.048 C 
BRANCH  27  28
HETATM   28  C   UNK N   1      30.594  17.597   7.857  0.00  0.00    -0.058 A 
HETATM   29  C   UNK N   1      30.522  18.267   9.082  0.00  0.00     0.007 A 
HETATM   30  C   UNK N   1      29.283  18.456   9.704  0.00  0.00     0.001 A 
HETATM   31  C   UNK N   1      28.114  17.992   9.095  0.00  0.00     0.000 A 
HETATM   32  C   UNK N   1      28.182  17.317   7.872  0.00  0.00     0.001 A 
HETATM   33  C   UNK N   1      29.418  17.119   7.253  0.00  0.00     0.007 A 
ENDBRANCH  27  28
ENDBRANCH   1  27
TORSDOF 7
ENDMDL
