MODEL 1
REMARK VINA RESULT:      -7.4      0.000      0.000
REMARK  8 active torsions:
REMARK  status: ('A' for Active; 'I' for Inactive)
REMARK    1  A    between atoms: C_5  and  C_22 
REMARK    2  A    between atoms: C_7  and  O_10 
REMARK    3  A    between atoms: O_10  and  C_11 
REMARK    4  A    between atoms: C_11  and  C_12 
REMARK    5  A    between atoms: C_12  and  C_13 
REMARK    6  A    between atoms: C_13  and  C_14 
REMARK    7  A    between atoms: C_14  and  C_15 
REMARK    8  A    between atoms: C_15  and  N_16 
ROOT
HETATM    1  C   UNK N   1      38.765  12.250  10.318  0.00  0.00     0.089 C 
HETATM    2  C   UNK N   1      37.853  13.184  11.029  0.00  0.00     0.079 A 
HETATM    3  N   UNK N   1      37.371  12.858  12.257  0.00  0.00    -0.345 N 
ATOM      4  HN  UNK N   1      37.640  11.972  12.683  1.00  0.00     0.167 HD
HETATM    5  C   UNK N   1      36.532  13.700  12.926  0.00  0.00     0.047 A 
HETATM    6  C   UNK N   1      36.171  14.911  12.337  0.00  0.00     0.086 A 
HETATM    7  C   UNK N   1      36.701  15.246  11.091  0.00  0.00     0.145 A 
HETATM    8  N   UNK N   1      37.535  14.376  10.463  0.00  0.00    -0.327 N 
ATOM      9  HN  UNK N   1      37.928  14.622   9.554  1.00  0.00     0.169 HD
ENDROOT
BRANCH   7  10
HETATM   10  O   UNK N   1      36.407  16.422  10.498  0.00  0.00    -0.336 OA
BRANCH  10  11
HETATM   11  C   UNK N   1      35.122  16.910  10.440  0.00  0.00     0.177 C 
BRANCH  11  12
HETATM   12  C   UNK N   1      34.523  16.596   9.078  0.00  0.00     0.027 C 
BRANCH  12  13
HETATM   13  C   UNK N   1      34.435  17.839   8.187  0.00  0.00     0.004 C 
BRANCH  13  14
HETATM   14  C   UNK N   1      32.980  18.126   7.824  0.00  0.00     0.030 C 
BRANCH  14  15
HETATM   15  C   UNK N   1      32.155  16.845   7.728  0.00  0.00     0.272 C 
BRANCH  15  16
HETATM   16  N   UNK N   1      30.805  17.051   8.234  0.00  0.00     0.088 N 
HETATM   17  C   UNK N   1      29.916  17.245   7.088  0.00  0.00     0.272 C 
HETATM   18  C   UNK N   1      28.480  17.351   7.578  0.00  0.00     0.030 C 
HETATM   19  C   UNK N   1      28.363  18.571   8.484  0.00  0.00     0.003 C 
HETATM   20  C   UNK N   1      29.405  18.516   9.602  0.00  0.00     0.030 C 
HETATM   21  C   UNK N   1      30.799  18.286   9.015  0.00  0.00     0.272 C 
ENDBRANCH  15  16
ENDBRANCH  14  15
ENDBRANCH  13  14
ENDBRANCH  12  13
ENDBRANCH  11  12
ENDBRANCH  10  11
ENDBRANCH   7  10
BRANCH   5  22
HETATM   22  C   UNK N   1      36.151  13.420  14.322  0.00  0.00    -0.009 A 
HETATM   23  C   UNK N   1      36.778  14.110  15.369  0.00  0.00     0.017 A 
HETATM   24  C   UNK N   1      36.296  13.993  16.676  0.00  0.00     0.043 A 
HETATM   25  C   UNK N   1      35.189  13.184  16.944  0.00  0.00     0.116 A 
HETATM   26  C   UNK N   1      34.582  12.464  15.913  0.00  0.00     0.043 A 
HETATM   27  F   UNK N   1      34.689  13.115  18.200  0.00  0.00    -0.206 F 
HETATM   28  C   UNK N   1      35.055  12.587  14.606  0.00  0.00     0.017 A 
ENDBRANCH   5  22
TORSDOF 8
ENDMDL
MODEL 2
REMARK VINA RESULT:      -7.1      1.833      2.671
REMARK  8 active torsions:
REMARK  status: ('A' for Active; 'I' for Inactive)
REMARK    1  A    between atoms: C_5  and  C_22 
REMARK    2  A    between atoms: C_7  and  O_10 
REMARK    3  A    between atoms: O_10  and  C_11 
REMARK    4  A    between atoms: C_11  and  C_12 
REMARK    5  A    between atoms: C_12  and  C_13 
REMARK    6  A    between atoms: C_13  and  C_14 
REMARK    7  A    between atoms: C_14  and  C_15 
REMARK    8  A    between atoms: C_15  and  N_16 
ROOT
HETATM    1  C   UNK N   1      38.099  11.804  10.773  0.00  0.00     0.089 C 
HETATM    2  C   UNK N   1      37.434  12.940  11.464  0.00  0.00     0.079 A 
HETATM    3  N   UNK N   1      37.055  12.815  12.763  0.00  0.00    -0.345 N 
ATOM      4  HN  UNK N   1      37.231  11.940  13.256  1.00  0.00     0.167 HD
HETATM    5  C   UNK N   1      36.442  13.844  13.415  0.00  0.00     0.047 A 
HETATM    6  C   UNK N   1      36.207  15.038  12.735  0.00  0.00     0.086 A 
HETATM    7  C   UNK N   1      36.632  15.161  11.412  0.00  0.00     0.145 A 
HETATM    8  N   UNK N   1      37.241  14.110  10.803  0.00  0.00    -0.327 N 
ATOM      9  HN  UNK N   1      37.557  14.200   9.837  1.00  0.00     0.169 HD
ENDROOT
BRANCH   7  10
HETATM   10  O   UNK N   1      36.457  16.309  10.724  0.00  0.00    -0.336 OA
BRANCH  10  11
HETATM   11  C   UNK N   1      35.207  16.827  10.473  0.00  0.00     0.177 C 
BRANCH  11  12
HETATM   12  C   UNK N   1      34.846  16.592   9.015  0.00  0.00     0.027 C 
BRANCH  12  13
HETATM   13  C   UNK N   1      34.366  17.873   8.326  0.00  0.00     0.004 C 
BRANCH  13  14
HETATM   14  C   UNK N   1      32.986  17.657   7.711  0.00  0.00     0.030 C 
BRANCH  14  15
HETATM   15  C   UNK N   1      32.766  16.201   7.306  0.00  0.00     0.272 C 
BRANCH  15  16
HETATM   16  N   UNK N   1      32.490  16.089   5.881  0.00  0.00     0.088 N 
HETATM   17  C   UNK N   1      33.768  15.948   5.182  0.00  0.00     0.272 C 
HETATM   18  C   UNK N   1      33.509  15.716   3.701  0.00  0.00     0.030 C 
HETATM   19  C   UNK N   1      32.787  16.934   3.136  0.00  0.00     0.003 C 
HETATM   20  C   UNK N   1      31.532  17.245   3.951  0.00  0.00     0.030 C 
HETATM   21  C   UNK N   1      31.877  17.339   5.439  0.00  0.00     0.272 C 
ENDBRANCH  15  16
ENDBRANCH  14  15
ENDBRANCH  13  14
ENDBRANCH  12  13
ENDBRANCH  11  12
ENDBRANCH  10  11
ENDBRANCH   7  10
BRANCH   5  22
HETATM   22  C   UNK N   1      36.189  13.765  14.865  0.00  0.00    -0.009 A 
HETATM   23  C   UNK N   1      36.831  14.656  15.736  0.00  0.00     0.017 A 
HETATM   24  C   UNK N   1      36.458  14.715  17.082  0.00  0.00     0.043 A 
HETATM   25  C   UNK N   1      35.445  13.881  17.565  0.00  0.00     0.116 A 
HETATM   26  C   UNK N   1      34.828  12.965  16.712  0.00  0.00     0.043 A 
HETATM   27  F   UNK N   1      35.047  13.978  18.855  0.00  0.00    -0.206 F 
HETATM   28  C   UNK N   1      35.191  12.911  15.367  0.00  0.00     0.017 A 
ENDBRANCH   5  22
TORSDOF 8
ENDMDL
MODEL 3
REMARK VINA RESULT:      -6.7      5.086     10.982
REMARK  8 active torsions:
REMARK  status: ('A' for Active; 'I' for Inactive)
REMARK    1  A    between atoms: C_5  and  C_22 
REMARK    2  A    between atoms: C_7  and  O_10 
REMARK    3  A    between atoms: O_10  and  C_11 
REMARK    4  A    between atoms: C_11  and  C_12 
REMARK    5  A    between atoms: C_12  and  C_13 
REMARK    6  A    between atoms: C_13  and  C_14 
REMARK    7  A    between atoms: C_14  and  C_15 
REMARK    8  A    between atoms: C_15  and  N_16 
ROOT
HETATM    1  C   UNK N   1      29.216  18.445   9.354  0.00  0.00     0.089 C 
HETATM    2  C   UNK N   1      29.216  18.063   7.917  0.00  0.00     0.079 A 
HETATM    3  N   UNK N   1      28.216  18.492   7.101  0.00  0.00    -0.345 N 
ATOM      4  HN  UNK N   1      27.471  19.074   7.483  1.00  0.00     0.167 HD
HETATM    5  C   UNK N   1      28.197  18.151   5.781  0.00  0.00     0.047 A 
HETATM    6  C   UNK N   1      29.220  17.357   5.267  0.00  0.00     0.086 A 
HETATM    7  C   UNK N   1      30.256  16.954   6.109  0.00  0.00     0.145 A 
HETATM    8  N   UNK N   1      30.235  17.319   7.418  0.00  0.00    -0.327 N 
ATOM      9  HN  UNK N   1      30.994  17.029   8.035  1.00  0.00     0.169 HD
ENDROOT
BRANCH   7  10
HETATM   10  O   UNK N   1      31.286  16.213   5.648  0.00  0.00    -0.336 OA
BRANCH  10  11
HETATM   11  C   UNK N   1      32.104  16.651   4.632  0.00  0.00     0.177 C 
BRANCH  11  12
HETATM   12  C   UNK N   1      33.173  17.568   5.203  0.00  0.00     0.027 C 
BRANCH  12  13
HETATM   13  C   UNK N   1      33.963  16.900   6.332  0.00  0.00     0.004 C 
BRANCH  13  14
HETATM   14  C   UNK N   1      34.108  17.857   7.513  0.00  0.00     0.030 C 
BRANCH  14  15
HETATM   15  C   UNK N   1      33.574  17.249   8.807  0.00  0.00     0.272 C 
BRANCH  15  16
HETATM   16  N   UNK N   1      34.465  16.212   9.307  0.00  0.00     0.088 N 
HETATM   17  C   UNK N   1      33.643  15.115   9.817  0.00  0.00     0.272 C 
HETATM   18  C   UNK N   1      34.544  13.966  10.244  0.00  0.00     0.030 C 
HETATM   19  C   UNK N   1      35.448  14.450  11.372  0.00  0.00     0.003 C 
HETATM   20  C   UNK N   1      36.199  15.716  10.958  0.00  0.00     0.030 C 
HETATM   21  C   UNK N   1      35.217  16.764  10.431  0.00  0.00     0.272 C 
ENDBRANCH  15  16
ENDBRANCH  14  15
ENDBRANCH  13  14
ENDBRANCH  12  13
ENDBRANCH  11  12
ENDBRANCH  10  11
ENDBRANCH   7  10
BRANCH   5  22
HETATM   22  C   UNK N   1      27.209  18.756   4.869  0.00  0.00    -0.009 A 
HETATM   23  C   UNK N   1      25.873  18.332   4.905  0.00  0.00     0.017 A 
HETATM   24  C   UNK N   1      24.896  19.025   4.184  0.00  0.00     0.043 A 
HETATM   25  C   UNK N   1      25.249  20.142   3.422  0.00  0.00     0.116 A 
HETATM   26  C   UNK N   1      26.583  20.548   3.351  0.00  0.00     0.043 A 
HETATM   27  F   UNK N   1      24.294  20.846   2.769  0.00  0.00    -0.206 F 
HETATM   28  C   UNK N   1      27.558  19.864   4.077  0.00  0.00     0.017 A 
ENDBRANCH   5  22
TORSDOF 8
ENDMDL
MODEL 4
REMARK VINA RESULT:      -6.7     19.809     22.902
REMARK  8 active torsions:
REMARK  status: ('A' for Active; 'I' for Inactive)
REMARK    1  A    between atoms: C_5  and  C_22 
REMARK    2  A    between atoms: C_7  and  O_10 
REMARK    3  A    between atoms: O_10  and  C_11 
REMARK    4  A    between atoms: C_11  and  C_12 
REMARK    5  A    between atoms: C_12  and  C_13 
REMARK    6  A    between atoms: C_13  and  C_14 
REMARK    7  A    between atoms: C_14  and  C_15 
REMARK    8  A    between atoms: C_15  and  N_16 
ROOT
HETATM    1  C   UNK N   1      27.054  26.502 -11.183  0.00  0.00     0.089 C 
HETATM    2  C   UNK N   1      26.574  26.004  -9.867  0.00  0.00     0.079 A 
HETATM    3  N   UNK N   1      26.780  26.743  -8.746  0.00  0.00    -0.345 N 
ATOM      4  HN  UNK N   1      27.264  27.638  -8.815  1.00  0.00     0.167 HD
HETATM    5  C   UNK N   1      26.349  26.303  -7.529  0.00  0.00     0.047 A 
HETATM    6  C   UNK N   1      25.686  25.081  -7.442  0.00  0.00     0.086 A 
HETATM    7  C   UNK N   1      25.453  24.350  -8.607  0.00  0.00     0.145 A 
HETATM    8  N   UNK N   1      25.899  24.828  -9.798  0.00  0.00    -0.327 N 
ATOM      9  HN  UNK N   1      25.725  24.298 -10.652  1.00  0.00     0.169 HD
ENDROOT
BRANCH   7  10
HETATM   10  O   UNK N   1      24.786  23.177  -8.576  0.00  0.00    -0.336 OA
BRANCH  10  11
HETATM   11  C   UNK N   1      25.386  21.986  -8.915  0.00  0.00     0.177 C 
BRANCH  11  12
HETATM   12  C   UNK N   1      26.123  21.430  -7.706  0.00  0.00     0.027 C 
BRANCH  12  13
HETATM   13  C   UNK N   1      27.631  21.323  -7.949  0.00  0.00     0.004 C 
BRANCH  13  14
HETATM   14  C   UNK N   1      28.354  22.501  -7.301  0.00  0.00     0.030 C 
BRANCH  14  15
HETATM   15  C   UNK N   1      29.259  22.051  -6.156  0.00  0.00     0.272 C 
BRANCH  15  16
HETATM   16  N   UNK N   1      29.310  23.055  -5.102  0.00  0.00     0.088 N 
HETATM   17  C   UNK N   1      28.018  23.741  -5.068  0.00  0.00     0.272 C 
HETATM   18  C   UNK N   1      27.998  24.720  -3.903  0.00  0.00     0.030 C 
HETATM   19  C   UNK N   1      29.088  25.763  -4.125  0.00  0.00     0.003 C 
HETATM   20  C   UNK N   1      30.441  25.090  -4.357  0.00  0.00     0.030 C 
HETATM   21  C   UNK N   1      30.327  24.039  -5.463  0.00  0.00     0.272 C 
ENDBRANCH  15  16
ENDBRANCH  14  15
ENDBRANCH  13  14
ENDBRANCH  12  13
ENDBRANCH  11  12
ENDBRANCH  10  11
ENDBRANCH   7  10
BRANCH   5  22
HETATM   22  C   UNK N   1      26.423  27.183  -6.348  0.00  0.00    -0.009 A 
HETATM   23  C   UNK N   1      27.334  28.248  -6.326  0.00  0.00     0.017 A 
HETATM   24  C   UNK N   1      27.282  29.197  -5.301  0.00  0.00     0.043 A 
HETATM   25  C   UNK N   1      26.323  29.083  -4.290  0.00  0.00     0.116 A 
HETATM   26  C   UNK N   1      25.436  28.005  -4.285  0.00  0.00     0.043 A 
HETATM   27  F   UNK N   1      26.237  30.033  -3.328  0.00  0.00    -0.206 F 
HETATM   28  C   UNK N   1      25.480  27.063  -5.313  0.00  0.00     0.017 A 
ENDBRANCH   5  22
TORSDOF 8
ENDMDL
MODEL 5
REMARK VINA RESULT:      -6.7     17.899     20.866
REMARK  8 active torsions:
REMARK  status: ('A' for Active; 'I' for Inactive)
REMARK    1  A    between atoms: C_5  and  C_22 
REMARK    2  A    between atoms: C_7  and  O_10 
REMARK    3  A    between atoms: O_10  and  C_11 
REMARK    4  A    between atoms: C_11  and  C_12 
REMARK    5  A    between atoms: C_12  and  C_13 
REMARK    6  A    between atoms: C_13  and  C_14 
REMARK    7  A    between atoms: C_14  and  C_15 
REMARK    8  A    between atoms: C_15  and  N_16 
ROOT
HETATM    1  C   UNK N   1      26.141  22.513  -8.771  0.00  0.00     0.089 C 
HETATM    2  C   UNK N   1      26.369  23.194  -7.469  0.00  0.00     0.079 A 
HETATM    3  N   UNK N   1      27.430  22.843  -6.696  0.00  0.00    -0.345 N 
ATOM      4  HN  UNK N   1      28.065  22.111  -7.017  1.00  0.00     0.167 HD
HETATM    5  C   UNK N   1      27.656  23.453  -5.498  0.00  0.00     0.047 A 
HETATM    6  C   UNK N   1      26.786  24.453  -5.068  0.00  0.00     0.086 A 
HETATM    7  C   UNK N   1      25.721  24.826  -5.889  0.00  0.00     0.145 A 
HETATM    8  N   UNK N   1      25.536  24.190  -7.076  0.00  0.00    -0.327 N 
ATOM      9  HN  UNK N   1      24.760  24.465  -7.679  1.00  0.00     0.169 HD
ENDROOT
BRANCH   7  10
HETATM   10  O   UNK N   1      24.871  25.812  -5.530  0.00  0.00    -0.336 OA
BRANCH  10  11
HETATM   11  C   UNK N   1      25.143  27.137  -5.782  0.00  0.00     0.177 C 
BRANCH  11  12
HETATM   12  C   UNK N   1      25.483  27.840  -4.476  0.00  0.00     0.027 C 
BRANCH  12  13
HETATM   13  C   UNK N   1      26.551  28.921  -4.665  0.00  0.00     0.004 C 
BRANCH  13  14
HETATM   14  C   UNK N   1      27.351  28.655  -5.938  0.00  0.00     0.030 C 
BRANCH  14  15
HETATM   15  C   UNK N   1      28.848  28.870  -5.725  0.00  0.00     0.272 C 
BRANCH  15  16
HETATM   16  N   UNK N   1      29.484  27.662  -5.219  0.00  0.00     0.088 N 
HETATM   17  C   UNK N   1      30.243  28.018  -4.020  0.00  0.00     0.272 C 
HETATM   18  C   UNK N   1      30.830  26.757  -3.402  0.00  0.00     0.030 C 
HETATM   19  C   UNK N   1      31.788  26.124  -4.405  0.00  0.00     0.003 C 
HETATM   20  C   UNK N   1      31.095  25.901  -5.749  0.00  0.00     0.030 C 
HETATM   21  C   UNK N   1      30.435  27.196  -6.225  0.00  0.00     0.272 C 
ENDBRANCH  15  16
ENDBRANCH  14  15
ENDBRANCH  13  14
ENDBRANCH  12  13
ENDBRANCH  11  12
ENDBRANCH  10  11
ENDBRANCH   7  10
BRANCH   5  22
HETATM   22  C   UNK N   1      28.898  23.190  -4.748  0.00  0.00    -0.009 A 
HETATM   23  C   UNK N   1      28.993  23.567  -3.401  0.00  0.00     0.017 A 
HETATM   24  C   UNK N   1      30.086  23.155  -2.632  0.00  0.00     0.043 A 
HETATM   25  C   UNK N   1      31.089  22.368  -3.206  0.00  0.00     0.116 A 
HETATM   26  C   UNK N   1      31.019  22.021  -4.555  0.00  0.00     0.043 A 
HETATM   27  F   UNK N   1      32.118  21.924  -2.446  0.00  0.00    -0.206 F 
HETATM   28  C   UNK N   1      29.925  22.422  -5.322  0.00  0.00     0.017 A 
ENDBRANCH   5  22
TORSDOF 8
ENDMDL
MODEL 6
REMARK VINA RESULT:      -6.7      2.254      3.544
REMARK  8 active torsions:
REMARK  status: ('A' for Active; 'I' for Inactive)
REMARK    1  A    between atoms: C_5  and  C_22 
REMARK    2  A    between atoms: C_7  and  O_10 
REMARK    3  A    between atoms: O_10  and  C_11 
REMARK    4  A    between atoms: C_11  and  C_12 
REMARK    5  A    between atoms: C_12  and  C_13 
REMARK    6  A    between atoms: C_13  and  C_14 
REMARK    7  A    between atoms: C_14  and  C_15 
REMARK    8  A    between atoms: C_15  and  N_16 
ROOT
HETATM    1  C   UNK N   1      33.778  10.022  12.208  0.00  0.00     0.089 C 
HETATM    2  C   UNK N   1      34.301  11.141  13.034  0.00  0.00     0.079 A 
HETATM    3  N   UNK N   1      34.300  11.041  14.390  0.00  0.00    -0.345 N 
ATOM      4  HN  UNK N   1      33.940  10.195  14.831  1.00  0.00     0.167 HD
HETATM    5  C   UNK N   1      34.773  12.057  15.167  0.00  0.00     0.047 A 
HETATM    6  C   UNK N   1      35.265  13.209  14.556  0.00  0.00     0.086 A 
HETATM    7  C   UNK N   1      35.290  13.282  13.163  0.00  0.00     0.145 A 
HETATM    8  N   UNK N   1      34.810  12.244  12.429  0.00  0.00    -0.327 N 
ATOM      9  HN  UNK N   1      34.831  12.294  11.410  1.00  0.00     0.169 HD
ENDROOT
BRANCH   7  10
HETATM   10  O   UNK N   1      35.789  14.363  12.527  0.00  0.00    -0.336 OA
BRANCH  10  11
HETATM   11  C   UNK N   1      35.056  15.068  11.600  0.00  0.00     0.177 C 
BRANCH  11  12
HETATM   12  C   UNK N   1      35.993  15.658  10.557  0.00  0.00     0.027 C 
BRANCH  12  13
HETATM   13  C   UNK N   1      35.307  15.835   9.200  0.00  0.00     0.004 C 
BRANCH  13  14
HETATM   14  C   UNK N   1      34.255  16.938   9.280  0.00  0.00     0.030 C 
BRANCH  14  15
HETATM   15  C   UNK N   1      34.446  17.988   8.188  0.00  0.00     0.272 C 
BRANCH  15  16
HETATM   16  N   UNK N   1      33.320  17.995   7.264  0.00  0.00     0.088 N 
HETATM   17  C   UNK N   1      32.248  17.190   7.850  0.00  0.00     0.272 C 
HETATM   18  C   UNK N   1      31.016  17.269   6.962  0.00  0.00     0.030 C 
HETATM   19  C   UNK N   1      31.361  16.685   5.597  0.00  0.00     0.003 C 
HETATM   20  C   UNK N   1      32.600  17.366   5.015  0.00  0.00     0.030 C 
HETATM   21  C   UNK N   1      33.744  17.340   6.029  0.00  0.00     0.272 C 
ENDBRANCH  15  16
ENDBRANCH  14  15
ENDBRANCH  13  14
ENDBRANCH  12  13
ENDBRANCH  11  12
ENDBRANCH  10  11
ENDBRANCH   7  10
BRANCH   5  22
HETATM   22  C   UNK N   1      34.928  11.875  16.621  0.00  0.00    -0.009 A 
HETATM   23  C   UNK N   1      35.161  10.596  17.144  0.00  0.00     0.017 A 
HETATM   24  C   UNK N   1      35.496  10.437  18.492  0.00  0.00     0.043 A 
HETATM   25  C   UNK N   1      35.596  11.556  19.324  0.00  0.00     0.116 A 
HETATM   26  C   UNK N   1      35.328  12.830  18.820  0.00  0.00     0.043 A 
HETATM   27  F   UNK N   1      35.975  11.407  20.616  0.00  0.00    -0.206 F 
HETATM   28  C   UNK N   1      35.003  12.991  17.473  0.00  0.00     0.017 A 
ENDBRANCH   5  22
TORSDOF 8
ENDMDL
MODEL 7
REMARK VINA RESULT:      -6.6      7.001     11.219
REMARK  8 active torsions:
REMARK  status: ('A' for Active; 'I' for Inactive)
REMARK    1  A    between atoms: C_5  and  C_22 
REMARK    2  A    between atoms: C_7  and  O_10 
REMARK    3  A    between atoms: O_10  and  C_11 
REMARK    4  A    between atoms: C_11  and  C_12 
REMARK    5  A    between atoms: C_12  and  C_13 
REMARK    6  A    between atoms: C_13  and  C_14 
REMARK    7  A    between atoms: C_14  and  C_15 
REMARK    8  A    between atoms: C_15  and  N_16 
ROOT
HETATM    1  C   UNK N   1      25.184  14.817   1.691  0.00  0.00     0.089 C 
HETATM    2  C   UNK N   1      26.400  15.447   2.269  0.00  0.00     0.079 A 
HETATM    3  N   UNK N   1      26.298  16.622   2.946  0.00  0.00    -0.345 N 
ATOM      4  HN  UNK N   1      25.385  17.063   3.053  1.00  0.00     0.167 HD
HETATM    5  C   UNK N   1      27.402  17.218   3.482  0.00  0.00     0.047 A 
HETATM    6  C   UNK N   1      28.646  16.607   3.334  0.00  0.00     0.086 A 
HETATM    7  C   UNK N   1      28.728  15.385   2.666  0.00  0.00     0.145 A 
HETATM    8  N   UNK N   1      27.601  14.827   2.149  0.00  0.00    -0.327 N 
ATOM      9  HN  UNK N   1      27.659  13.932   1.665  1.00  0.00     0.169 HD
ENDROOT
BRANCH   7  10
HETATM   10  O   UNK N   1      29.905  14.740   2.528  0.00  0.00    -0.336 OA
BRANCH  10  11
HETATM   11  C   UNK N   1      30.808  14.637   3.561  0.00  0.00     0.177 C 
BRANCH  11  12
HETATM   12  C   UNK N   1      32.184  15.067   3.076  0.00  0.00     0.027 C 
BRANCH  12  13
HETATM   13  C   UNK N   1      32.298  16.588   2.943  0.00  0.00     0.004 C 
BRANCH  13  14
HETATM   14  C   UNK N   1      32.981  17.176   4.175  0.00  0.00     0.030 C 
BRANCH  14  15
HETATM   15  C   UNK N   1      33.468  16.087   5.129  0.00  0.00     0.272 C 
BRANCH  15  16
HETATM   16  N   UNK N   1      33.126  16.406   6.508  0.00  0.00     0.088 N 
HETATM   17  C   UNK N   1      31.670  16.357   6.637  0.00  0.00     0.272 C 
HETATM   18  C   UNK N   1      31.285  16.576   8.092  0.00  0.00     0.030 C 
HETATM   19  C   UNK N   1      31.756  17.962   8.518  0.00  0.00     0.003 C 
HETATM   20  C   UNK N   1      33.247  18.139   8.229  0.00  0.00     0.030 C 
HETATM   21  C   UNK N   1      33.550  17.779   6.773  0.00  0.00     0.272 C 
ENDBRANCH  15  16
ENDBRANCH  14  15
ENDBRANCH  13  14
ENDBRANCH  12  13
ENDBRANCH  11  12
ENDBRANCH  10  11
ENDBRANCH   7  10
BRANCH   5  22
HETATM   22  C   UNK N   1      27.263  18.396   4.357  0.00  0.00    -0.009 A 
HETATM   23  C   UNK N   1      27.780  18.364   5.659  0.00  0.00     0.017 A 
HETATM   24  C   UNK N   1      27.822  19.531   6.428  0.00  0.00     0.043 A 
HETATM   25  C   UNK N   1      27.345  20.734   5.900  0.00  0.00     0.116 A 
HETATM   26  C   UNK N   1      26.794  20.766   4.618  0.00  0.00     0.043 A 
HETATM   27  F   UNK N   1      27.438  21.875   6.624  0.00  0.00    -0.206 F 
HETATM   28  C   UNK N   1      26.760  19.605   3.846  0.00  0.00     0.017 A 
ENDBRANCH   5  22
TORSDOF 8
ENDMDL
MODEL 8
REMARK VINA RESULT:      -6.6      1.712      2.456
REMARK  8 active torsions:
REMARK  status: ('A' for Active; 'I' for Inactive)
REMARK    1  A    between atoms: C_5  and  C_22 
REMARK    2  A    between atoms: C_7  and  O_10 
REMARK    3  A    between atoms: O_10  and  C_11 
REMARK    4  A    between atoms: C_11  and  C_12 
REMARK    5  A    between atoms: C_12  and  C_13 
REMARK    6  A    between atoms: C_13  and  C_14 
REMARK    7  A    between atoms: C_14  and  C_15 
REMARK    8  A    between atoms: C_15  and  N_16 
ROOT
HETATM    1  C   UNK N   1      33.884  10.171  12.064  0.00  0.00     0.089 C 
HETATM    2  C   UNK N   1      34.522  11.328  12.744  0.00  0.00     0.079 A 
HETATM    3  N   UNK N   1      34.551  11.385  14.102  0.00  0.00    -0.345 N 
ATOM      4  HN  UNK N   1      34.133  10.630  14.646  1.00  0.00     0.167 HD
HETATM    5  C   UNK N   1      35.129  12.439  14.746  0.00  0.00     0.047 A 
HETATM    6  C   UNK N   1      35.699  13.466  13.996  0.00  0.00     0.086 A 
HETATM    7  C   UNK N   1      35.692  13.376  12.604  0.00  0.00     0.145 A 
HETATM    8  N   UNK N   1      35.105  12.306  12.005  0.00  0.00    -0.327 N 
ATOM      9  HN  UNK N   1      35.103  12.236  10.988  1.00  0.00     0.169 HD
ENDROOT
BRANCH   7  10
HETATM   10  O   UNK N   1      36.262  14.329  11.837  0.00  0.00    -0.336 OA
BRANCH  10  11
HETATM   11  C   UNK N   1      35.586  15.469  11.466  0.00  0.00     0.177 C 
BRANCH  11  12
HETATM   12  C   UNK N   1      34.962  15.263  10.094  0.00  0.00     0.027 C 
BRANCH  12  13
HETATM   13  C   UNK N   1      34.133  16.471   9.651  0.00  0.00     0.004 C 
BRANCH  13  14
HETATM   14  C   UNK N   1      33.083  16.044   8.628  0.00  0.00     0.030 C 
BRANCH  14  15
HETATM   15  C   UNK N   1      32.373  17.244   8.006  0.00  0.00     0.272 C 
BRANCH  15  16
HETATM   16  N   UNK N   1      30.956  17.247   8.341  0.00  0.00     0.088 N 
HETATM   17  C   UNK N   1      30.196  17.255   7.091  0.00  0.00     0.272 C 
HETATM   18  C   UNK N   1      28.711  17.145   7.405  0.00  0.00     0.030 C 
HETATM   19  C   UNK N   1      28.295  18.361   8.225  0.00  0.00     0.003 C 
HETATM   20  C   UNK N   1      29.188  18.513   9.458  0.00  0.00     0.030 C 
HETATM   21  C   UNK N   1      30.662  18.490   9.049  0.00  0.00     0.272 C 
ENDBRANCH  15  16
ENDBRANCH  14  15
ENDBRANCH  13  14
ENDBRANCH  12  13
ENDBRANCH  11  12
ENDBRANCH  10  11
ENDBRANCH   7  10
BRANCH   5  22
HETATM   22  C   UNK N   1      35.308  12.413  16.209  0.00  0.00    -0.009 A 
HETATM   23  C   UNK N   1      35.180  13.596  16.950  0.00  0.00     0.017 A 
HETATM   24  C   UNK N   1      35.160  13.552  18.347  0.00  0.00     0.043 A 
HETATM   25  C   UNK N   1      35.271  12.326  19.010  0.00  0.00     0.116 A 
HETATM   26  C   UNK N   1      35.436  11.148  18.280  0.00  0.00     0.043 A 
HETATM   27  F   UNK N   1      35.195  12.279  20.361  0.00  0.00    -0.206 F 
HETATM   28  C   UNK N   1      35.446  11.189  16.886  0.00  0.00     0.017 A 
ENDBRANCH   5  22
TORSDOF 8
ENDMDL
MODEL 9
REMARK VINA RESULT:      -6.6     17.746     21.172
REMARK  8 active torsions:
REMARK  status: ('A' for Active; 'I' for Inactive)
REMARK    1  A    between atoms: C_5  and  C_22 
REMARK    2  A    between atoms: C_7  and  O_10 
REMARK    3  A    between atoms: O_10  and  C_11 
REMARK    4  A    between atoms: C_11  and  C_12 
REMARK    5  A    between atoms: C_12  and  C_13 
REMARK    6  A    between atoms: C_13  and  C_14 
REMARK    7  A    between atoms: C_14  and  C_15 
REMARK    8  A    between atoms: C_15  and  N_16 
ROOT
HETATM    1  C   UNK N   1      29.709  18.370  -8.005  0.00  0.00     0.089 C 
HETATM    2  C   UNK N   1      29.581  19.718  -7.391  0.00  0.00     0.079 A 
HETATM    3  N   UNK N   1      28.718  20.625  -7.919  0.00  0.00    -0.345 N 
ATOM      4  HN  UNK N   1      28.162  20.373  -8.736  1.00  0.00     0.167 HD
HETATM    5  C   UNK N   1      28.588  21.868  -7.373  0.00  0.00     0.047 A 
HETATM    6  C   UNK N   1      29.350  22.204  -6.255  0.00  0.00     0.086 A 
HETATM    7  C   UNK N   1      30.206  21.250  -5.704  0.00  0.00     0.145 A 
HETATM    8  N   UNK N   1      30.302  20.023  -6.282  0.00  0.00    -0.327 N 
ATOM      9  HN  UNK N   1      30.924  19.323  -5.878  1.00  0.00     0.169 HD
ENDROOT
BRANCH   7  10
HETATM   10  O   UNK N   1      30.938  21.518  -4.602  0.00  0.00    -0.336 OA
BRANCH  10  11
HETATM   11  C   UNK N   1      30.447  21.318  -3.333  0.00  0.00     0.177 C 
BRANCH  11  12
HETATM   12  C   UNK N   1      30.485  22.629  -2.563  0.00  0.00     0.027 C 
BRANCH  12  13
HETATM   13  C   UNK N   1      29.082  23.186  -2.304  0.00  0.00     0.004 C 
BRANCH  13  14
HETATM   14  C   UNK N   1      28.695  24.173  -3.403  0.00  0.00     0.030 C 
BRANCH  14  15
HETATM   15  C   UNK N   1      27.181  24.346  -3.504  0.00  0.00     0.272 C 
BRANCH  15  16
HETATM   16  N   UNK N   1      26.839  25.539  -4.265  0.00  0.00     0.088 N 
HETATM   17  C   UNK N   1      26.313  26.536  -3.333  0.00  0.00     0.272 C 
HETATM   18  C   UNK N   1      26.051  27.835  -4.080  0.00  0.00     0.030 C 
HETATM   19  C   UNK N   1      24.996  27.578  -5.150  0.00  0.00     0.003 C 
HETATM   20  C   UNK N   1      25.409  26.410  -6.046  0.00  0.00     0.030 C 
HETATM   21  C   UNK N   1      25.768  25.191  -5.195  0.00  0.00     0.272 C 
ENDBRANCH  15  16
ENDBRANCH  14  15
ENDBRANCH  13  14
ENDBRANCH  12  13
ENDBRANCH  11  12
ENDBRANCH  10  11
ENDBRANCH   7  10
BRANCH   5  22
HETATM   22  C   UNK N   1      27.532  22.783  -7.842  0.00  0.00    -0.009 A 
HETATM   23  C   UNK N   1      27.879  23.990  -8.464  0.00  0.00     0.017 A 
HETATM   24  C   UNK N   1      26.898  24.772  -9.080  0.00  0.00     0.043 A 
HETATM   25  C   UNK N   1      25.564  24.353  -9.074  0.00  0.00     0.116 A 
HETATM   26  C   UNK N   1      25.205  23.172  -8.424  0.00  0.00     0.043 A 
HETATM   27  F   UNK N   1      24.623  25.083  -9.718  0.00  0.00    -0.206 F 
HETATM   28  C   UNK N   1      26.184  22.385  -7.818  0.00  0.00     0.017 A 
ENDBRANCH   5  22
TORSDOF 8
ENDMDL
