MODEL 1
REMARK VINA RESULT:      -7.5      0.000      0.000
REMARK  6 active torsions:
REMARK  status: ('A' for Active; 'I' for Inactive)
REMARK    1  A    between atoms: C_3  and  O_23 
REMARK    2  A    between atoms: C_10  and  O_22 
REMARK    3  A    between atoms: C_11  and  O_12 
REMARK    4  A    between atoms: O_12  and  C_13 
REMARK    5  A    between atoms: C_13  and  C_15 
REMARK    6  A    between atoms: C_18  and  N_21 
ROOT
HETATM    1  C   UNK N   1      29.664  17.246   8.706  0.00  0.00     0.054 C 
HETATM    2  C   UNK N   1      29.149  17.844   7.435  0.00  0.00     0.009 A 
HETATM    3  C   UNK N   1      28.134  18.810   7.493  0.00  0.00     0.085 A 
HETATM    4  C   UNK N   1      27.637  19.375   6.313  0.00  0.00     0.011 A 
HETATM    5  C   UNK N   1      26.616  20.335   6.359  0.00  0.00     0.015 A 
HETATM    6  C   UNK N   1      26.116  20.890   5.179  0.00  0.00     0.001 A 
HETATM    7  C   UNK N   1      26.633  20.492   3.944  0.00  0.00     0.001 A 
HETATM    8  C   UNK N   1      27.648  19.536   3.888  0.00  0.00     0.015 A 
HETATM    9  C   UNK N   1      28.159  18.969   5.064  0.00  0.00     0.013 A 
HETATM   10  C   UNK N   1      29.170  17.997   5.001  0.00  0.00     0.111 A 
HETATM   11  C   UNK N   1      29.683  17.424   6.198  0.00  0.00     0.122 A 
ENDROOT
BRANCH  11  12
HETATM   12  O   UNK N   1      30.646  16.456   6.241  0.00  0.00    -0.271 OA
BRANCH  12  13
HETATM   13  C   UNK N   1      31.989  16.465   6.003  0.00  0.00     0.298 C 
HETATM   14  O   UNK N   1      32.440  16.397   4.872  0.00  0.00    -0.259 OA
BRANCH  13  15
HETATM   15  C   UNK N   1      32.905  16.656   7.141  0.00  0.00     0.040 A 
HETATM   16  C   UNK N   1      33.636  17.846   7.277  0.00  0.00     0.020 A 
HETATM   17  C   UNK N   1      34.468  18.035   8.384  0.00  0.00     0.030 A 
HETATM   18  C   UNK N   1      34.567  17.042   9.362  0.00  0.00     0.025 A 
HETATM   19  C   UNK N   1      33.852  15.850   9.224  0.00  0.00     0.030 A 
HETATM   20  C   UNK N   1      33.025  15.657   8.115  0.00  0.00     0.020 A 
BRANCH  18  21
HETATM   21  N   UNK N   1      35.380  17.246  10.494  0.00  0.00    -0.399 N 
HETATM   22  H   UNK N   1      36.359  17.199  10.422  0.00  0.00     0.156 HD
HETATM   23  H   UNK N   1      34.962  17.436  11.366  0.00  0.00     0.156 HD
ENDBRANCH  18  21
ENDBRANCH  13  15
ENDBRANCH  12  13
ENDBRANCH  11  12
BRANCH  10  24
HETATM   24  O   UNK N   1      29.609  17.611   3.791  0.00  0.00    -0.357 OA
HETATM   25  H   UNK N   1      29.128  16.979   3.293  0.00  0.00     0.217 HD
ENDBRANCH  10  24
BRANCH   3  26
HETATM   26  O   UNK N   1      27.634  19.188   8.686  0.00  0.00    -0.359 OA
HETATM   27  H   UNK N   1      26.963  19.842   8.729  0.00  0.00     0.217 HD
ENDBRANCH   3  26
TORSDOF 6
ENDMDL
MODEL 2
REMARK VINA RESULT:      -6.8      4.013      8.464
REMARK  6 active torsions:
REMARK  status: ('A' for Active; 'I' for Inactive)
REMARK    1  A    between atoms: C_3  and  O_23 
REMARK    2  A    between atoms: C_10  and  O_22 
REMARK    3  A    between atoms: C_11  and  O_12 
REMARK    4  A    between atoms: O_12  and  C_13 
REMARK    5  A    between atoms: C_13  and  C_15 
REMARK    6  A    between atoms: C_18  and  N_21 
ROOT
HETATM    1  C   UNK N   1      33.714  13.893   7.642  0.00  0.00     0.054 C 
HETATM    2  C   UNK N   1      34.351  14.265   8.944  0.00  0.00     0.009 A 
HETATM    3  C   UNK N   1      34.370  13.333   9.990  0.00  0.00     0.085 A 
HETATM    4  C   UNK N   1      34.956  13.667  11.216  0.00  0.00     0.011 A 
HETATM    5  C   UNK N   1      34.973  12.745  12.272  0.00  0.00     0.015 A 
HETATM    6  C   UNK N   1      35.551  13.085  13.497  0.00  0.00     0.001 A 
HETATM    7  C   UNK N   1      36.118  14.349  13.677  0.00  0.00     0.001 A 
HETATM    8  C   UNK N   1      36.106  15.274  12.632  0.00  0.00     0.015 A 
HETATM    9  C   UNK N   1      35.527  14.947  11.397  0.00  0.00     0.013 A 
HETATM   10  C   UNK N   1      35.504  15.887  10.354  0.00  0.00     0.111 A 
HETATM   11  C   UNK N   1      34.915  15.549   9.104  0.00  0.00     0.122 A 
ENDROOT
BRANCH  11  12
HETATM   12  O   UNK N   1      34.820  16.399   8.039  0.00  0.00    -0.271 OA
BRANCH  12  13
HETATM   13  C   UNK N   1      34.054  17.499   7.788  0.00  0.00     0.298 C 
HETATM   14  O   UNK N   1      34.261  18.565   8.344  0.00  0.00    -0.259 OA
BRANCH  13  15
HETATM   15  C   UNK N   1      33.014  17.412   6.748  0.00  0.00     0.040 A 
HETATM   16  C   UNK N   1      31.669  17.223   7.098  0.00  0.00     0.020 A 
HETATM   17  C   UNK N   1      30.685  17.187   6.105  0.00  0.00     0.030 A 
HETATM   18  C   UNK N   1      31.040  17.346   4.763  0.00  0.00     0.025 A 
HETATM   19  C   UNK N   1      32.379  17.520   4.409  0.00  0.00     0.030 A 
HETATM   20  C   UNK N   1      33.364  17.550   5.399  0.00  0.00     0.020 A 
BRANCH  18  21
HETATM   21  N   UNK N   1      30.045  17.342   3.766  0.00  0.00    -0.399 N 
HETATM   22  H   UNK N   1      29.303  17.987   3.798  0.00  0.00     0.156 HD
HETATM   23  H   UNK N   1      30.092  16.687   3.032  0.00  0.00     0.156 HD
ENDBRANCH  18  21
ENDBRANCH  13  15
ENDBRANCH  12  13
ENDBRANCH  11  12
BRANCH  10  24
HETATM   24  O   UNK N   1      36.022  17.105  10.582  0.00  0.00    -0.357 OA
HETATM   25  H   UNK N   1      36.818  17.366  10.164  0.00  0.00     0.217 HD
ENDBRANCH  10  24
BRANCH   3  26
HETATM   26  O   UNK N   1      33.817  12.116   9.816  0.00  0.00    -0.359 OA
HETATM   27  H   UNK N   1      33.924  11.663   9.002  0.00  0.00     0.217 HD
ENDBRANCH   3  26
TORSDOF 6
ENDMDL
MODEL 3
REMARK VINA RESULT:      -6.8      4.614      5.749
REMARK  6 active torsions:
REMARK  status: ('A' for Active; 'I' for Inactive)
REMARK    1  A    between atoms: C_3  and  O_23 
REMARK    2  A    between atoms: C_10  and  O_22 
REMARK    3  A    between atoms: C_11  and  O_12 
REMARK    4  A    between atoms: O_12  and  C_13 
REMARK    5  A    between atoms: C_13  and  C_15 
REMARK    6  A    between atoms: C_18  and  N_21 
ROOT
HETATM    1  C   UNK N   1      32.776  13.917   9.033  0.00  0.00     0.054 C 
HETATM    2  C   UNK N   1      32.879  14.908   7.917  0.00  0.00     0.009 A 
HETATM    3  C   UNK N   1      32.442  14.548   6.635  0.00  0.00     0.085 A 
HETATM    4  C   UNK N   1      32.537  15.462   5.580  0.00  0.00     0.011 A 
HETATM    5  C   UNK N   1      32.110  15.109   4.292  0.00  0.00     0.015 A 
HETATM    6  C   UNK N   1      32.215  16.021   3.239  0.00  0.00     0.001 A 
HETATM    7  C   UNK N   1      32.746  17.293   3.464  0.00  0.00     0.001 A 
HETATM    8  C   UNK N   1      33.175  17.653   4.743  0.00  0.00     0.015 A 
HETATM    9  C   UNK N   1      33.077  16.747   5.809  0.00  0.00     0.013 A 
HETATM   10  C   UNK N   1      33.523  17.110   7.090  0.00  0.00     0.111 A 
HETATM   11  C   UNK N   1      33.422  16.186   8.167  0.00  0.00     0.122 A 
ENDROOT
BRANCH  11  12
HETATM   12  O   UNK N   1      33.851  16.435   9.441  0.00  0.00    -0.271 OA
BRANCH  12  13
HETATM   13  C   UNK N   1      35.085  16.619   9.991  0.00  0.00     0.298 C 
HETATM   14  O   UNK N   1      35.610  17.718  10.034  0.00  0.00    -0.259 OA
BRANCH  13  15
HETATM   15  C   UNK N   1      35.750  15.470  10.631  0.00  0.00     0.040 A 
HETATM   16  C   UNK N   1      36.614  14.646   9.896  0.00  0.00     0.020 A 
HETATM   17  C   UNK N   1      37.275  13.585  10.525  0.00  0.00     0.030 A 
HETATM   18  C   UNK N   1      37.080  13.350  11.888  0.00  0.00     0.025 A 
HETATM   19  C   UNK N   1      36.209  14.160  12.621  0.00  0.00     0.030 A 
HETATM   20  C   UNK N   1      35.544  15.216  11.993  0.00  0.00     0.020 A 
BRANCH  18  21
HETATM   21  N   UNK N   1      37.771  12.303  12.528  0.00  0.00    -0.399 N 
HETATM   22  H   UNK N   1      38.454  11.786  12.046  0.00  0.00     0.156 HD
HETATM   23  H   UNK N   1      37.566  12.086  13.468  0.00  0.00     0.156 HD
ENDBRANCH  18  21
ENDBRANCH  13  15
ENDBRANCH  12  13
ENDBRANCH  11  12
BRANCH  10  24
HETATM   24  O   UNK N   1      34.067  18.328   7.254  0.00  0.00    -0.357 OA
HETATM   25  H   UNK N   1      34.502  18.547   8.055  0.00  0.00     0.217 HD
ENDBRANCH  10  24
BRANCH   3  26
HETATM   26  O   UNK N   1      31.935  13.318   6.419  0.00  0.00    -0.359 OA
HETATM   27  H   UNK N   1      31.544  12.840   7.125  0.00  0.00     0.217 HD
ENDBRANCH   3  26
TORSDOF 6
ENDMDL
MODEL 4
REMARK VINA RESULT:      -6.7      5.648     10.093
REMARK  6 active torsions:
REMARK  status: ('A' for Active; 'I' for Inactive)
REMARK    1  A    between atoms: C_3  and  O_23 
REMARK    2  A    between atoms: C_10  and  O_22 
REMARK    3  A    between atoms: C_11  and  O_12 
REMARK    4  A    between atoms: O_12  and  C_13 
REMARK    5  A    between atoms: C_13  and  C_15 
REMARK    6  A    between atoms: C_18  and  N_21 
ROOT
HETATM    1  C   UNK N   1      34.499  12.016  10.209  0.00  0.00     0.054 C 
HETATM    2  C   UNK N   1      34.875  12.409  11.603  0.00  0.00     0.009 A 
HETATM    3  C   UNK N   1      34.513  11.578  12.673  0.00  0.00     0.085 A 
HETATM    4  C   UNK N   1      34.853  11.934  13.982  0.00  0.00     0.011 A 
HETATM    5  C   UNK N   1      34.487  11.116  15.060  0.00  0.00     0.015 A 
HETATM    6  C   UNK N   1      34.820  11.478  16.367  0.00  0.00     0.001 A 
HETATM    7  C   UNK N   1      35.522  12.662  16.608  0.00  0.00     0.001 A 
HETATM    8  C   UNK N   1      35.889  13.485  15.542  0.00  0.00     0.015 A 
HETATM    9  C   UNK N   1      35.560  13.133  14.224  0.00  0.00     0.013 A 
HETATM   10  C   UNK N   1      35.919  13.972  13.157  0.00  0.00     0.111 A 
HETATM   11  C   UNK N   1      35.581  13.611  11.823  0.00  0.00     0.122 A 
ENDROOT
BRANCH  11  12
HETATM   12  O   UNK N   1      35.862  14.370  10.722  0.00  0.00    -0.271 OA
BRANCH  12  13
HETATM   13  C   UNK N   1      35.698  15.692  10.434  0.00  0.00     0.298 C 
HETATM   14  O   UNK N   1      36.534  16.524  10.742  0.00  0.00    -0.259 OA
BRANCH  13  15
HETATM   15  C   UNK N   1      34.522  16.101   9.646  0.00  0.00     0.040 A 
HETATM   16  C   UNK N   1      33.377  15.292   9.601  0.00  0.00     0.020 A 
HETATM   17  C   UNK N   1      32.250  15.711   8.887  0.00  0.00     0.030 A 
HETATM   18  C   UNK N   1      32.260  16.941   8.223  0.00  0.00     0.025 A 
HETATM   19  C   UNK N   1      33.403  17.744   8.254  0.00  0.00     0.030 A 
HETATM   20  C   UNK N   1      34.532  17.323   8.961  0.00  0.00     0.020 A 
BRANCH  18  21
HETATM   21  N   UNK N   1      31.114  17.378   7.532  0.00  0.00    -0.399 N 
HETATM   22  H   UNK N   1      30.496  18.021   7.945  0.00  0.00     0.156 HD
HETATM   23  H   UNK N   1      30.930  17.035   6.627  0.00  0.00     0.156 HD
ENDBRANCH  18  21
ENDBRANCH  13  15
ENDBRANCH  12  13
ENDBRANCH  11  12
BRANCH  10  24
HETATM   24  O   UNK N   1      36.555  15.123  13.436  0.00  0.00    -0.357 OA
HETATM   25  H   UNK N   1      36.706  15.755  12.761  0.00  0.00     0.217 HD
ENDBRANCH  10  24
BRANCH   3  26
HETATM   26  O   UNK N   1      33.831  10.439  12.438  0.00  0.00    -0.359 OA
HETATM   27  H   UNK N   1      34.029   9.920  11.682  0.00  0.00     0.217 HD
ENDBRANCH   3  26
TORSDOF 6
ENDMDL
MODEL 5
REMARK VINA RESULT:      -6.7      8.916     11.210
REMARK  6 active torsions:
REMARK  status: ('A' for Active; 'I' for Inactive)
REMARK    1  A    between atoms: C_3  and  O_23 
REMARK    2  A    between atoms: C_10  and  O_22 
REMARK    3  A    between atoms: C_11  and  O_12 
REMARK    4  A    between atoms: O_12  and  C_13 
REMARK    5  A    between atoms: C_13  and  C_15 
REMARK    6  A    between atoms: C_18  and  N_21 
ROOT
HETATM    1  C   UNK N   1      19.515  16.407   7.534  0.00  0.00     0.054 C 
HETATM    2  C   UNK N   1      20.556  15.430   7.980  0.00  0.00     0.009 A 
HETATM    3  C   UNK N   1      20.281  14.578   9.059  0.00  0.00     0.085 A 
HETATM    4  C   UNK N   1      21.246  13.662   9.492  0.00  0.00     0.011 A 
HETATM    5  C   UNK N   1      20.984  12.811  10.576  0.00  0.00     0.015 A 
HETATM    6  C   UNK N   1      21.953  11.904  11.011  0.00  0.00     0.001 A 
HETATM    7  C   UNK N   1      23.190  11.839  10.367  0.00  0.00     0.001 A 
HETATM    8  C   UNK N   1      23.461  12.682   9.288  0.00  0.00     0.015 A 
HETATM    9  C   UNK N   1      22.498  13.598   8.841  0.00  0.00     0.013 A 
HETATM   10  C   UNK N   1      22.781  14.454   7.765  0.00  0.00     0.111 A 
HETATM   11  C   UNK N   1      21.800  15.383   7.316  0.00  0.00     0.122 A 
ENDROOT
BRANCH  11  12
HETATM   12  O   UNK N   1      21.988  16.273   6.297  0.00  0.00    -0.271 OA
BRANCH  12  13
HETATM   13  C   UNK N   1      22.143  16.130   4.950  0.00  0.00     0.298 C 
HETATM   14  O   UNK N   1      22.622  15.120   4.463  0.00  0.00    -0.259 OA
BRANCH  13  15
HETATM   15  C   UNK N   1      21.628  17.190   4.065  0.00  0.00     0.040 A 
HETATM   16  C   UNK N   1      22.122  18.499   4.156  0.00  0.00     0.020 A 
HETATM   17  C   UNK N   1      21.658  19.486   3.281  0.00  0.00     0.030 A 
HETATM   18  C   UNK N   1      20.707  19.168   2.309  0.00  0.00     0.025 A 
HETATM   19  C   UNK N   1      20.202  17.868   2.223  0.00  0.00     0.030 A 
HETATM   20  C   UNK N   1      20.659  16.883   3.101  0.00  0.00     0.020 A 
BRANCH  18  21
HETATM   21  N   UNK N   1      20.264  20.154   1.406  0.00  0.00    -0.399 N 
HETATM   22  H   UNK N   1      20.475  21.102   1.559  0.00  0.00     0.156 HD
HETATM   23  H   UNK N   1      19.739  19.891   0.615  0.00  0.00     0.156 HD
ENDBRANCH  18  21
ENDBRANCH  13  15
ENDBRANCH  12  13
ENDBRANCH  11  12
BRANCH  10  24
HETATM   24  O   UNK N   1      23.999  14.389   7.201  0.00  0.00    -0.357 OA
HETATM   25  H   UNK N   1      24.701  13.951   7.641  0.00  0.00     0.217 HD
ENDBRANCH  10  24
BRANCH   3  26
HETATM   26  O   UNK N   1      19.088  14.647   9.682  0.00  0.00    -0.359 OA
HETATM   27  H   UNK N   1      19.036  14.542  10.613  0.00  0.00     0.217 HD
ENDBRANCH   3  26
TORSDOF 6
ENDMDL
MODEL 6
REMARK VINA RESULT:      -6.7     10.809     12.843
REMARK  6 active torsions:
REMARK  status: ('A' for Active; 'I' for Inactive)
REMARK    1  A    between atoms: C_3  and  O_23 
REMARK    2  A    between atoms: C_10  and  O_22 
REMARK    3  A    between atoms: C_11  and  O_12 
REMARK    4  A    between atoms: O_12  and  C_13 
REMARK    5  A    between atoms: C_13  and  C_15 
REMARK    6  A    between atoms: C_18  and  N_21 
ROOT
HETATM    1  C   UNK N   1      30.771  24.130  -5.715  0.00  0.00     0.054 C 
HETATM    2  C   UNK N   1      29.551  24.754  -5.113  0.00  0.00     0.009 A 
HETATM    3  C   UNK N   1      29.118  26.004  -5.577  0.00  0.00     0.085 A 
HETATM    4  C   UNK N   1      27.983  26.603  -5.021  0.00  0.00     0.011 A 
HETATM    5  C   UNK N   1      27.546  27.857  -5.472  0.00  0.00     0.015 A 
HETATM    6  C   UNK N   1      26.417  28.456  -4.908  0.00  0.00     0.001 A 
HETATM    7  C   UNK N   1      25.715  27.806  -3.891  0.00  0.00     0.001 A 
HETATM    8  C   UNK N   1      26.142  26.559  -3.434  0.00  0.00     0.015 A 
HETATM    9  C   UNK N   1      27.274  25.946  -3.990  0.00  0.00     0.013 A 
HETATM   10  C   UNK N   1      27.708  24.697  -3.517  0.00  0.00     0.111 A 
HETATM   11  C   UNK N   1      28.859  24.081  -4.084  0.00  0.00     0.122 A 
ENDROOT
BRANCH  11  12
HETATM   12  O   UNK N   1      29.374  22.883  -3.676  0.00  0.00    -0.271 OA
BRANCH  12  13
HETATM   13  C   UNK N   1      30.375  22.542  -2.816  0.00  0.00     0.298 C 
HETATM   14  O   UNK N   1      30.401  22.953  -1.668  0.00  0.00    -0.259 OA
BRANCH  13  15
HETATM   15  C   UNK N   1      31.393  21.578  -3.266  0.00  0.00     0.040 A 
HETATM   16  C   UNK N   1      31.102  20.653  -4.279  0.00  0.00     0.020 A 
HETATM   17  C   UNK N   1      32.090  19.772  -4.730  0.00  0.00     0.030 A 
HETATM   18  C   UNK N   1      33.372  19.816  -4.176  0.00  0.00     0.025 A 
HETATM   19  C   UNK N   1      33.663  20.727  -3.157  0.00  0.00     0.030 A 
HETATM   20  C   UNK N   1      32.675  21.603  -2.701  0.00  0.00     0.020 A 
BRANCH  18  21
HETATM   21  N   UNK N   1      34.376  18.952  -4.653  0.00  0.00    -0.399 N 
HETATM   22  H   UNK N   1      34.358  18.628  -5.581  0.00  0.00     0.156 HD
HETATM   23  H   UNK N   1      35.103  18.669  -4.050  0.00  0.00     0.156 HD
ENDBRANCH  18  21
ENDBRANCH  13  15
ENDBRANCH  12  13
ENDBRANCH  11  12
BRANCH  10  24
HETATM   24  O   UNK N   1      27.029  24.127  -2.507  0.00  0.00    -0.357 OA
HETATM   25  H   UNK N   1      27.107  23.208  -2.345  0.00  0.00     0.217 HD
ENDBRANCH  10  24
BRANCH   3  26
HETATM   26  O   UNK N   1      29.801  26.630  -6.556  0.00  0.00    -0.359 OA
HETATM   27  H   UNK N   1      30.630  27.029  -6.371  0.00  0.00     0.217 HD
ENDBRANCH   3  26
TORSDOF 6
ENDMDL
MODEL 7
REMARK VINA RESULT:      -6.7     11.151     13.797
REMARK  6 active torsions:
REMARK  status: ('A' for Active; 'I' for Inactive)
REMARK    1  A    between atoms: C_3  and  O_23 
REMARK    2  A    between atoms: C_10  and  O_22 
REMARK    3  A    between atoms: C_11  and  O_12 
REMARK    4  A    between atoms: O_12  and  C_13 
REMARK    5  A    between atoms: C_13  and  C_15 
REMARK    6  A    between atoms: C_18  and  N_21 
ROOT
HETATM    1  C   UNK N   1      29.577  21.563  -5.911  0.00  0.00     0.054 C 
HETATM    2  C   UNK N   1      30.945  21.319  -5.357  0.00  0.00     0.009 A 
HETATM    3  C   UNK N   1      31.985  20.961  -6.226  0.00  0.00     0.085 A 
HETATM    4  C   UNK N   1      33.268  20.723  -5.723  0.00  0.00     0.011 A 
HETATM    5  C   UNK N   1      34.313  20.356  -6.583  0.00  0.00     0.015 A 
HETATM    6  C   UNK N   1      35.591  20.110  -6.077  0.00  0.00     0.001 A 
HETATM    7  C   UNK N   1      35.836  20.231  -4.707  0.00  0.00     0.001 A 
HETATM    8  C   UNK N   1      34.803  20.594  -3.842  0.00  0.00     0.015 A 
HETATM    9  C   UNK N   1      33.514  20.842  -4.337  0.00  0.00     0.013 A 
HETATM   10  C   UNK N   1      32.475  21.193  -3.461  0.00  0.00     0.111 A 
HETATM   11  C   UNK N   1      31.169  21.443  -3.969  0.00  0.00     0.122 A 
ENDROOT
BRANCH  11  12
HETATM   12  O   UNK N   1      30.088  21.765  -3.198  0.00  0.00    -0.271 OA
BRANCH  12  13
HETATM   13  C   UNK N   1      29.762  22.864  -2.460  0.00  0.00     0.298 C 
HETATM   14  O   UNK N   1      30.196  23.031  -1.333  0.00  0.00    -0.259 OA
BRANCH  13  15
HETATM   15  C   UNK N   1      28.942  23.916  -3.086  0.00  0.00     0.040 A 
HETATM   16  C   UNK N   1      29.543  24.940  -3.832  0.00  0.00     0.020 A 
HETATM   17  C   UNK N   1      28.751  25.907  -4.460  0.00  0.00     0.030 A 
HETATM   18  C   UNK N   1      27.360  25.850  -4.351  0.00  0.00     0.025 A 
HETATM   19  C   UNK N   1      26.757  24.840  -3.598  0.00  0.00     0.030 A 
HETATM   20  C   UNK N   1      27.547  23.877  -2.964  0.00  0.00     0.020 A 
BRANCH  18  21
HETATM   21  N   UNK N   1      26.561  26.805  -5.010  0.00  0.00    -0.399 N 
HETATM   22  H   UNK N   1      25.655  27.007  -4.687  0.00  0.00     0.156 HD
HETATM   23  H   UNK N   1      26.915  27.272  -5.802  0.00  0.00     0.156 HD
ENDBRANCH  18  21
ENDBRANCH  13  15
ENDBRANCH  12  13
ENDBRANCH  11  12
BRANCH  10  24
HETATM   24  O   UNK N   1      32.743  21.256  -2.146  0.00  0.00    -0.357 OA
HETATM   25  H   UNK N   1      32.411  20.601  -1.564  0.00  0.00     0.217 HD
ENDBRANCH  10  24
BRANCH   3  26
HETATM   26  O   UNK N   1      31.744  20.840  -7.547  0.00  0.00    -0.359 OA
HETATM   27  H   UNK N   1      30.868  20.711  -7.856  0.00  0.00     0.217 HD
ENDBRANCH   3  26
TORSDOF 6
ENDMDL
MODEL 8
REMARK VINA RESULT:      -6.7      9.304     10.035
REMARK  6 active torsions:
REMARK  status: ('A' for Active; 'I' for Inactive)
REMARK    1  A    between atoms: C_3  and  O_23 
REMARK    2  A    between atoms: C_10  and  O_22 
REMARK    3  A    between atoms: C_11  and  O_12 
REMARK    4  A    between atoms: O_12  and  C_13 
REMARK    5  A    between atoms: C_13  and  C_15 
REMARK    6  A    between atoms: C_18  and  N_21 
ROOT
HETATM    1  C   UNK N   1      20.693  16.239   8.677  0.00  0.00     0.054 C 
HETATM    2  C   UNK N   1      20.678  16.247   7.181  0.00  0.00     0.009 A 
HETATM    3  C   UNK N   1      20.868  17.457   6.498  0.00  0.00     0.085 A 
HETATM    4  C   UNK N   1      20.851  17.482   5.100  0.00  0.00     0.011 A 
HETATM    5  C   UNK N   1      21.031  18.688   4.407  0.00  0.00     0.015 A 
HETATM    6  C   UNK N   1      21.005  18.711   3.011  0.00  0.00     0.001 A 
HETATM    7  C   UNK N   1      20.799  17.530   2.295  0.00  0.00     0.001 A 
HETATM    8  C   UNK N   1      20.617  16.324   2.975  0.00  0.00     0.015 A 
HETATM    9  C   UNK N   1      20.640  16.287   4.377  0.00  0.00     0.013 A 
HETATM   10  C   UNK N   1      20.442  15.074   5.055  0.00  0.00     0.111 A 
HETATM   11  C   UNK N   1      20.465  15.042   6.478  0.00  0.00     0.122 A 
ENDROOT
BRANCH  11  12
HETATM   12  O   UNK N   1      20.258  13.920   7.229  0.00  0.00    -0.271 OA
BRANCH  12  13
HETATM   13  C   UNK N   1      20.959  12.761   7.388  0.00  0.00     0.298 C 
HETATM   14  O   UNK N   1      21.057  11.943   6.490  0.00  0.00    -0.259 OA
BRANCH  13  15
HETATM   15  C   UNK N   1      21.689  12.547   8.650  0.00  0.00     0.040 A 
HETATM   16  C   UNK N   1      23.022  12.109   8.637  0.00  0.00     0.020 A 
HETATM   17  C   UNK N   1      23.720  11.952   9.838  0.00  0.00     0.030 A 
HETATM   18  C   UNK N   1      23.093  12.239  11.054  0.00  0.00     0.025 A 
HETATM   19  C   UNK N   1      21.762  12.662  11.072  0.00  0.00     0.030 A 
HETATM   20  C   UNK N   1      21.061  12.812   9.873  0.00  0.00     0.020 A 
BRANCH  18  21
HETATM   21  N   UNK N   1      23.807  12.113  12.261  0.00  0.00    -0.399 N 
HETATM   22  H   UNK N   1      24.323  11.298  12.455  0.00  0.00     0.156 HD
HETATM   23  H   UNK N   1      23.787  12.847  12.918  0.00  0.00     0.156 HD
ENDBRANCH  18  21
ENDBRANCH  13  15
ENDBRANCH  12  13
ENDBRANCH  11  12
BRANCH  10  24
HETATM   24  O   UNK N   1      20.204  13.968   4.330  0.00  0.00    -0.357 OA
HETATM   25  H   UNK N   1      20.506  13.133   4.628  0.00  0.00     0.217 HD
ENDBRANCH  10  24
BRANCH   3  26
HETATM   26  O   UNK N   1      21.061  18.596   7.192  0.00  0.00    -0.359 OA
HETATM   27  H   UNK N   1      20.579  18.754   7.981  0.00  0.00     0.217 HD
ENDBRANCH   3  26
TORSDOF 6
ENDMDL
MODEL 9
REMARK VINA RESULT:      -6.6      3.088      4.422
REMARK  6 active torsions:
REMARK  status: ('A' for Active; 'I' for Inactive)
REMARK    1  A    between atoms: C_3  and  O_23 
REMARK    2  A    between atoms: C_10  and  O_22 
REMARK    3  A    between atoms: C_11  and  O_12 
REMARK    4  A    between atoms: O_12  and  C_13 
REMARK    5  A    between atoms: C_13  and  C_15 
REMARK    6  A    between atoms: C_18  and  N_21 
ROOT
HETATM    1  C   UNK N   1      30.453  16.994   9.063  0.00  0.00     0.054 C 
HETATM    2  C   UNK N   1      31.114  17.075   7.723  0.00  0.00     0.009 A 
HETATM    3  C   UNK N   1      30.359  16.824   6.569  0.00  0.00     0.085 A 
HETATM    4  C   UNK N   1      30.963  16.889   5.309  0.00  0.00     0.011 A 
HETATM    5  C   UNK N   1      30.220  16.631   4.148  0.00  0.00     0.015 A 
HETATM    6  C   UNK N   1      30.828  16.689   2.892  0.00  0.00     0.001 A 
HETATM    7  C   UNK N   1      32.184  17.006   2.785  0.00  0.00     0.001 A 
HETATM    8  C   UNK N   1      32.934  17.263   3.935  0.00  0.00     0.015 A 
HETATM    9  C   UNK N   1      32.336  17.208   5.202  0.00  0.00     0.013 A 
HETATM   10  C   UNK N   1      33.098  17.453   6.356  0.00  0.00     0.111 A 
HETATM   11  C   UNK N   1      32.486  17.394   7.639  0.00  0.00     0.122 A 
ENDROOT
BRANCH  11  12
HETATM   12  O   UNK N   1      33.145  17.591   8.819  0.00  0.00    -0.271 OA
BRANCH  12  13
HETATM   13  C   UNK N   1      34.386  17.241   9.265  0.00  0.00     0.298 C 
HETATM   14  O   UNK N   1      35.310  18.037   9.278  0.00  0.00    -0.259 OA
BRANCH  13  15
HETATM   15  C   UNK N   1      34.578  15.895   9.831  0.00  0.00     0.040 A 
HETATM   16  C   UNK N   1      34.928  15.730  11.179  0.00  0.00     0.020 A 
HETATM   17  C   UNK N   1      35.064  14.446  11.717  0.00  0.00     0.030 A 
HETATM   18  C   UNK N   1      34.843  13.325  10.913  0.00  0.00     0.025 A 
HETATM   19  C   UNK N   1      34.508  13.484   9.566  0.00  0.00     0.030 A 
HETATM   20  C   UNK N   1      34.378  14.766   9.026  0.00  0.00     0.020 A 
BRANCH  18  21
HETATM   21  N   UNK N   1      34.948  12.033  11.463  0.00  0.00    -0.399 N 
HETATM   22  H   UNK N   1      34.240  11.367  11.312  0.00  0.00     0.156 HD
HETATM   23  H   UNK N   1      35.736  11.795  12.003  0.00  0.00     0.156 HD
ENDBRANCH  18  21
ENDBRANCH  13  15
ENDBRANCH  12  13
ENDBRANCH  11  12
BRANCH  10  24
HETATM   24  O   UNK N   1      34.408  17.712   6.211  0.00  0.00    -0.357 OA
HETATM   25  H   UNK N   1      34.713  18.596   6.166  0.00  0.00     0.217 HD
ENDBRANCH  10  24
BRANCH   3  26
HETATM   26  O   UNK N   1      29.052  16.513   6.675  0.00  0.00    -0.359 OA
HETATM   27  H   UNK N   1      28.541  16.353   5.905  0.00  0.00     0.217 HD
ENDBRANCH   3  26
TORSDOF 6
ENDMDL
