MODEL 1
REMARK VINA RESULT:      -8.1      0.000      0.000
REMARK  14 active torsions:
REMARK  status: ('A' for Active; 'I' for Inactive)
REMARK    1  A    between atoms: C_2  and  C_3 
REMARK    2  A    between atoms: C_2  and  N_10 
REMARK       I    between atoms: C_3  and  N_5 
REMARK    3  A    between atoms: N_5  and  C_6 
REMARK    4  A    between atoms: C_6  and  C_7 
REMARK       I    between atoms: C_7  and  N_9 
REMARK       I    between atoms: N_10  and  C_11 
REMARK    5  A    between atoms: C_11  and  C_13 
REMARK    6  A    between atoms: C_13  and  N_14 
REMARK       I    between atoms: N_14  and  C_15 
REMARK    7  A    between atoms: C_17  and  C_15 
REMARK    8  A    between atoms: C_19  and  O_44 
REMARK       I    between atoms: N_21  and  C_22 
REMARK    9  A    between atoms: C_24  and  C_22 
REMARK       I    between atoms: N_28  and  C_29 
REMARK   10  A    between atoms: C_29  and  C_31 
REMARK   11  A    between atoms: C_31  and  C_32 
REMARK   12  A    between atoms: C_31  and  N_40 
REMARK   13  A    between atoms: C_32  and  C_33 
REMARK   14  A    between atoms: C_36  and  O_39 
REMARK       I    between atoms: N_40  and  C_41 
ROOT
HETATM    1  C   UNK N   1      21.422  12.432   9.990  0.00  0.00     0.181 C 
HETATM    2  C   UNK N   1      22.090  12.461  11.359  0.00  0.00     0.068 C 
HETATM    3  C   UNK N   1      23.369  11.671  11.162  0.00  0.00     0.138 C 
HETATM    4  C   UNK N   1      23.776  11.974   9.735  0.00  0.00     0.158 C 
HETATM    5  N   UNK N   1      22.508  12.147   9.079  0.00  0.00    -0.334 N 
HETATM    6  C   UNK N   1      22.344  11.985   7.733  0.00  0.00     0.243 C 
HETATM    7  O   UNK N   1      21.215  12.029   7.253  0.00  0.00    -0.271 OA
ENDROOT
BRANCH   1   8
HETATM    8  C   UNK N   1      20.756  13.768   9.721  0.00  0.00     0.241 C 
HETATM    9  N   UNK N   1      21.444  14.790   9.135  0.00  0.00    -0.351 N 
HETATM   10  H   UNK N   1      22.399  14.663   8.936  0.00  0.00     0.163 HD
HETATM   11  O   UNK N   1      19.573  13.907   9.997  0.00  0.00    -0.271 OA
BRANCH   9  12
HETATM   12  C   UNK N   1      20.824  16.059   8.793  0.00  0.00     0.225 C 
BRANCH  12  13
HETATM   13  C   UNK N   1      20.657  16.221   7.305  0.00  0.00     0.236 C 
HETATM   14  N   UNK N   1      20.327  15.149   6.540  0.00  0.00    -0.347 N 
HETATM   15  H   UNK N   1      20.110  14.288   6.966  0.00  0.00     0.163 HD
HETATM   16  O   UNK N   1      20.870  17.307   6.778  0.00  0.00    -0.272 OA
BRANCH  14  17
HETATM   17  C   UNK N   1      20.294  15.270   5.101  0.00  0.00     0.172 C 
HETATM   18  C   UNK N   1      20.601  13.950   4.412  0.00  0.00     0.042 C 
BRANCH  17  19
HETATM   19  C   UNK N   1      19.109  16.030   4.561  0.00  0.00     0.240 C 
HETATM   20  O   UNK N   1      18.062  15.969   5.181  0.00  0.00    -0.271 OA
HETATM   21  N   UNK N   1      19.169  16.827   3.462  0.00  0.00    -0.351 N 
HETATM   22  H   UNK N   1      18.343  17.283   3.182  0.00  0.00     0.163 HD
BRANCH  21  23
HETATM   23  C   UNK N   1      20.358  17.047   2.677  0.00  0.00     0.225 C 
BRANCH  23  24
HETATM   24  C   UNK N   1      20.146  16.549   1.278  0.00  0.00     0.233 C 
HETATM   25  O   UNK N   1      20.911  15.733   0.790  0.00  0.00    -0.272 OA
HETATM   26  N   UNK N   1      19.104  17.004   0.557  0.00  0.00    -0.369 N 
HETATM   27  H   UNK N   1      19.033  16.913  -0.421  0.00  0.00     0.159 HD
HETATM   28  H   UNK N   1      18.370  17.455   1.035  0.00  0.00     0.159 HD
ENDBRANCH  23  24
ENDBRANCH  21  23
ENDBRANCH  17  19
ENDBRANCH  14  17
ENDBRANCH  12  13
ENDBRANCH   9  12
ENDBRANCH   1   8
BRANCH   6  29
HETATM   29  C   UNK N   1      23.533  11.769   6.813  0.00  0.00     0.179 C 
HETATM   30  C   UNK N   1      23.331  10.516   5.973  0.00  0.00     0.037 C 
HETATM   31  C   UNK N   1      23.679  10.902   4.542  0.00  0.00     0.022 C 
HETATM   32  C   UNK N   1      23.596  12.417   4.487  0.00  0.00     0.127 C 
HETATM   33  N   UNK N   1      23.690  12.838   5.853  0.00  0.00    -0.337 N 
HETATM   34  C   UNK N   1      23.992  14.127   6.221  0.00  0.00     0.243 C 
HETATM   35  O   UNK N   1      24.159  14.389   7.403  0.00  0.00    -0.271 OA
BRANCH  34  36
HETATM   36  C   UNK N   1      24.157  15.230   5.177  0.00  0.00     0.181 C 
BRANCH  36  37
HETATM   37  C   UNK N   1      24.035  16.647   5.778  0.00  0.00     0.073 C 
BRANCH  37  38
HETATM   38  C   UNK N   1      24.295  17.862   4.930  0.00  0.00    -0.056 A 
HETATM   39  C   UNK N   1      25.589  18.301   4.610  0.00  0.00     0.010 A 
HETATM   40  C   UNK N   1      25.771  19.345   3.694  0.00  0.00     0.037 A 
HETATM   41  C   UNK N   1      24.663  19.943   3.085  0.00  0.00     0.065 A 
HETATM   42  C   UNK N   1      23.374  19.515   3.407  0.00  0.00     0.037 A 
HETATM   43  C   UNK N   1      23.194  18.474   4.320  0.00  0.00     0.010 A 
BRANCH  41  44
HETATM   44  O   UNK N   1      24.833  20.922   2.184  0.00  0.00    -0.361 OA
HETATM   45  H   UNK N   1      24.792  21.820   2.445  0.00  0.00     0.217 HD
ENDBRANCH  41  44
ENDBRANCH  37  38
ENDBRANCH  36  37
BRANCH  36  46
HETATM   46  N   UNK N   1      25.477  15.104   4.591  0.00  0.00    -0.348 N 
HETATM   47  C   UNK N   1      25.722  15.023   3.259  0.00  0.00     0.214 C 
HETATM   48  O   UNK N   1      26.873  14.909   2.871  0.00  0.00    -0.274 OA
HETATM   49  C   UNK N   1      24.617  15.068   2.251  0.00  0.00     0.117 C 
HETATM   50  H   UNK N   1      26.248  15.074   5.202  0.00  0.00     0.163 HD
ENDBRANCH  36  46
ENDBRANCH  34  36
ENDBRANCH   6  29
BRANCH   3  51
HETATM   51  O   UNK N   1      24.350  12.070  12.069  0.00  0.00    -0.394 OA
HETATM   52  H   UNK N   1      24.540  12.854  12.607  0.00  0.00     0.210 HD
ENDBRANCH   3  51
TORSDOF 14
ENDMDL
MODEL 2
REMARK VINA RESULT:      -7.7      1.231      1.469
REMARK  14 active torsions:
REMARK  status: ('A' for Active; 'I' for Inactive)
REMARK    1  A    between atoms: C_2  and  C_3 
REMARK    2  A    between atoms: C_2  and  N_10 
REMARK       I    between atoms: C_3  and  N_5 
REMARK    3  A    between atoms: N_5  and  C_6 
REMARK    4  A    between atoms: C_6  and  C_7 
REMARK       I    between atoms: C_7  and  N_9 
REMARK       I    between atoms: N_10  and  C_11 
REMARK    5  A    between atoms: C_11  and  C_13 
REMARK    6  A    between atoms: C_13  and  N_14 
REMARK       I    between atoms: N_14  and  C_15 
REMARK    7  A    between atoms: C_17  and  C_15 
REMARK    8  A    between atoms: C_19  and  O_44 
REMARK       I    between atoms: N_21  and  C_22 
REMARK    9  A    between atoms: C_24  and  C_22 
REMARK       I    between atoms: N_28  and  C_29 
REMARK   10  A    between atoms: C_29  and  C_31 
REMARK   11  A    between atoms: C_31  and  C_32 
REMARK   12  A    between atoms: C_31  and  N_40 
REMARK   13  A    between atoms: C_32  and  C_33 
REMARK   14  A    between atoms: C_36  and  O_39 
REMARK       I    between atoms: N_40  and  C_41 
ROOT
HETATM    1  C   UNK N   1      21.465  12.626   9.304  0.00  0.00     0.181 C 
HETATM    2  C   UNK N   1      21.795  12.691  10.791  0.00  0.00     0.068 C 
HETATM    3  C   UNK N   1      23.069  11.878  10.921  0.00  0.00     0.138 C 
HETATM    4  C   UNK N   1      23.804  12.131   9.622  0.00  0.00     0.158 C 
HETATM    5  N   UNK N   1      22.728  12.299   8.682  0.00  0.00    -0.334 N 
HETATM    6  C   UNK N   1      22.881  12.096   7.339  0.00  0.00     0.243 C 
HETATM    7  O   UNK N   1      21.897  12.139   6.607  0.00  0.00    -0.271 OA
ENDROOT
BRANCH   1   8
HETATM    8  C   UNK N   1      20.907  13.962   8.849  0.00  0.00     0.241 C 
HETATM    9  N   UNK N   1      21.670  14.833   8.128  0.00  0.00    -0.351 N 
HETATM   10  H   UNK N   1      22.610  14.602   7.951  0.00  0.00     0.163 HD
HETATM   11  O   UNK N   1      19.742  14.233   9.101  0.00  0.00    -0.271 OA
BRANCH   9  12
HETATM   12  C   UNK N   1      21.152  16.087   7.611  0.00  0.00     0.225 C 
BRANCH  12  13
HETATM   13  C   UNK N   1      20.962  16.045   6.117  0.00  0.00     0.236 C 
HETATM   14  N   UNK N   1      21.233  14.904   5.433  0.00  0.00    -0.347 N 
HETATM   15  H   UNK N   1      21.467  14.081   5.919  0.00  0.00     0.163 HD
HETATM   16  O   UNK N   1      20.615  17.053   5.514  0.00  0.00    -0.272 OA
BRANCH  14  17
HETATM   17  C   UNK N   1      21.179  14.897   3.989  0.00  0.00     0.172 C 
HETATM   18  C   UNK N   1      21.920  13.709   3.397  0.00  0.00     0.042 C 
BRANCH  17  19
HETATM   19  C   UNK N   1      19.814  15.170   3.410  0.00  0.00     0.240 C 
HETATM   20  O   UNK N   1      18.878  14.504   3.817  0.00  0.00    -0.271 OA
HETATM   21  N   UNK N   1      19.566  16.159   2.512  0.00  0.00    -0.351 N 
HETATM   22  H   UNK N   1      18.642  16.262   2.187  0.00  0.00     0.163 HD
BRANCH  21  23
HETATM   23  C   UNK N   1      20.563  17.067   2.000  0.00  0.00     0.225 C 
BRANCH  23  24
HETATM   24  C   UNK N   1      20.031  18.469   2.012  0.00  0.00     0.233 C 
HETATM   25  O   UNK N   1      19.281  18.838   2.902  0.00  0.00    -0.272 OA
HETATM   26  N   UNK N   1      20.382  19.326   1.035  0.00  0.00    -0.369 N 
HETATM   27  H   UNK N   1      19.902  20.165   0.843  0.00  0.00     0.159 HD
HETATM   28  H   UNK N   1      21.164  19.102   0.481  0.00  0.00     0.159 HD
ENDBRANCH  23  24
ENDBRANCH  21  23
ENDBRANCH  17  19
ENDBRANCH  14  17
ENDBRANCH  12  13
ENDBRANCH   9  12
ENDBRANCH   1   8
BRANCH   6  29
HETATM   29  C   UNK N   1      24.248  11.835   6.731  0.00  0.00     0.179 C 
HETATM   30  C   UNK N   1      24.248  10.512   5.981  0.00  0.00     0.037 C 
HETATM   31  C   UNK N   1      24.906  10.785   4.635  0.00  0.00     0.022 C 
HETATM   32  C   UNK N   1      24.825  12.287   4.429  0.00  0.00     0.127 C 
HETATM   33  N   UNK N   1      24.607  12.824   5.740  0.00  0.00    -0.337 N 
HETATM   34  C   UNK N   1      24.810  14.147   6.050  0.00  0.00     0.243 C 
HETATM   35  O   UNK N   1      24.706  14.512   7.212  0.00  0.00    -0.271 OA
BRANCH  34  36
HETATM   36  C   UNK N   1      25.196  15.162   4.976  0.00  0.00     0.181 C 
BRANCH  36  37
HETATM   37  C   UNK N   1      25.175  16.617   5.492  0.00  0.00     0.073 C 
BRANCH  37  38
HETATM   38  C   UNK N   1      24.838  17.753   4.564  0.00  0.00    -0.056 A 
HETATM   39  C   UNK N   1      23.520  18.162   4.313  0.00  0.00     0.010 A 
HETATM   40  C   UNK N   1      23.273  19.319   3.563  0.00  0.00     0.037 A 
HETATM   41  C   UNK N   1      24.342  20.077   3.074  0.00  0.00     0.065 A 
HETATM   42  C   UNK N   1      25.655  19.669   3.314  0.00  0.00     0.037 A 
HETATM   43  C   UNK N   1      25.899  18.515   4.062  0.00  0.00     0.010 A 
BRANCH  41  44
HETATM   44  O   UNK N   1      24.112  21.203   2.381  0.00  0.00    -0.361 OA
HETATM   45  H   UNK N   1      23.528  21.855   2.715  0.00  0.00     0.217 HD
ENDBRANCH  41  44
ENDBRANCH  37  38
ENDBRANCH  36  37
BRANCH  36  46
HETATM   46  N   UNK N   1      26.544  14.862   4.535  0.00  0.00    -0.348 N 
HETATM   47  C   UNK N   1      26.953  14.888   3.242  0.00  0.00     0.214 C 
HETATM   48  O   UNK N   1      28.111  14.610   2.977  0.00  0.00    -0.274 OA
HETATM   49  C   UNK N   1      26.021  15.248   2.128  0.00  0.00     0.117 C 
HETATM   50  H   UNK N   1      27.207  14.623   5.222  0.00  0.00     0.163 HD
ENDBRANCH  36  46
ENDBRANCH  34  36
ENDBRANCH   6  29
BRANCH   3  51
HETATM   51  O   UNK N   1      23.818  12.294  12.021  0.00  0.00    -0.394 OA
HETATM   52  H   UNK N   1      24.622  12.813  12.175  0.00  0.00     0.210 HD
ENDBRANCH   3  51
TORSDOF 14
ENDMDL
MODEL 3
REMARK VINA RESULT:      -7.5      2.093      3.878
REMARK  14 active torsions:
REMARK  status: ('A' for Active; 'I' for Inactive)
REMARK    1  A    between atoms: C_2  and  C_3 
REMARK    2  A    between atoms: C_2  and  N_10 
REMARK       I    between atoms: C_3  and  N_5 
REMARK    3  A    between atoms: N_5  and  C_6 
REMARK    4  A    between atoms: C_6  and  C_7 
REMARK       I    between atoms: C_7  and  N_9 
REMARK       I    between atoms: N_10  and  C_11 
REMARK    5  A    between atoms: C_11  and  C_13 
REMARK    6  A    between atoms: C_13  and  N_14 
REMARK       I    between atoms: N_14  and  C_15 
REMARK    7  A    between atoms: C_17  and  C_15 
REMARK    8  A    between atoms: C_19  and  O_44 
REMARK       I    between atoms: N_21  and  C_22 
REMARK    9  A    between atoms: C_24  and  C_22 
REMARK       I    between atoms: N_28  and  C_29 
REMARK   10  A    between atoms: C_29  and  C_31 
REMARK   11  A    between atoms: C_31  and  C_32 
REMARK   12  A    between atoms: C_31  and  N_40 
REMARK   13  A    between atoms: C_32  and  C_33 
REMARK   14  A    between atoms: C_36  and  O_39 
REMARK       I    between atoms: N_40  and  C_41 
ROOT
HETATM    1  C   UNK N   1      21.244  12.748   9.199  0.00  0.00     0.181 C 
HETATM    2  C   UNK N   1      22.102  12.942  10.444  0.00  0.00     0.068 C 
HETATM    3  C   UNK N   1      23.222  11.933  10.282  0.00  0.00     0.138 C 
HETATM    4  C   UNK N   1      23.454  11.876   8.787  0.00  0.00     0.158 C 
HETATM    5  N   UNK N   1      22.139  12.116   8.256  0.00  0.00    -0.334 N 
HETATM    6  C   UNK N   1      21.763  11.717   7.005  0.00  0.00     0.243 C 
HETATM    7  O   UNK N   1      20.592  11.845   6.658  0.00  0.00    -0.271 OA
ENDROOT
BRANCH   1   8
HETATM    8  C   UNK N   1      20.731  14.093   8.721  0.00  0.00     0.241 C 
HETATM    9  N   UNK N   1      21.408  14.808   7.777  0.00  0.00    -0.351 N 
HETATM   10  H   UNK N   1      22.267  14.459   7.447  0.00  0.00     0.163 HD
HETATM   11  O   UNK N   1      19.672  14.513   9.163  0.00  0.00    -0.271 OA
BRANCH   9  12
HETATM   12  C   UNK N   1      20.913  16.063   7.239  0.00  0.00     0.225 C 
BRANCH  12  13
HETATM   13  C   UNK N   1      21.989  16.828   6.513  0.00  0.00     0.236 C 
HETATM   14  N   UNK N   1      23.034  16.163   5.957  0.00  0.00    -0.347 N 
HETATM   15  H   UNK N   1      23.043  15.178   5.949  0.00  0.00     0.163 HD
HETATM   16  O   UNK N   1      21.949  18.052   6.471  0.00  0.00    -0.272 OA
BRANCH  14  17
HETATM   17  C   UNK N   1      24.132  16.900   5.375  0.00  0.00     0.172 C 
HETATM   18  C   UNK N   1      25.470  16.487   5.968  0.00  0.00     0.042 C 
BRANCH  17  19
HETATM   19  C   UNK N   1      24.089  17.011   3.872  0.00  0.00     0.240 C 
HETATM   20  O   UNK N   1      24.323  16.009   3.219  0.00  0.00    -0.271 OA
HETATM   21  N   UNK N   1      23.740  18.148   3.216  0.00  0.00    -0.351 N 
HETATM   22  H   UNK N   1      23.742  18.127   2.232  0.00  0.00     0.163 HD
BRANCH  21  23
HETATM   23  C   UNK N   1      23.371  19.383   3.862  0.00  0.00     0.225 C 
BRANCH  23  24
HETATM   24  C   UNK N   1      23.818  20.548   3.029  0.00  0.00     0.233 C 
HETATM   25  O   UNK N   1      23.076  21.501   2.850  0.00  0.00    -0.272 OA
HETATM   26  N   UNK N   1      25.045  20.542   2.474  0.00  0.00    -0.369 N 
HETATM   27  H   UNK N   1      25.317  21.139   1.740  0.00  0.00     0.159 HD
HETATM   28  H   UNK N   1      25.708  19.904   2.825  0.00  0.00     0.159 HD
ENDBRANCH  23  24
ENDBRANCH  21  23
ENDBRANCH  17  19
ENDBRANCH  14  17
ENDBRANCH  12  13
ENDBRANCH   9  12
ENDBRANCH   1   8
BRANCH   6  29
HETATM   29  C   UNK N   1      22.766  11.132   6.027  0.00  0.00     0.179 C 
HETATM   30  C   UNK N   1      22.793   9.615   6.141  0.00  0.00     0.037 C 
HETATM   31  C   UNK N   1      22.734   9.080   4.717  0.00  0.00     0.022 C 
HETATM   32  C   UNK N   1      22.192  10.216   3.867  0.00  0.00     0.127 C 
HETATM   33  N   UNK N   1      22.411  11.395   4.651  0.00  0.00    -0.337 N 
HETATM   34  C   UNK N   1      22.378  12.663   4.122  0.00  0.00     0.243 C 
HETATM   35  O   UNK N   1      22.679  13.614   4.828  0.00  0.00    -0.271 OA
BRANCH  34  36
HETATM   36  C   UNK N   1      22.005  12.901   2.660  0.00  0.00     0.181 C 
BRANCH  36  37
HETATM   37  C   UNK N   1      20.627  13.577   2.496  0.00  0.00     0.073 C 
BRANCH  37  38
HETATM   38  C   UNK N   1      20.527  15.053   2.222  0.00  0.00    -0.056 A 
HETATM   39  C   UNK N   1      20.315  15.574   0.937  0.00  0.00     0.010 A 
HETATM   40  C   UNK N   1      20.078  16.944   0.762  0.00  0.00     0.037 A 
HETATM   41  C   UNK N   1      20.038  17.793   1.872  0.00  0.00     0.065 A 
HETATM   42  C   UNK N   1      20.257  17.281   3.152  0.00  0.00     0.037 A 
HETATM   43  C   UNK N   1      20.493  15.915   3.324  0.00  0.00     0.010 A 
BRANCH  41  44
HETATM   44  O   UNK N   1      19.781  19.101   1.714  0.00  0.00    -0.361 OA
HETATM   45  H   UNK N   1      19.832  19.686   2.442  0.00  0.00     0.217 HD
ENDBRANCH  41  44
ENDBRANCH  37  38
ENDBRANCH  36  37
BRANCH  36  46
HETATM   46  N   UNK N   1      23.004  13.773   2.075  0.00  0.00    -0.348 N 
HETATM   47  C   UNK N   1      23.555  13.596   0.848  0.00  0.00     0.214 C 
HETATM   48  O   UNK N   1      24.398  14.385   0.453  0.00  0.00    -0.274 OA
HETATM   49  C   UNK N   1      23.160  12.456  -0.036  0.00  0.00     0.117 C 
HETATM   50  H   UNK N   1      23.304  14.546   2.605  0.00  0.00     0.163 HD
ENDBRANCH  36  46
ENDBRANCH  34  36
ENDBRANCH   6  29
BRANCH   3  51
HETATM   51  O   UNK N   1      24.367  12.342  10.962  0.00  0.00    -0.394 OA
HETATM   52  H   UNK N   1      25.018  13.057  10.887  0.00  0.00     0.210 HD
ENDBRANCH   3  51
TORSDOF 14
ENDMDL
MODEL 4
REMARK VINA RESULT:      -7.5      3.109      7.266
REMARK  14 active torsions:
REMARK  status: ('A' for Active; 'I' for Inactive)
REMARK    1  A    between atoms: C_2  and  C_3 
REMARK    2  A    between atoms: C_2  and  N_10 
REMARK       I    between atoms: C_3  and  N_5 
REMARK    3  A    between atoms: N_5  and  C_6 
REMARK    4  A    between atoms: C_6  and  C_7 
REMARK       I    between atoms: C_7  and  N_9 
REMARK       I    between atoms: N_10  and  C_11 
REMARK    5  A    between atoms: C_11  and  C_13 
REMARK    6  A    between atoms: C_13  and  N_14 
REMARK       I    between atoms: N_14  and  C_15 
REMARK    7  A    between atoms: C_17  and  C_15 
REMARK    8  A    between atoms: C_19  and  O_44 
REMARK       I    between atoms: N_21  and  C_22 
REMARK    9  A    between atoms: C_24  and  C_22 
REMARK       I    between atoms: N_28  and  C_29 
REMARK   10  A    between atoms: C_29  and  C_31 
REMARK   11  A    between atoms: C_31  and  C_32 
REMARK   12  A    between atoms: C_31  and  N_40 
REMARK   13  A    between atoms: C_32  and  C_33 
REMARK   14  A    between atoms: C_36  and  O_39 
REMARK       I    between atoms: N_40  and  C_41 
ROOT
HETATM    1  C   UNK N   1      21.501  18.834   3.966  0.00  0.00     0.181 C 
HETATM    2  C   UNK N   1      20.527  19.652   3.126  0.00  0.00     0.068 C 
HETATM    3  C   UNK N   1      21.306  20.904   2.772  0.00  0.00     0.138 C 
HETATM    4  C   UNK N   1      22.736  20.424   2.639  0.00  0.00     0.158 C 
HETATM    5  N   UNK N   1      22.798  19.355   3.599  0.00  0.00    -0.334 N 
HETATM    6  C   UNK N   1      23.970  18.930   4.157  0.00  0.00     0.243 C 
HETATM    7  O   UNK N   1      23.941  18.096   5.058  0.00  0.00    -0.271 OA
ENDROOT
BRANCH   1   8
HETATM    8  C   UNK N   1      21.338  17.361   3.640  0.00  0.00     0.241 C 
HETATM    9  N   UNK N   1      21.366  16.417   4.624  0.00  0.00    -0.351 N 
HETATM   10  H   UNK N   1      21.547  16.704   5.548  0.00  0.00     0.163 HD
HETATM   11  O   UNK N   1      21.136  17.030   2.481  0.00  0.00    -0.271 OA
BRANCH   9  12
HETATM   12  C   UNK N   1      21.141  15.006   4.365  0.00  0.00     0.225 C 
BRANCH  12  13
HETATM   13  C   UNK N   1      20.844  14.241   5.628  0.00  0.00     0.236 C 
HETATM   14  N   UNK N   1      21.848  13.943   6.491  0.00  0.00    -0.347 N 
HETATM   15  H   UNK N   1      22.752  14.303   6.338  0.00  0.00     0.163 HD
HETATM   16  O   UNK N   1      19.706  13.843   5.851  0.00  0.00    -0.272 OA
BRANCH  14  17
HETATM   17  C   UNK N   1      21.592  13.100   7.636  0.00  0.00     0.172 C 
HETATM   18  C   UNK N   1      22.062  11.672   7.406  0.00  0.00     0.042 C 
BRANCH  17  19
HETATM   19  C   UNK N   1      21.971  13.708   8.962  0.00  0.00     0.240 C 
HETATM   20  O   UNK N   1      23.032  13.374   9.460  0.00  0.00    -0.271 OA
HETATM   21  N   UNK N   1      21.225  14.651   9.593  0.00  0.00    -0.351 N 
HETATM   22  H   UNK N   1      21.551  14.990  10.458  0.00  0.00     0.163 HD
BRANCH  21  23
HETATM   23  C   UNK N   1      19.987  15.189   9.085  0.00  0.00     0.225 C 
BRANCH  23  24
HETATM   24  C   UNK N   1      20.212  16.575   8.556  0.00  0.00     0.233 C 
HETATM   25  O   UNK N   1      21.136  16.802   7.792  0.00  0.00    -0.272 OA
HETATM   26  N   UNK N   1      19.389  17.574   8.927  0.00  0.00    -0.369 N 
HETATM   27  H   UNK N   1      19.604  18.529   8.819  0.00  0.00     0.159 HD
HETATM   28  H   UNK N   1      18.522  17.335   9.328  0.00  0.00     0.159 HD
ENDBRANCH  23  24
ENDBRANCH  21  23
ENDBRANCH  17  19
ENDBRANCH  14  17
ENDBRANCH  12  13
ENDBRANCH   9  12
ENDBRANCH   1   8
BRANCH   6  29
HETATM   29  C   UNK N   1      25.311  19.455   3.675  0.00  0.00     0.179 C 
HETATM   30  C   UNK N   1      25.591  20.823   4.278  0.00  0.00     0.037 C 
HETATM   31  C   UNK N   1      27.023  20.777   4.794  0.00  0.00     0.022 C 
HETATM   32  C   UNK N   1      27.368  19.305   4.933  0.00  0.00     0.127 C 
HETATM   33  N   UNK N   1      26.414  18.626   4.106  0.00  0.00    -0.337 N 
HETATM   34  C   UNK N   1      26.578  17.329   3.683  0.00  0.00     0.243 C 
HETATM   35  O   UNK N   1      25.777  16.852   2.893  0.00  0.00    -0.271 OA
BRANCH  34  36
HETATM   36  C   UNK N   1      27.761  16.487   4.154  0.00  0.00     0.181 C 
BRANCH  36  37
HETATM   37  C   UNK N   1      27.561  15.914   5.574  0.00  0.00     0.073 C 
BRANCH  37  38
HETATM   38  C   UNK N   1      28.298  16.502   6.747  0.00  0.00    -0.056 A 
HETATM   39  C   UNK N   1      29.662  16.826   6.701  0.00  0.00     0.010 A 
HETATM   40  C   UNK N   1      30.259  17.510   7.768  0.00  0.00     0.037 A 
HETATM   41  C   UNK N   1      29.492  17.884   8.876  0.00  0.00     0.065 A 
HETATM   42  C   UNK N   1      28.136  17.556   8.929  0.00  0.00     0.037 A 
HETATM   43  C   UNK N   1      27.543  16.874   7.865  0.00  0.00     0.010 A 
BRANCH  41  44
HETATM   44  O   UNK N   1      30.052  18.567   9.886  0.00  0.00    -0.361 OA
HETATM   45  H   UNK N   1      30.109  18.188  10.740  0.00  0.00     0.217 HD
ENDBRANCH  41  44
ENDBRANCH  37  38
ENDBRANCH  36  37
BRANCH  36  46
HETATM   46  N   UNK N   1      27.916  15.373   3.239  0.00  0.00    -0.348 N 
HETATM   47  C   UNK N   1      29.104  14.942   2.747  0.00  0.00     0.214 C 
HETATM   48  O   UNK N   1      29.122  13.998   1.974  0.00  0.00    -0.274 OA
HETATM   49  C   UNK N   1      30.396  15.594   3.125  0.00  0.00     0.117 C 
HETATM   50  H   UNK N   1      27.102  14.897   2.956  0.00  0.00     0.163 HD
ENDBRANCH  36  46
ENDBRANCH  34  36
ENDBRANCH   6  29
BRANCH   3  51
HETATM   51  O   UNK N   1      20.842  21.464   1.583  0.00  0.00    -0.394 OA
HETATM   52  H   UNK N   1      20.683  21.166   0.674  0.00  0.00     0.210 HD
ENDBRANCH   3  51
TORSDOF 14
ENDMDL
MODEL 5
REMARK VINA RESULT:      -7.4      1.307      2.307
REMARK  14 active torsions:
REMARK  status: ('A' for Active; 'I' for Inactive)
REMARK    1  A    between atoms: C_2  and  C_3 
REMARK    2  A    between atoms: C_2  and  N_10 
REMARK       I    between atoms: C_3  and  N_5 
REMARK    3  A    between atoms: N_5  and  C_6 
REMARK    4  A    between atoms: C_6  and  C_7 
REMARK       I    between atoms: C_7  and  N_9 
REMARK       I    between atoms: N_10  and  C_11 
REMARK    5  A    between atoms: C_11  and  C_13 
REMARK    6  A    between atoms: C_13  and  N_14 
REMARK       I    between atoms: N_14  and  C_15 
REMARK    7  A    between atoms: C_17  and  C_15 
REMARK    8  A    between atoms: C_19  and  O_44 
REMARK       I    between atoms: N_21  and  C_22 
REMARK    9  A    between atoms: C_24  and  C_22 
REMARK       I    between atoms: N_28  and  C_29 
REMARK   10  A    between atoms: C_29  and  C_31 
REMARK   11  A    between atoms: C_31  and  C_32 
REMARK   12  A    between atoms: C_31  and  N_40 
REMARK   13  A    between atoms: C_32  and  C_33 
REMARK   14  A    between atoms: C_36  and  O_39 
REMARK       I    between atoms: N_40  and  C_41 
ROOT
HETATM    1  C   UNK N   1      21.438  12.503   9.791  0.00  0.00     0.181 C 
HETATM    2  C   UNK N   1      22.020  12.604  11.195  0.00  0.00     0.068 C 
HETATM    3  C   UNK N   1      23.304  11.800  11.121  0.00  0.00     0.138 C 
HETATM    4  C   UNK N   1      23.800  12.025   9.708  0.00  0.00     0.158 C 
HETATM    5  N   UNK N   1      22.576  12.166   8.966  0.00  0.00    -0.334 N 
HETATM    6  C   UNK N   1      22.496  11.932   7.622  0.00  0.00     0.243 C 
HETATM    7  O   UNK N   1      21.399  11.954   7.072  0.00  0.00    -0.271 OA
ENDROOT
BRANCH   1   8
HETATM    8  C   UNK N   1      20.799  13.826   9.410  0.00  0.00     0.241 C 
HETATM    9  N   UNK N   1      21.464  14.729   8.634  0.00  0.00    -0.351 N 
HETATM   10  H   UNK N   1      22.390  14.531   8.367  0.00  0.00     0.163 HD
HETATM   11  O   UNK N   1      19.655  14.056   9.772  0.00  0.00    -0.271 OA
BRANCH   9  12
HETATM   12  C   UNK N   1      20.861  15.972   8.185  0.00  0.00     0.225 C 
BRANCH  12  13
HETATM   13  C   UNK N   1      20.121  15.802   6.884  0.00  0.00     0.236 C 
HETATM   14  N   UNK N   1      20.795  15.867   5.708  0.00  0.00    -0.347 N 
HETATM   15  H   UNK N   1      21.778  15.935   5.706  0.00  0.00     0.163 HD
HETATM   16  O   UNK N   1      18.904  15.659   6.886  0.00  0.00    -0.272 OA
BRANCH  14  17
HETATM   17  C   UNK N   1      20.073  15.836   4.458  0.00  0.00     0.172 C 
HETATM   18  C   UNK N   1      19.822  17.232   3.911  0.00  0.00     0.042 C 
BRANCH  17  19
HETATM   19  C   UNK N   1      20.583  14.826   3.461  0.00  0.00     0.240 C 
HETATM   20  O   UNK N   1      21.560  15.123   2.797  0.00  0.00    -0.271 OA
HETATM   21  N   UNK N   1      20.051  13.584   3.316  0.00  0.00    -0.351 N 
HETATM   22  H   UNK N   1      20.450  12.992   2.638  0.00  0.00     0.163 HD
BRANCH  21  23
HETATM   23  C   UNK N   1      18.943  13.074   4.085  0.00  0.00     0.225 C 
BRANCH  23  24
HETATM   24  C   UNK N   1      19.147  11.616   4.369  0.00  0.00     0.233 C 
HETATM   25  O   UNK N   1      18.191  10.891   4.596  0.00  0.00    -0.272 OA
HETATM   26  N   UNK N   1      20.392  11.102   4.373  0.00  0.00    -0.369 N 
HETATM   27  H   UNK N   1      20.625  10.234   4.773  0.00  0.00     0.159 HD
HETATM   28  H   UNK N   1      21.110  11.626   3.949  0.00  0.00     0.159 HD
ENDBRANCH  23  24
ENDBRANCH  21  23
ENDBRANCH  17  19
ENDBRANCH  14  17
ENDBRANCH  12  13
ENDBRANCH   9  12
ENDBRANCH   1   8
BRANCH   6  29
HETATM   29  C   UNK N   1      23.738  11.663   6.792  0.00  0.00     0.179 C 
HETATM   30  C   UNK N   1      23.578  10.368   6.008  0.00  0.00     0.037 C 
HETATM   31  C   UNK N   1      24.018  10.676   4.583  0.00  0.00     0.022 C 
HETATM   32  C   UNK N   1      23.949  12.187   4.443  0.00  0.00     0.127 C 
HETATM   33  N   UNK N   1      23.961  12.679   5.789  0.00  0.00    -0.337 N 
HETATM   34  C   UNK N   1      24.250  13.984   6.106  0.00  0.00     0.243 C 
HETATM   35  O   UNK N   1      24.345  14.308   7.280  0.00  0.00    -0.271 OA
BRANCH  34  36
HETATM   36  C   UNK N   1      24.487  15.029   5.018  0.00  0.00     0.181 C 
BRANCH  36  37
HETATM   37  C   UNK N   1      24.404  16.477   5.549  0.00  0.00     0.073 C 
BRANCH  37  38
HETATM   38  C   UNK N   1      24.331  17.638   4.595  0.00  0.00    -0.056 A 
HETATM   39  C   UNK N   1      23.126  18.276   4.266  0.00  0.00     0.010 A 
HETATM   40  C   UNK N   1      23.135  19.445   3.495  0.00  0.00     0.037 A 
HETATM   41  C   UNK N   1      24.350  19.988   3.063  0.00  0.00     0.065 A 
HETATM   42  C   UNK N   1      25.551  19.353   3.381  0.00  0.00     0.037 A 
HETATM   43  C   UNK N   1      25.539  18.187   4.150  0.00  0.00     0.010 A 
BRANCH  41  44
HETATM   44  O   UNK N   1      24.366  21.125   2.350  0.00  0.00    -0.361 OA
HETATM   45  H   UNK N   1      25.002  21.789   2.530  0.00  0.00     0.217 HD
ENDBRANCH  41  44
ENDBRANCH  37  38
ENDBRANCH  36  37
BRANCH  36  46
HETATM   46  N   UNK N   1      25.817  14.826   4.478  0.00  0.00    -0.348 N 
HETATM   47  C   UNK N   1      26.112  14.788   3.154  0.00  0.00     0.214 C 
HETATM   48  O   UNK N   1      27.266  14.601   2.806  0.00  0.00    -0.274 OA
HETATM   49  C   UNK N   1      25.059  14.968   2.108  0.00  0.00     0.117 C 
HETATM   50  H   UNK N   1      26.557  14.706   5.117  0.00  0.00     0.163 HD
ENDBRANCH  36  46
ENDBRANCH  34  36
ENDBRANCH   6  29
BRANCH   3  51
HETATM   51  O   UNK N   1      24.229  12.244  12.064  0.00  0.00    -0.394 OA
HETATM   52  H   UNK N   1      24.264  12.920  12.759  0.00  0.00     0.210 HD
ENDBRANCH   3  51
TORSDOF 14
ENDMDL
MODEL 6
REMARK VINA RESULT:      -7.4      3.054      7.616
REMARK  14 active torsions:
REMARK  status: ('A' for Active; 'I' for Inactive)
REMARK    1  A    between atoms: C_2  and  C_3 
REMARK    2  A    between atoms: C_2  and  N_10 
REMARK       I    between atoms: C_3  and  N_5 
REMARK    3  A    between atoms: N_5  and  C_6 
REMARK    4  A    between atoms: C_6  and  C_7 
REMARK       I    between atoms: C_7  and  N_9 
REMARK       I    between atoms: N_10  and  C_11 
REMARK    5  A    between atoms: C_11  and  C_13 
REMARK    6  A    between atoms: C_13  and  N_14 
REMARK       I    between atoms: N_14  and  C_15 
REMARK    7  A    between atoms: C_17  and  C_15 
REMARK    8  A    between atoms: C_19  and  O_44 
REMARK       I    between atoms: N_21  and  C_22 
REMARK    9  A    between atoms: C_24  and  C_22 
REMARK       I    between atoms: N_28  and  C_29 
REMARK   10  A    between atoms: C_29  and  C_31 
REMARK   11  A    between atoms: C_31  and  C_32 
REMARK   12  A    between atoms: C_31  and  N_40 
REMARK   13  A    between atoms: C_32  and  C_33 
REMARK   14  A    between atoms: C_36  and  O_39 
REMARK       I    between atoms: N_40  and  C_41 
ROOT
HETATM    1  C   UNK N   1      21.132  19.231   4.074  0.00  0.00     0.181 C 
HETATM    2  C   UNK N   1      20.138  19.846   3.095  0.00  0.00     0.068 C 
HETATM    3  C   UNK N   1      20.978  20.797   2.265  0.00  0.00     0.138 C 
HETATM    4  C   UNK N   1      22.329  20.117   2.177  0.00  0.00     0.158 C 
HETATM    5  N   UNK N   1      22.414  19.427   3.436  0.00  0.00    -0.334 N 
HETATM    6  C   UNK N   1      23.604  19.061   3.999  0.00  0.00     0.243 C 
HETATM    7  O   UNK N   1      23.614  18.583   5.130  0.00  0.00    -0.271 OA
ENDROOT
BRANCH   1   8
HETATM    8  C   UNK N   1      20.793  17.768   4.289  0.00  0.00     0.241 C 
HETATM    9  N   UNK N   1      20.712  17.244   5.546  0.00  0.00    -0.351 N 
HETATM   10  H   UNK N   1      20.929  17.821   6.313  0.00  0.00     0.163 HD
HETATM   11  O   UNK N   1      20.548  17.068   3.318  0.00  0.00    -0.271 OA
BRANCH   9  12
HETATM   12  C   UNK N   1      20.318  15.869   5.799  0.00  0.00     0.225 C 
BRANCH  12  13
HETATM   13  C   UNK N   1      21.291  15.162   6.706  0.00  0.00     0.236 C 
HETATM   14  N   UNK N   1      20.838  14.258   7.611  0.00  0.00    -0.347 N 
HETATM   15  H   UNK N   1      19.888  13.998   7.616  0.00  0.00     0.163 HD
HETATM   16  O   UNK N   1      22.483  15.442   6.663  0.00  0.00    -0.272 OA
BRANCH  14  17
HETATM   17  C   UNK N   1      21.749  13.676   8.570  0.00  0.00     0.172 C 
HETATM   18  C   UNK N   1      21.110  13.523   9.941  0.00  0.00     0.042 C 
BRANCH  17  19
HETATM   19  C   UNK N   1      22.511  12.477   8.065  0.00  0.00     0.240 C 
HETATM   20  O   UNK N   1      21.881  11.594   7.510  0.00  0.00    -0.271 OA
HETATM   21  N   UNK N   1      23.863  12.364   8.140  0.00  0.00    -0.351 N 
HETATM   22  H   UNK N   1      24.274  11.543   7.785  0.00  0.00     0.163 HD
BRANCH  21  23
HETATM   23  C   UNK N   1      24.737  13.363   8.704  0.00  0.00     0.225 C 
BRANCH  23  24
HETATM   24  C   UNK N   1      25.071  13.006  10.122  0.00  0.00     0.233 C 
HETATM   25  O   UNK N   1      24.508  12.074  10.674  0.00  0.00    -0.272 OA
HETATM   26  N   UNK N   1      25.999  13.717  10.790  0.00  0.00    -0.369 N 
HETATM   27  H   UNK N   1      26.101  13.701  11.769  0.00  0.00     0.159 HD
HETATM   28  H   UNK N   1      26.611  14.286  10.268  0.00  0.00     0.159 HD
ENDBRANCH  23  24
ENDBRANCH  21  23
ENDBRANCH  17  19
ENDBRANCH  14  17
ENDBRANCH  12  13
ENDBRANCH   9  12
ENDBRANCH   1   8
BRANCH   6  29
HETATM   29  C   UNK N   1      24.914  19.217   3.247  0.00  0.00     0.179 C 
HETATM   30  C   UNK N   1      25.443  20.636   3.395  0.00  0.00     0.037 C 
HETATM   31  C   UNK N   1      26.918  20.507   3.749  0.00  0.00     0.022 C 
HETATM   32  C   UNK N   1      27.098  19.093   4.272  0.00  0.00     0.127 C 
HETATM   33  N   UNK N   1      25.960  18.374   3.782  0.00  0.00    -0.337 N 
HETATM   34  C   UNK N   1      25.902  17.002   3.739  0.00  0.00     0.243 C 
HETATM   35  O   UNK N   1      24.943  16.459   3.211  0.00  0.00    -0.271 OA
BRANCH  34  36
HETATM   36  C   UNK N   1      27.030  16.144   4.309  0.00  0.00     0.181 C 
BRANCH  36  37
HETATM   37  C   UNK N   1      26.985  16.040   5.849  0.00  0.00     0.073 C 
BRANCH  37  38
HETATM   38  C   UNK N   1      28.087  16.627   6.688  0.00  0.00    -0.056 A 
HETATM   39  C   UNK N   1      27.851  17.258   7.918  0.00  0.00     0.010 A 
HETATM   40  C   UNK N   1      28.926  17.649   8.727  0.00  0.00     0.037 A 
HETATM   41  C   UNK N   1      30.239  17.398   8.315  0.00  0.00     0.065 A 
HETATM   42  C   UNK N   1      30.478  16.777   7.088  0.00  0.00     0.037 A 
HETATM   43  C   UNK N   1      29.406  16.388   6.283  0.00  0.00     0.010 A 
BRANCH  41  44
HETATM   44  O   UNK N   1      31.271  17.742   9.100  0.00  0.00    -0.361 OA
HETATM   45  H   UNK N   1      32.129  17.843   8.739  0.00  0.00     0.217 HD
ENDBRANCH  41  44
ENDBRANCH  37  38
ENDBRANCH  36  37
BRANCH  36  46
HETATM   46  N   UNK N   1      26.899  14.806   3.766  0.00  0.00    -0.348 N 
HETATM   47  C   UNK N   1      27.766  14.246   2.886  0.00  0.00     0.214 C 
HETATM   48  O   UNK N   1      27.557  13.113   2.483  0.00  0.00    -0.274 OA
HETATM   49  C   UNK N   1      28.973  14.980   2.394  0.00  0.00     0.117 C 
HETATM   50  H   UNK N   1      26.127  14.269   4.055  0.00  0.00     0.163 HD
ENDBRANCH  36  46
ENDBRANCH  34  36
ENDBRANCH   6  29
BRANCH   3  51
HETATM   51  O   UNK N   1      20.419  20.988   1.002  0.00  0.00    -0.394 OA
HETATM   52  H   UNK N   1      19.674  21.480   0.625  0.00  0.00     0.210 HD
ENDBRANCH   3  51
TORSDOF 14
ENDMDL
MODEL 7
REMARK VINA RESULT:      -7.3      3.249      7.194
REMARK  14 active torsions:
REMARK  status: ('A' for Active; 'I' for Inactive)
REMARK    1  A    between atoms: C_2  and  C_3 
REMARK    2  A    between atoms: C_2  and  N_10 
REMARK       I    between atoms: C_3  and  N_5 
REMARK    3  A    between atoms: N_5  and  C_6 
REMARK    4  A    between atoms: C_6  and  C_7 
REMARK       I    between atoms: C_7  and  N_9 
REMARK       I    between atoms: N_10  and  C_11 
REMARK    5  A    between atoms: C_11  and  C_13 
REMARK    6  A    between atoms: C_13  and  N_14 
REMARK       I    between atoms: N_14  and  C_15 
REMARK    7  A    between atoms: C_17  and  C_15 
REMARK    8  A    between atoms: C_19  and  O_44 
REMARK       I    between atoms: N_21  and  C_22 
REMARK    9  A    between atoms: C_24  and  C_22 
REMARK       I    between atoms: N_28  and  C_29 
REMARK   10  A    between atoms: C_29  and  C_31 
REMARK   11  A    between atoms: C_31  and  C_32 
REMARK   12  A    between atoms: C_31  and  N_40 
REMARK   13  A    between atoms: C_32  and  C_33 
REMARK   14  A    between atoms: C_36  and  O_39 
REMARK       I    between atoms: N_40  and  C_41 
ROOT
HETATM    1  C   UNK N   1      19.765  18.402   2.535  0.00  0.00     0.181 C 
HETATM    2  C   UNK N   1      20.049  19.800   1.999  0.00  0.00     0.068 C 
HETATM    3  C   UNK N   1      20.749  20.500   3.149  0.00  0.00     0.138 C 
HETATM    4  C   UNK N   1      21.541  19.400   3.824  0.00  0.00     0.158 C 
HETATM    5  N   UNK N   1      20.712  18.243   3.614  0.00  0.00    -0.334 N 
HETATM    6  C   UNK N   1      20.775  17.135   4.411  0.00  0.00     0.243 C 
HETATM    7  O   UNK N   1      19.959  16.232   4.252  0.00  0.00    -0.271 OA
ENDROOT
BRANCH   1   8
HETATM    8  C   UNK N   1      19.954  17.385   1.424  0.00  0.00     0.241 C 
HETATM    9  N   UNK N   1      19.351  16.163   1.480  0.00  0.00    -0.351 N 
HETATM   10  H   UNK N   1      18.830  15.930   2.283  0.00  0.00     0.163 HD
HETATM   11  O   UNK N   1      20.623  17.692   0.448  0.00  0.00    -0.271 OA
BRANCH   9  12
HETATM   12  C   UNK N   1      19.445  15.191   0.405  0.00  0.00     0.225 C 
BRANCH  12  13
HETATM   13  C   UNK N   1      19.138  13.794   0.880  0.00  0.00     0.236 C 
HETATM   14  N   UNK N   1      19.571  12.726   0.164  0.00  0.00    -0.347 N 
HETATM   15  H   UNK N   1      20.159  12.859  -0.614  0.00  0.00     0.163 HD
HETATM   16  O   UNK N   1      18.454  13.624   1.883  0.00  0.00    -0.272 OA
BRANCH  14  17
HETATM   17  C   UNK N   1      19.168  11.391   0.543  0.00  0.00     0.172 C 
HETATM   18  C   UNK N   1      18.072  10.849  -0.361  0.00  0.00     0.042 C 
BRANCH  17  19
HETATM   19  C   UNK N   1      20.309  10.447   0.825  0.00  0.00     0.240 C 
HETATM   20  O   UNK N   1      20.782   9.827  -0.112  0.00  0.00    -0.271 OA
HETATM   21  N   UNK N   1      20.876  10.303   2.051  0.00  0.00    -0.351 N 
HETATM   22  H   UNK N   1      21.617   9.661   2.141  0.00  0.00     0.163 HD
BRANCH  21  23
HETATM   23  C   UNK N   1      20.466  11.025   3.230  0.00  0.00     0.225 C 
BRANCH  23  24
HETATM   24  C   UNK N   1      21.419  12.152   3.495  0.00  0.00     0.233 C 
HETATM   25  O   UNK N   1      22.622  11.949   3.532  0.00  0.00    -0.272 OA
HETATM   26  N   UNK N   1      20.945  13.397   3.694  0.00  0.00    -0.369 N 
HETATM   27  H   UNK N   1      21.470  14.125   4.099  0.00  0.00     0.159 HD
HETATM   28  H   UNK N   1      20.020  13.590   3.417  0.00  0.00     0.159 HD
ENDBRANCH  23  24
ENDBRANCH  21  23
ENDBRANCH  17  19
ENDBRANCH  14  17
ENDBRANCH  12  13
ENDBRANCH   9  12
ENDBRANCH   1   8
BRANCH   6  29
HETATM   29  C   UNK N   1      21.845  16.989   5.478  0.00  0.00     0.179 C 
HETATM   30  C   UNK N   1      21.228  16.507   6.782  0.00  0.00     0.037 C 
HETATM   31  C   UNK N   1      22.115  15.374   7.280  0.00  0.00     0.022 C 
HETATM   32  C   UNK N   1      22.903  14.900   6.072  0.00  0.00     0.127 C 
HETATM   33  N   UNK N   1      22.828  15.984   5.138  0.00  0.00    -0.337 N 
HETATM   34  C   UNK N   1      23.675  16.108   4.064  0.00  0.00     0.243 C 
HETATM   35  O   UNK N   1      23.621  17.113   3.371  0.00  0.00    -0.271 OA
BRANCH  34  36
HETATM   36  C   UNK N   1      24.706  15.028   3.741  0.00  0.00     0.181 C 
BRANCH  36  37
HETATM   37  C   UNK N   1      25.078  14.984   2.243  0.00  0.00     0.073 C 
BRANCH  37  38
HETATM   38  C   UNK N   1      24.783  13.761   1.418  0.00  0.00    -0.056 A 
HETATM   39  C   UNK N   1      25.477  12.552   1.578  0.00  0.00     0.010 A 
HETATM   40  C   UNK N   1      25.059  11.404   0.891  0.00  0.00     0.037 A 
HETATM   41  C   UNK N   1      23.939  11.459   0.054  0.00  0.00     0.065 A 
HETATM   42  C   UNK N   1      23.252  12.662  -0.114  0.00  0.00     0.037 A 
HETATM   43  C   UNK N   1      23.669  13.805   0.571  0.00  0.00     0.010 A 
BRANCH  41  44
HETATM   44  O   UNK N   1      23.516  10.356  -0.581  0.00  0.00    -0.361 OA
HETATM   45  H   UNK N   1      22.954   9.745  -0.148  0.00  0.00     0.217 HD
ENDBRANCH  41  44
ENDBRANCH  37  38
ENDBRANCH  36  37
BRANCH  36  46
HETATM   46  N   UNK N   1      25.912  15.315   4.493  0.00  0.00    -0.348 N 
HETATM   47  C   UNK N   1      26.578  14.409   5.252  0.00  0.00     0.214 C 
HETATM   48  O   UNK N   1      27.581  14.757   5.854  0.00  0.00    -0.274 OA
HETATM   49  C   UNK N   1      26.117  12.991   5.372  0.00  0.00     0.117 C 
HETATM   50  H   UNK N   1      26.271  16.231   4.452  0.00  0.00     0.163 HD
ENDBRANCH  36  46
ENDBRANCH  34  36
ENDBRANCH   6  29
BRANCH   3  51
HETATM   51  O   UNK N   1      21.580  21.518   2.685  0.00  0.00    -0.394 OA
HETATM   52  H   UNK N   1      22.242  21.628   1.986  0.00  0.00     0.210 HD
ENDBRANCH   3  51
TORSDOF 14
ENDMDL
MODEL 8
REMARK VINA RESULT:      -7.3      2.788      7.721
REMARK  14 active torsions:
REMARK  status: ('A' for Active; 'I' for Inactive)
REMARK    1  A    between atoms: C_2  and  C_3 
REMARK    2  A    between atoms: C_2  and  N_10 
REMARK       I    between atoms: C_3  and  N_5 
REMARK    3  A    between atoms: N_5  and  C_6 
REMARK    4  A    between atoms: C_6  and  C_7 
REMARK       I    between atoms: C_7  and  N_9 
REMARK       I    between atoms: N_10  and  C_11 
REMARK    5  A    between atoms: C_11  and  C_13 
REMARK    6  A    between atoms: C_13  and  N_14 
REMARK       I    between atoms: N_14  and  C_15 
REMARK    7  A    between atoms: C_17  and  C_15 
REMARK    8  A    between atoms: C_19  and  O_44 
REMARK       I    between atoms: N_21  and  C_22 
REMARK    9  A    between atoms: C_24  and  C_22 
REMARK       I    between atoms: N_28  and  C_29 
REMARK   10  A    between atoms: C_29  and  C_31 
REMARK   11  A    between atoms: C_31  and  C_32 
REMARK   12  A    between atoms: C_31  and  N_40 
REMARK   13  A    between atoms: C_32  and  C_33 
REMARK   14  A    between atoms: C_36  and  O_39 
REMARK       I    between atoms: N_40  and  C_41 
ROOT
HETATM    1  C   UNK N   1      29.696  15.629   4.772  0.00  0.00     0.181 C 
HETATM    2  C   UNK N   1      30.555  15.395   6.009  0.00  0.00     0.068 C 
HETATM    3  C   UNK N   1      30.562  16.739   6.711  0.00  0.00     0.138 C 
HETATM    4  C   UNK N   1      29.194  17.317   6.418  0.00  0.00     0.158 C 
HETATM    5  N   UNK N   1      28.904  16.789   5.112  0.00  0.00    -0.334 N 
HETATM    6  C   UNK N   1      28.016  17.378   4.257  0.00  0.00     0.243 C 
HETATM    7  O   UNK N   1      27.904  16.946   3.114  0.00  0.00    -0.271 OA
ENDROOT
BRANCH   1   8
HETATM    8  C   UNK N   1      28.854  14.396   4.499  0.00  0.00     0.241 C 
HETATM    9  N   UNK N   1      27.634  14.233   5.086  0.00  0.00    -0.351 N 
HETATM   10  H   UNK N   1      27.330  14.907   5.735  0.00  0.00     0.163 HD
HETATM   11  O   UNK N   1      29.266  13.562   3.704  0.00  0.00    -0.271 OA
BRANCH   9  12
HETATM   12  C   UNK N   1      26.766  13.105   4.795  0.00  0.00     0.225 C 
BRANCH  12  13
HETATM   13  C   UNK N   1      25.677  12.952   5.824  0.00  0.00     0.236 C 
HETATM   14  N   UNK N   1      24.615  12.146   5.571  0.00  0.00    -0.347 N 
HETATM   15  H   UNK N   1      24.600  11.593   4.756  0.00  0.00     0.163 HD
HETATM   16  O   UNK N   1      25.724  13.595   6.866  0.00  0.00    -0.272 OA
BRANCH  14  17
HETATM   17  C   UNK N   1      23.507  12.097   6.497  0.00  0.00     0.172 C 
HETATM   18  C   UNK N   1      22.178  12.362   5.807  0.00  0.00     0.042 C 
BRANCH  17  19
HETATM   19  C   UNK N   1      23.530  10.924   7.444  0.00  0.00     0.240 C 
HETATM   20  O   UNK N   1      23.797   9.827   6.986  0.00  0.00    -0.271 OA
HETATM   21  N   UNK N   1      23.334  11.041   8.783  0.00  0.00    -0.351 N 
HETATM   22  H   UNK N   1      23.366  10.219   9.324  0.00  0.00     0.163 HD
BRANCH  21  23
HETATM   23  C   UNK N   1      23.081  12.285   9.467  0.00  0.00     0.225 C 
BRANCH  23  24
HETATM   24  C   UNK N   1      24.177  12.556  10.455  0.00  0.00     0.233 C 
HETATM   25  O   UNK N   1      25.233  13.047  10.088  0.00  0.00    -0.272 OA
HETATM   26  N   UNK N   1      23.995  12.256  11.755  0.00  0.00    -0.369 N 
HETATM   27  H   UNK N   1      24.728  12.182  12.408  0.00  0.00     0.159 HD
HETATM   28  H   UNK N   1      23.075  12.103  12.071  0.00  0.00     0.159 HD
ENDBRANCH  23  24
ENDBRANCH  21  23
ENDBRANCH  17  19
ENDBRANCH  14  17
ENDBRANCH  12  13
ENDBRANCH   9  12
ENDBRANCH   1   8
BRANCH   6  29
HETATM   29  C   UNK N   1      27.152  18.547   4.697  0.00  0.00     0.179 C 
HETATM   30  C   UNK N   1      27.517  19.799   3.914  0.00  0.00     0.037 C 
HETATM   31  C   UNK N   1      26.202  20.410   3.450  0.00  0.00     0.022 C 
HETATM   32  C   UNK N   1      25.173  19.296   3.531  0.00  0.00     0.127 C 
HETATM   33  N   UNK N   1      25.750  18.330   4.419  0.00  0.00    -0.337 N 
HETATM   34  C   UNK N   1      25.018  17.339   5.026  0.00  0.00     0.243 C 
HETATM   35  O   UNK N   1      25.555  16.618   5.853  0.00  0.00    -0.271 OA
BRANCH  34  36
HETATM   36  C   UNK N   1      23.535  17.146   4.712  0.00  0.00     0.181 C 
BRANCH  36  37
HETATM   37  C   UNK N   1      23.169  15.671   4.437  0.00  0.00     0.073 C 
BRANCH  37  38
HETATM   38  C   UNK N   1      23.318  15.091   3.057  0.00  0.00    -0.056 A 
HETATM   39  C   UNK N   1      24.567  14.849   2.467  0.00  0.00     0.010 A 
HETATM   40  C   UNK N   1      24.649  14.167   1.246  0.00  0.00     0.037 A 
HETATM   41  C   UNK N   1      23.483  13.713   0.619  0.00  0.00     0.065 A 
HETATM   42  C   UNK N   1      22.238  13.958   1.199  0.00  0.00     0.037 A 
HETATM   43  C   UNK N   1      22.159  14.638   2.416  0.00  0.00     0.010 A 
BRANCH  41  44
HETATM   44  O   UNK N   1      23.558  13.032  -0.535  0.00  0.00    -0.361 OA
HETATM   45  H   UNK N   1      24.305  13.122  -1.091  0.00  0.00     0.217 HD
ENDBRANCH  41  44
ENDBRANCH  37  38
ENDBRANCH  36  37
BRANCH  36  46
HETATM   46  N   UNK N   1      22.768  17.591   5.859  0.00  0.00    -0.348 N 
HETATM   47  C   UNK N   1      21.663  18.374   5.786  0.00  0.00     0.214 C 
HETATM   48  O   UNK N   1      21.095  18.701   6.816  0.00  0.00    -0.274 OA
HETATM   49  C   UNK N   1      21.119  18.850   4.477  0.00  0.00     0.117 C 
HETATM   50  H   UNK N   1      23.072  17.307   6.751  0.00  0.00     0.163 HD
ENDBRANCH  36  46
ENDBRANCH  34  36
ENDBRANCH   6  29
BRANCH   3  51
HETATM   51  O   UNK N   1      30.771  16.588   8.081  0.00  0.00    -0.394 OA
HETATM   52  H   UNK N   1      30.298  16.810   8.898  0.00  0.00     0.210 HD
ENDBRANCH   3  51
TORSDOF 14
ENDMDL
MODEL 9
REMARK VINA RESULT:      -7.2     10.188     13.733
REMARK  14 active torsions:
REMARK  status: ('A' for Active; 'I' for Inactive)
REMARK    1  A    between atoms: C_2  and  C_3 
REMARK    2  A    between atoms: C_2  and  N_10 
REMARK       I    between atoms: C_3  and  N_5 
REMARK    3  A    between atoms: N_5  and  C_6 
REMARK    4  A    between atoms: C_6  and  C_7 
REMARK       I    between atoms: C_7  and  N_9 
REMARK       I    between atoms: N_10  and  C_11 
REMARK    5  A    between atoms: C_11  and  C_13 
REMARK    6  A    between atoms: C_13  and  N_14 
REMARK       I    between atoms: N_14  and  C_15 
REMARK    7  A    between atoms: C_17  and  C_15 
REMARK    8  A    between atoms: C_19  and  O_44 
REMARK       I    between atoms: N_21  and  C_22 
REMARK    9  A    between atoms: C_24  and  C_22 
REMARK       I    between atoms: N_28  and  C_29 
REMARK   10  A    between atoms: C_29  and  C_31 
REMARK   11  A    between atoms: C_31  and  C_32 
REMARK   12  A    between atoms: C_31  and  N_40 
REMARK   13  A    between atoms: C_32  and  C_33 
REMARK   14  A    between atoms: C_36  and  O_39 
REMARK       I    between atoms: N_40  and  C_41 
ROOT
HETATM    1  C   UNK N   1      32.613  18.228   7.927  0.00  0.00     0.181 C 
HETATM    2  C   UNK N   1      31.372  18.263   8.810  0.00  0.00     0.068 C 
HETATM    3  C   UNK N   1      30.269  17.726   7.918  0.00  0.00     0.138 C 
HETATM    4  C   UNK N   1      30.965  16.706   7.042  0.00  0.00     0.158 C 
HETATM    5  N   UNK N   1      32.285  17.261   6.904  0.00  0.00    -0.334 N 
HETATM    6  C   UNK N   1      33.112  16.950   5.862  0.00  0.00     0.243 C 
HETATM    7  O   UNK N   1      34.176  17.548   5.738  0.00  0.00    -0.271 OA
ENDROOT
BRANCH   1   8
HETATM    8  C   UNK N   1      33.817  17.828   8.758  0.00  0.00     0.241 C 
HETATM    9  N   UNK N   1      33.769  16.747   9.589  0.00  0.00    -0.351 N 
HETATM   10  H   UNK N   1      32.919  16.259   9.679  0.00  0.00     0.163 HD
HETATM   11  O   UNK N   1      34.854  18.464   8.643  0.00  0.00    -0.271 OA
BRANCH   9  12
HETATM   12  C   UNK N   1      34.920  16.286  10.345  0.00  0.00     0.225 C 
BRANCH  12  13
HETATM   13  C   UNK N   1      34.925  14.788  10.507  0.00  0.00     0.236 C 
HETATM   14  N   UNK N   1      35.800  14.203  11.364  0.00  0.00    -0.347 N 
HETATM   15  H   UNK N   1      36.368  14.759  11.944  0.00  0.00     0.163 HD
HETATM   16  O   UNK N   1      34.176  14.095   9.828  0.00  0.00    -0.272 OA
BRANCH  14  17
HETATM   17  C   UNK N   1      35.897  12.763  11.426  0.00  0.00     0.172 C 
HETATM   18  C   UNK N   1      37.314  12.301  11.725  0.00  0.00     0.042 C 
BRANCH  17  19
HETATM   19  C   UNK N   1      34.809  12.093  12.226  0.00  0.00     0.240 C 
HETATM   20  O   UNK N   1      34.598  12.499  13.355  0.00  0.00    -0.271 OA
HETATM   21  N   UNK N   1      34.013  11.109  11.729  0.00  0.00    -0.351 N 
HETATM   22  H   UNK N   1      33.329  10.729  12.326  0.00  0.00     0.163 HD
BRANCH  21  23
HETATM   23  C   UNK N   1      34.103  10.583  10.390  0.00  0.00     0.225 C 
BRANCH  23  24
HETATM   24  C   UNK N   1      32.799  10.778   9.676  0.00  0.00     0.233 C 
HETATM   25  O   UNK N   1      32.009   9.854   9.568  0.00  0.00    -0.272 OA
HETATM   26  N   UNK N   1      32.496  11.981   9.152  0.00  0.00    -0.369 N 
HETATM   27  H   UNK N   1      31.790  12.125   8.481  0.00  0.00     0.159 HD
HETATM   28  H   UNK N   1      33.011  12.763   9.458  0.00  0.00     0.159 HD
ENDBRANCH  23  24
ENDBRANCH  21  23
ENDBRANCH  17  19
ENDBRANCH  14  17
ENDBRANCH  12  13
ENDBRANCH   9  12
ENDBRANCH   1   8
BRANCH   6  29
HETATM   29  C   UNK N   1      32.749  15.866   4.862  0.00  0.00     0.179 C 
HETATM   30  C   UNK N   1      32.837  16.406   3.442  0.00  0.00     0.037 C 
HETATM   31  C   UNK N   1      33.611  15.369   2.640  0.00  0.00     0.022 C 
HETATM   32  C   UNK N   1      34.359  14.527   3.658  0.00  0.00     0.127 C 
HETATM   33  N   UNK N   1      33.673  14.755   4.895  0.00  0.00    -0.337 N 
HETATM   34  C   UNK N   1      33.811  13.937   5.990  0.00  0.00     0.243 C 
HETATM   35  O   UNK N   1      33.114  14.132   6.975  0.00  0.00    -0.271 OA
BRANCH  34  36
HETATM   36  C   UNK N   1      34.793  12.767   5.985  0.00  0.00     0.181 C 
BRANCH  36  37
HETATM   37  C   UNK N   1      35.736  12.772   7.207  0.00  0.00     0.073 C 
BRANCH  37  38
HETATM   38  C   UNK N   1      37.113  13.372   7.108  0.00  0.00    -0.056 A 
HETATM   39  C   UNK N   1      38.079  13.225   8.115  0.00  0.00     0.010 A 
HETATM   40  C   UNK N   1      39.389  13.672   7.904  0.00  0.00     0.037 A 
HETATM   41  C   UNK N   1      39.741  14.255   6.682  0.00  0.00     0.065 A 
HETATM   42  C   UNK N   1      38.781  14.411   5.681  0.00  0.00     0.037 A 
HETATM   43  C   UNK N   1      37.475  13.964   5.893  0.00  0.00     0.010 A 
BRANCH  41  44
HETATM   44  O   UNK N   1      41.002  14.657   6.463  0.00  0.00    -0.361 OA
HETATM   45  H   UNK N   1      41.710  14.289   6.953  0.00  0.00     0.217 HD
ENDBRANCH  41  44
ENDBRANCH  37  38
ENDBRANCH  36  37
BRANCH  36  46
HETATM   46  N   UNK N   1      34.029  11.535   6.014  0.00  0.00    -0.348 N 
HETATM   47  C   UNK N   1      34.161  10.527   5.116  0.00  0.00     0.214 C 
HETATM   48  O   UNK N   1      33.461   9.535   5.226  0.00  0.00    -0.274 OA
HETATM   49  C   UNK N   1      35.144  10.600   3.990  0.00  0.00     0.117 C 
HETATM   50  H   UNK N   1      33.368  11.423   6.735  0.00  0.00     0.163 HD
ENDBRANCH  36  46
ENDBRANCH  34  36
ENDBRANCH   6  29
BRANCH   3  51
HETATM   51  O   UNK N   1      29.252  17.144   8.673  0.00  0.00    -0.394 OA
HETATM   52  H   UNK N   1      28.395  16.724   8.502  0.00  0.00     0.210 HD
ENDBRANCH   3  51
TORSDOF 14
ENDMDL
