MODEL 1
REMARK VINA RESULT:      -4.8      0.000      0.000
REMARK  0 active torsions:
REMARK  status: ('A' for Active; 'I' for Inactive)
ROOT
HETATM    1  C   UNK N   1      32.729  16.673   7.782  0.00  0.00     0.056 A 
HETATM    2  C   UNK N   1      33.450  18.012   7.381  0.00  0.00     0.107 A 
HETATM    3  C   UNK N   1      34.524  18.160   8.426  0.00  0.00     0.222 A 
HETATM    4  O   UNK N   1      35.322  19.082   8.481  0.00  0.00    -0.273 OA
HETATM    5  N   UNK N   1      34.509  17.165   9.297  0.00  0.00    -0.322 N 
HETATM    6  C   UNK N   1      33.508  16.246   9.018  0.00  0.00     0.190 A 
HETATM    7  N   UNK N   1      33.582  15.226  10.007  0.00  0.00    -0.338 N 
HETATM    8  C   UNK N   1      34.601  15.554  10.834  0.00  0.00     0.237 A 
HETATM    9  O   UNK N   1      34.916  14.868  11.791  0.00  0.00    -0.272 OA
HETATM   10  C   UNK N   1      35.301  16.843  10.454  0.00  0.00     0.230 A 
HETATM   11  H   UNK N   1      33.002  14.434  10.077  0.00  0.00     0.164 HD
ENDROOT
TORSDOF 0
ENDMDL
MODEL 2
REMARK VINA RESULT:      -4.6     11.662     12.688
REMARK  0 active torsions:
REMARK  status: ('A' for Active; 'I' for Inactive)
ROOT
HETATM    1  C   UNK N   1      23.175  11.825  11.736  0.00  0.00     0.056 A 
HETATM    2  C   UNK N   1      24.569  12.074  11.051  0.00  0.00     0.107 A 
HETATM    3  C   UNK N   1      24.233  12.955   9.877  0.00  0.00     0.222 A 
HETATM    4  O   UNK N   1      25.044  13.384   9.073  0.00  0.00    -0.273 OA
HETATM    5  N   UNK N   1      22.939  13.218   9.810  0.00  0.00    -0.322 N 
HETATM    6  C   UNK N   1      22.231  12.614  10.838  0.00  0.00     0.190 A 
HETATM    7  N   UNK N   1      20.862  12.960  10.671  0.00  0.00    -0.338 N 
HETATM    8  C   UNK N   1      20.787  13.745   9.572  0.00  0.00     0.237 A 
HETATM    9  O   UNK N   1      19.733  14.207   9.166  0.00  0.00    -0.272 OA
HETATM   10  C   UNK N   1      22.126  13.989   8.906  0.00  0.00     0.230 A 
HETATM   11  H   UNK N   1      20.112  12.682  11.245  0.00  0.00     0.164 HD
ENDROOT
TORSDOF 0
ENDMDL
MODEL 3
REMARK VINA RESULT:      -4.6     11.014     11.981
REMARK  0 active torsions:
REMARK  status: ('A' for Active; 'I' for Inactive)
ROOT
HETATM    1  C   UNK N   1      24.655  13.019   8.557  0.00  0.00     0.056 A 
HETATM    2  C   UNK N   1      23.281  13.019   7.792  0.00  0.00     0.107 A 
HETATM    3  C   UNK N   1      22.282  12.665   8.862  0.00  0.00     0.222 A 
HETATM    4  O   UNK N   1      21.079  12.558   8.685  0.00  0.00    -0.273 OA
HETATM    5  N   UNK N   1      22.860  12.480  10.037  0.00  0.00    -0.322 N 
HETATM    6  C   UNK N   1      24.234  12.660   9.975  0.00  0.00     0.190 A 
HETATM    7  N   UNK N   1      24.749  12.438  11.282  0.00  0.00    -0.338 N 
HETATM    8  C   UNK N   1      23.695  12.138  12.075  0.00  0.00     0.237 A 
HETATM    9  O   UNK N   1      23.816  11.894  13.263  0.00  0.00    -0.272 OA
HETATM   10  C   UNK N   1      22.367  12.136  11.345  0.00  0.00     0.230 A 
HETATM   11  H   UNK N   1      25.693  12.493  11.557  0.00  0.00     0.164 HD
ENDROOT
TORSDOF 0
ENDMDL
MODEL 4
REMARK VINA RESULT:      -4.4     11.663     12.873
REMARK  0 active torsions:
REMARK  status: ('A' for Active; 'I' for Inactive)
ROOT
HETATM    1  C   UNK N   1      24.641  12.991   9.500  0.00  0.00     0.056 A 
HETATM    2  C   UNK N   1      24.707  12.226  10.873  0.00  0.00     0.107 A 
HETATM    3  C   UNK N   1      23.272  12.200  11.331  0.00  0.00     0.222 A 
HETATM    4  O   UNK N   1      22.880  11.691  12.369  0.00  0.00    -0.273 OA
HETATM    5  N   UNK N   1      22.466  12.799  10.470  0.00  0.00    -0.322 N 
HETATM    6  C   UNK N   1      23.155  13.294   9.373  0.00  0.00     0.190 A 
HETATM    7  N   UNK N   1      22.200  13.914   8.519  0.00  0.00    -0.338 N 
HETATM    8  C   UNK N   1      20.993  13.776   9.114  0.00  0.00     0.237 A 
HETATM    9  O   UNK N   1      19.965  14.209   8.621  0.00  0.00    -0.272 OA
HETATM   10  C   UNK N   1      21.048  13.040  10.437  0.00  0.00     0.230 A 
HETATM   11  H   UNK N   1      22.383  14.357   7.659  0.00  0.00     0.164 HD
ENDROOT
TORSDOF 0
ENDMDL
MODEL 5
REMARK VINA RESULT:      -4.4      6.633      7.166
REMARK  0 active torsions:
REMARK  status: ('A' for Active; 'I' for Inactive)
ROOT
HETATM    1  C   UNK N   1      27.542  20.613   6.092  0.00  0.00     0.056 A 
HETATM    2  C   UNK N   1      28.031  19.966   4.744  0.00  0.00     0.107 A 
HETATM    3  C   UNK N   1      28.426  18.570   5.147  0.00  0.00     0.222 A 
HETATM    4  O   UNK N   1      28.866  17.722   4.386  0.00  0.00    -0.273 OA
HETATM    5  N   UNK N   1      28.242  18.355   6.439  0.00  0.00    -0.322 N 
HETATM    6  C   UNK N   1      27.733  19.473   7.084  0.00  0.00     0.190 A 
HETATM    7  N   UNK N   1      27.575  19.134   8.456  0.00  0.00    -0.338 N 
HETATM    8  C   UNK N   1      27.984  17.852   8.594  0.00  0.00     0.237 A 
HETATM    9  O   UNK N   1      27.969  17.270   9.666  0.00  0.00    -0.272 OA
HETATM   10  C   UNK N   1      28.456  17.222   7.300  0.00  0.00     0.230 A 
HETATM   11  H   UNK N   1      27.233  19.721   9.169  0.00  0.00     0.164 HD
ENDROOT
TORSDOF 0
ENDMDL
MODEL 6
REMARK VINA RESULT:      -4.3      2.212      3.564
REMARK  0 active torsions:
REMARK  status: ('A' for Active; 'I' for Inactive)
ROOT
HETATM    1  C   UNK N   1      33.090  14.977   9.283  0.00  0.00     0.056 A 
HETATM    2  C   UNK N   1      32.327  14.556   7.973  0.00  0.00     0.107 A 
HETATM    3  C   UNK N   1      32.613  15.687   7.020  0.00  0.00     0.222 A 
HETATM    4  O   UNK N   1      32.200  15.754   5.874  0.00  0.00    -0.273 OA
HETATM    5  N   UNK N   1      33.374  16.618   7.570  0.00  0.00    -0.322 N 
HETATM    6  C   UNK N   1      33.709  16.308   8.880  0.00  0.00     0.190 A 
HETATM    7  N   UNK N   1      34.522  17.368   9.371  0.00  0.00    -0.338 N 
HETATM    8  C   UNK N   1      34.649  18.263   8.365  0.00  0.00     0.237 A 
HETATM    9  O   UNK N   1      35.295  19.291   8.480  0.00  0.00    -0.272 OA
HETATM   10  C   UNK N   1      33.917  17.865   7.100  0.00  0.00     0.230 A 
HETATM   11  H   UNK N   1      34.917  17.436  10.270  0.00  0.00     0.164 HD
ENDROOT
TORSDOF 0
ENDMDL
MODEL 7
REMARK VINA RESULT:      -4.3      3.330      3.935
REMARK  0 active torsions:
REMARK  status: ('A' for Active; 'I' for Inactive)
ROOT
HETATM    1  C   UNK N   1      31.496  17.167   4.660  0.00  0.00     0.056 A 
HETATM    2  C   UNK N   1      33.041  17.464   4.637  0.00  0.00     0.107 A 
HETATM    3  C   UNK N   1      33.400  17.579   6.094  0.00  0.00     0.222 A 
HETATM    4  O   UNK N   1      34.520  17.809   6.522  0.00  0.00    -0.273 OA
HETATM    5  N   UNK N   1      32.349  17.401   6.879  0.00  0.00    -0.322 N 
HETATM    6  C   UNK N   1      31.194  17.155   6.152  0.00  0.00     0.190 A 
HETATM    7  N   UNK N   1      30.135  16.980   7.086  0.00  0.00    -0.338 N 
HETATM    8  C   UNK N   1      30.673  17.122   8.320  0.00  0.00     0.237 A 
HETATM    9  O   UNK N   1      30.010  17.026   9.339  0.00  0.00    -0.272 OA
HETATM   10  C   UNK N   1      32.160  17.409   8.306  0.00  0.00     0.230 A 
HETATM   11  H   UNK N   1      29.193  16.791   6.875  0.00  0.00     0.164 HD
ENDROOT
TORSDOF 0
ENDMDL
MODEL 8
REMARK VINA RESULT:      -4.3     14.490     15.552
REMARK  0 active torsions:
REMARK  status: ('A' for Active; 'I' for Inactive)
ROOT
HETATM    1  C   UNK N   1      20.004  16.961   0.596  0.00  0.00     0.056 A 
HETATM    2  C   UNK N   1      20.737  15.712   1.210  0.00  0.00     0.107 A 
HETATM    3  C   UNK N   1      21.227  16.211   2.543  0.00  0.00     0.222 A 
HETATM    4  O   UNK N   1      21.856  15.544   3.350  0.00  0.00    -0.273 OA
HETATM    5  N   UNK N   1      20.897  17.475   2.752  0.00  0.00    -0.322 N 
HETATM    6  C   UNK N   1      20.186  18.008   1.687  0.00  0.00     0.190 A 
HETATM    7  N   UNK N   1      19.884  19.360   2.014  0.00  0.00    -0.338 N 
HETATM    8  C   UNK N   1      20.410  19.594   3.238  0.00  0.00     0.237 A 
HETATM    9  O   UNK N   1      20.316  20.675   3.795  0.00  0.00    -0.272 OA
HETATM   10  C   UNK N   1      21.118  18.396   3.835  0.00  0.00     0.230 A 
HETATM   11  H   UNK N   1      19.388  20.001   1.456  0.00  0.00     0.164 HD
ENDROOT
TORSDOF 0
ENDMDL
MODEL 9
REMARK VINA RESULT:      -4.2      1.832      2.833
REMARK  0 active torsions:
REMARK  status: ('A' for Active; 'I' for Inactive)
ROOT
HETATM    1  C   UNK N   1      32.294  17.468   8.296  0.00  0.00     0.056 A 
HETATM    2  C   UNK N   1      31.577  16.116   7.933  0.00  0.00     0.107 A 
HETATM    3  C   UNK N   1      32.486  15.067   8.517  0.00  0.00     0.222 A 
HETATM    4  O   UNK N   1      32.292  13.864   8.457  0.00  0.00    -0.273 OA
HETATM    5  N   UNK N   1      33.538  15.601   9.116  0.00  0.00    -0.322 N 
HETATM    6  C   UNK N   1      33.527  16.986   9.047  0.00  0.00     0.190 A 
HETATM    7  N   UNK N   1      34.693  17.452   9.716  0.00  0.00    -0.338 N 
HETATM    8  C   UNK N   1      35.356  16.358  10.157  0.00  0.00     0.237 A 
HETATM    9  O   UNK N   1      36.405  16.432  10.775  0.00  0.00    -0.272 OA
HETATM   10  C   UNK N   1      34.672  15.052   9.811  0.00  0.00     0.230 A 
HETATM   11  H   UNK N   1      34.965  18.390   9.835  0.00  0.00     0.164 HD
ENDROOT
TORSDOF 0
ENDMDL
