MODEL 1
REMARK VINA RESULT:      -7.1      0.000      0.000
REMARK  16 active torsions:
REMARK  status: ('A' for Active; 'I' for Inactive)
REMARK    1  A    between atoms: C_3  and  C_2 
REMARK    2  A    between atoms: C_11  and  C_80 
REMARK    3  A    between atoms: C_15  and  C_77 
REMARK    4  A    between atoms: C_19  and  C_72 
REMARK    5  A    between atoms: C_31  and  C_65 
REMARK    6  A    between atoms: C_35  and  C_60 
REMARK    7  A    between atoms: C_39  and  C_56 
REMARK    8  A    between atoms: C_43  and  C_47 
REMARK    9  A    between atoms: C_47  and  C_48 
REMARK   10  A    between atoms: C_47  and  O_54 
REMARK   11  A    between atoms: C_48  and  C_50 
REMARK   12  A    between atoms: C_50  and  C_51 
REMARK   13  A    between atoms: C_60  and  C_61 
REMARK   14  A    between atoms: C_65  and  C_66 
REMARK   15  A    between atoms: C_72  and  C_73 
REMARK   16  A    between atoms: C_80  and  C_82 
ROOT
HETATM    1  C   UNK N   1      36.561  14.121  12.498  0.00  0.00     0.176 C 
HETATM    2  C   UNK N   1      35.954  14.749  11.286  0.00  0.00     0.242 C 
HETATM    3  O   UNK N   1      35.389  15.830  11.392  0.00  0.00    -0.271 OA
HETATM    4  N   UNK N   1      35.948  14.075  10.093  0.00  0.00    -0.346 N 
HETATM    5  C   UNK N   1      35.126  14.503   9.016  0.00  0.00     0.228 C 
HETATM    6  C   UNK N   1      33.653  14.472   9.352  0.00  0.00     0.238 C 
HETATM    7  O   UNK N   1      33.238  15.079  10.328  0.00  0.00    -0.272 OA
HETATM    8  N   UNK N   1      32.800  14.111   8.374  0.00  0.00    -0.341 N 
HETATM    9  C   UNK N   1      31.787  15.078   7.885  0.00  0.00     0.182 C 
HETATM   10  C   UNK N   1      32.063  15.248   6.422  0.00  0.00     0.241 C 
HETATM   11  O   UNK N   1      33.152  15.684   6.075  0.00  0.00    -0.271 OA
HETATM   12  N   UNK N   1      31.221  14.676   5.528  0.00  0.00    -0.346 N 
HETATM   13  C   UNK N   1      31.632  14.290   4.192  0.00  0.00     0.180 C 
HETATM   14  C   UNK N   1      32.718  13.232   4.286  0.00  0.00     0.243 C 
HETATM   15  O   UNK N   1      33.801  13.512   4.780  0.00  0.00    -0.271 OA
HETATM   16  N   UNK N   1      32.469  11.954   3.877  0.00  0.00    -0.341 N 
HETATM   17  C   UNK N   1      31.269  11.666   3.085  0.00  0.00     0.179 C 
HETATM   18  C   UNK N   1      31.237  10.247   2.599  0.00  0.00     0.241 C 
HETATM   19  O   UNK N   1      30.299   9.513   2.867  0.00  0.00    -0.271 OA
HETATM   20  N   UNK N   1      32.256   9.851   1.796  0.00  0.00    -0.346 N 
HETATM   21  C   UNK N   1      32.473   8.618   1.088  0.00  0.00     0.172 C 
HETATM   22  C   UNK N   1      31.515   7.482   1.312  0.00  0.00     0.240 C 
HETATM   23  O   UNK N   1      31.131   6.826   0.355  0.00  0.00    -0.271 OA
HETATM   24  N   UNK N   1      31.457   6.957   2.556  0.00  0.00    -0.346 N 
HETATM   25  C   UNK N   1      32.080   5.691   2.855  0.00  0.00     0.172 C 
HETATM   26  C   UNK N   1      33.568   5.890   2.643  0.00  0.00     0.242 C 
HETATM   27  O   UNK N   1      34.000   6.023   1.509  0.00  0.00    -0.271 OA
HETATM   28  N   UNK N   1      34.389   6.032   3.717  0.00  0.00    -0.341 N 
HETATM   29  C   UNK N   1      33.871   5.735   5.053  0.00  0.00     0.179 C 
HETATM   30  C   UNK N   1      34.749   6.035   6.251  0.00  0.00     0.243 C 
HETATM   31  O   UNK N   1      35.852   6.531   6.073  0.00  0.00    -0.271 OA
HETATM   32  N   UNK N   1      34.339   5.663   7.512  0.00  0.00    -0.341 N 
HETATM   33  C   UNK N   1      35.213   5.539   8.677  0.00  0.00     0.179 C 
HETATM   34  C   UNK N   1      36.619   6.105   8.550  0.00  0.00     0.243 C 
HETATM   35  O   UNK N   1      37.410   5.618   7.756  0.00  0.00    -0.271 OA
HETATM   36  N   UNK N   1      36.973   7.180   9.303  0.00  0.00    -0.341 N 
HETATM   37  C   UNK N   1      36.129   7.569  10.432  0.00  0.00     0.182 C 
HETATM   38  C   UNK N   1      36.414   8.883  11.093  0.00  0.00     0.243 C 
HETATM   39  O   UNK N   1      37.574   9.191  11.321  0.00  0.00    -0.271 OA
HETATM   40  N   UNK N   1      35.382   9.562  11.685  0.00  0.00    -0.339 N 
HETATM   41  C   UNK N   1      35.583  10.478  12.800  0.00  0.00     0.207 C 
HETATM   42  C   UNK N   1      36.372  11.704  12.499  0.00  0.00     0.243 C 
HETATM   43  O   UNK N   1      37.529  11.622  12.112  0.00  0.00    -0.271 OA
HETATM   44  N   UNK N   1      35.819  12.910  12.724  0.00  0.00    -0.346 N 
HETATM   45  C   UNK N   1      34.015   9.199  11.380  0.00  0.00     0.153 C 
HETATM   46  C   UNK N   1      38.237   7.842   9.038  0.00  0.00     0.153 C 
HETATM   47  C   UNK N   1      32.949   5.299   7.720  0.00  0.00     0.153 C 
HETATM   48  C   UNK N   1      35.775   6.398   3.480  0.00  0.00     0.153 C 
HETATM   49  C   UNK N   1      31.514   4.519   2.065  0.00  0.00     0.042 C 
HETATM   50  C   UNK N   1      32.748   8.917  -0.372  0.00  0.00     0.042 C 
HETATM   51  C   UNK N   1      33.443  10.921   4.183  0.00  0.00     0.153 C 
HETATM   52  C   UNK N   1      33.189  13.004   7.518  0.00  0.00     0.153 C 
HETATM   53  C   UNK N   1      36.755  12.912   9.851  0.00  0.00     0.153 C 
HETATM   54  H   UNK N   1      30.288  14.516   5.797  0.00  0.00     0.163 HD
HETATM   55  H   UNK N   1      32.968  10.521   1.678  0.00  0.00     0.163 HD
HETATM   56  H   UNK N   1      30.983   7.445   3.267  0.00  0.00     0.163 HD
HETATM   57  H   UNK N   1      34.891  12.965  13.049  0.00  0.00     0.163 HD
ENDROOT
BRANCH  41  58
HETATM   58  C   UNK N   1      36.120   9.768  14.055  0.00  0.00     0.154 C 
BRANCH  58  59
HETATM   59  C   UNK N   1      35.330  10.041  15.352  0.00  0.00     0.016 C 
HETATM   60  C   UNK N   1      33.948  10.627  15.129  0.00  0.00     0.013 C 
BRANCH  59  61
HETATM   61  C   UNK N   1      36.121  10.918  16.308  0.00  0.00     0.033 C 
BRANCH  61  62
HETATM   62  C   UNK N   1      35.702  10.675  17.727  0.00  0.00    -0.031 C 
HETATM   63  C   UNK N   1      35.256  11.645  18.531  0.00  0.00    -0.035 C 
HETATM   64  C   UNK N   1      35.137  13.063  18.083  0.00  0.00     0.036 C 
ENDBRANCH  61  62
ENDBRANCH  59  61
ENDBRANCH  58  59
BRANCH  58  65
HETATM   65  O   UNK N   1      37.495   9.982  14.196  0.00  0.00    -0.393 OA
HETATM   66  H   UNK N   1      38.243  10.348  13.698  0.00  0.00     0.210 HD
ENDBRANCH  58  65
ENDBRANCH  41  58
BRANCH  37  67
HETATM   67  C   UNK N   1      36.289   6.558  11.589  0.00  0.00     0.009 C 
HETATM   68  C   UNK N   1      35.030   6.296  12.405  0.00  0.00     0.012 C 
HETATM   69  C   UNK N   1      37.531   6.693  12.438  0.00  0.00     0.012 C 
ENDBRANCH  37  67
BRANCH   1  70
HETATM   70  C   UNK N   1      36.448  14.982  13.752  0.00  0.00     0.030 C 
HETATM   71  C   UNK N   1      36.843  14.196  14.985  0.00  0.00     0.007 C 
ENDBRANCH   1  70
BRANCH  33  72
HETATM   72  C   UNK N   1      35.148   4.110   9.256  0.00  0.00     0.039 C 
BRANCH  72  73
HETATM   73  C   UNK N   1      36.401   3.582   9.928  0.00  0.00    -0.020 C 
HETATM   74  C   UNK N   1      36.025   2.971  11.263  0.00  0.00     0.009 C 
HETATM   75  C   UNK N   1      36.992   2.490   9.059  0.00  0.00     0.009 C 
ENDBRANCH  72  73
ENDBRANCH  33  72
BRANCH  29  76
HETATM   76  C   UNK N   1      33.567   4.222   5.092  0.00  0.00     0.039 C 
BRANCH  76  77
HETATM   77  C   UNK N   1      34.804   3.346   4.854  0.00  0.00    -0.020 C 
HETATM   78  C   UNK N   1      35.092   2.389   5.997  0.00  0.00     0.009 C 
HETATM   79  C   UNK N   1      34.619   2.554   3.584  0.00  0.00     0.009 C 
ENDBRANCH  76  77
ENDBRANCH  29  76
BRANCH   9  80
HETATM   80  C   UNK N   1      31.826  16.497   8.567  0.00  0.00     0.013 C 
HETATM   81  C   UNK N   1      32.571  17.592   7.782  0.00  0.00     0.012 C 
BRANCH  80  82
HETATM   82  C   UNK N   1      30.454  17.025   8.984  0.00  0.00     0.002 C 
HETATM   83  C   UNK N   1      30.396  18.551   9.027  0.00  0.00     0.005 C 
ENDBRANCH  80  82
ENDBRANCH   9  80
BRANCH  13  84
HETATM   84  C   UNK N   1      31.800  15.421   3.164  0.00  0.00     0.009 C 
HETATM   85  C   UNK N   1      30.855  16.559   3.487  0.00  0.00     0.012 C 
HETATM   86  C   UNK N   1      33.207  15.953   2.975  0.00  0.00     0.012 C 
ENDBRANCH  13  84
BRANCH  17  87
HETATM   87  C   UNK N   1      31.370  12.528   1.816  0.00  0.00     0.039 C 
BRANCH  87  88
HETATM   88  C   UNK N   1      30.066  12.949   1.174  0.00  0.00    -0.020 C 
HETATM   89  C   UNK N   1      29.841  12.022  -0.003  0.00  0.00     0.009 C 
HETATM   90  C   UNK N   1      28.901  12.803   2.131  0.00  0.00     0.009 C 
ENDBRANCH  87  88
ENDBRANCH  17  87
TORSDOF 16
ENDMDL
MODEL 2
REMARK VINA RESULT:      -6.9      5.715     11.965
REMARK  16 active torsions:
REMARK  status: ('A' for Active; 'I' for Inactive)
REMARK    1  A    between atoms: C_3  and  C_2 
REMARK    2  A    between atoms: C_11  and  C_80 
REMARK    3  A    between atoms: C_15  and  C_77 
REMARK    4  A    between atoms: C_19  and  C_72 
REMARK    5  A    between atoms: C_31  and  C_65 
REMARK    6  A    between atoms: C_35  and  C_60 
REMARK    7  A    between atoms: C_39  and  C_56 
REMARK    8  A    between atoms: C_43  and  C_47 
REMARK    9  A    between atoms: C_47  and  C_48 
REMARK   10  A    between atoms: C_47  and  O_54 
REMARK   11  A    between atoms: C_48  and  C_50 
REMARK   12  A    between atoms: C_50  and  C_51 
REMARK   13  A    between atoms: C_60  and  C_61 
REMARK   14  A    between atoms: C_65  and  C_66 
REMARK   15  A    between atoms: C_72  and  C_73 
REMARK   16  A    between atoms: C_80  and  C_82 
ROOT
HETATM    1  C   UNK N   1      37.885   6.520  17.504  0.00  0.00     0.176 C 
HETATM    2  C   UNK N   1      39.181   6.056  16.922  0.00  0.00     0.242 C 
HETATM    3  O   UNK N   1      40.051   5.625  17.667  0.00  0.00    -0.271 OA
HETATM    4  N   UNK N   1      39.424   6.203  15.581  0.00  0.00    -0.346 N 
HETATM    5  C   UNK N   1      40.735   6.057  15.055  0.00  0.00     0.228 C 
HETATM    6  C   UNK N   1      41.710   7.065  15.620  0.00  0.00     0.238 C 
HETATM    7  O   UNK N   1      41.861   7.155  16.828  0.00  0.00    -0.272 OA
HETATM    8  N   UNK N   1      42.651   7.553  14.787  0.00  0.00    -0.341 N 
HETATM    9  C   UNK N   1      44.085   7.297  15.065  0.00  0.00     0.182 C 
HETATM   10  C   UNK N   1      44.606   6.568  13.864  0.00  0.00     0.241 C 
HETATM   11  O   UNK N   1      44.113   5.488  13.571  0.00  0.00    -0.271 OA
HETATM   12  N   UNK N   1      45.406   7.231  12.994  0.00  0.00    -0.346 N 
HETATM   13  C   UNK N   1      45.518   6.871  11.594  0.00  0.00     0.180 C 
HETATM   14  C   UNK N   1      44.165   7.033  10.923  0.00  0.00     0.243 C 
HETATM   15  O   UNK N   1      43.228   6.322  11.262  0.00  0.00    -0.271 OA
HETATM   16  N   UNK N   1      43.974   8.008   9.989  0.00  0.00    -0.341 N 
HETATM   17  C   UNK N   1      45.131   8.705   9.419  0.00  0.00     0.179 C 
HETATM   18  C   UNK N   1      44.743   9.632   8.304  0.00  0.00     0.241 C 
HETATM   19  O   UNK N   1      45.022  10.819   8.351  0.00  0.00    -0.271 OA
HETATM   20  N   UNK N   1      44.140   9.074   7.226  0.00  0.00    -0.346 N 
HETATM   21  C   UNK N   1      43.743   9.647   5.967  0.00  0.00     0.172 C 
HETATM   22  C   UNK N   1      43.878  11.132   5.779  0.00  0.00     0.240 C 
HETATM   23  O   UNK N   1      44.315  11.563   4.722  0.00  0.00    -0.271 OA
HETATM   24  N   UNK N   1      43.129  11.928   6.573  0.00  0.00    -0.346 N 
HETATM   25  C   UNK N   1      41.949  12.582   6.064  0.00  0.00     0.172 C 
HETATM   26  C   UNK N   1      40.981  11.478   5.686  0.00  0.00     0.242 C 
HETATM   27  O   UNK N   1      41.216  10.781   4.712  0.00  0.00    -0.271 OA
HETATM   28  N   UNK N   1      39.925  11.201   6.496  0.00  0.00    -0.341 N 
HETATM   29  C   UNK N   1      39.591  12.131   7.575  0.00  0.00     0.179 C 
HETATM   30  C   UNK N   1      38.506  11.740   8.557  0.00  0.00     0.243 C 
HETATM   31  O   UNK N   1      37.953  10.656   8.434  0.00  0.00    -0.271 OA
HETATM   32  N   UNK N   1      38.090  12.638   9.513  0.00  0.00    -0.341 N 
HETATM   33  C   UNK N   1      36.833  12.554  10.255  0.00  0.00     0.179 C 
HETATM   34  C   UNK N   1      36.054  11.252  10.149  0.00  0.00     0.243 C 
HETATM   35  O   UNK N   1      35.583  10.901   9.078  0.00  0.00    -0.271 OA
HETATM   36  N   UNK N   1      35.919  10.467  11.251  0.00  0.00    -0.341 N 
HETATM   37  C   UNK N   1      36.236  11.022  12.565  0.00  0.00     0.182 C 
HETATM   38  C   UNK N   1      36.302  10.074  13.723  0.00  0.00     0.243 C 
HETATM   39  O   UNK N   1      35.439   9.217  13.836  0.00  0.00    -0.271 OA
HETATM   40  N   UNK N   1      37.137  10.367  14.770  0.00  0.00    -0.339 N 
HETATM   41  C   UNK N   1      36.886   9.900  16.127  0.00  0.00     0.207 C 
HETATM   42  C   UNK N   1      36.957   8.427  16.331  0.00  0.00     0.243 C 
HETATM   43  O   UNK N   1      36.199   7.677  15.731  0.00  0.00    -0.271 OA
HETATM   44  N   UNK N   1      37.819   7.932  17.236  0.00  0.00    -0.346 N 
HETATM   45  C   UNK N   1      38.170  11.366  14.606  0.00  0.00     0.153 C 
HETATM   46  C   UNK N   1      35.354   9.138  11.106  0.00  0.00     0.153 C 
HETATM   47  C   UNK N   1      38.910  13.805   9.785  0.00  0.00     0.153 C 
HETATM   48  C   UNK N   1      39.122  10.026   6.200  0.00  0.00     0.153 C 
HETATM   49  C   UNK N   1      42.222  13.555   4.925  0.00  0.00     0.042 C 
HETATM   50  C   UNK N   1      44.321   8.823   4.834  0.00  0.00     0.042 C 
HETATM   51  C   UNK N   1      42.622   8.281   9.531  0.00  0.00     0.153 C 
HETATM   52  C   UNK N   1      42.242   7.885  13.433  0.00  0.00     0.153 C 
HETATM   53  C   UNK N   1      38.390   6.509  14.631  0.00  0.00     0.153 C 
HETATM   54  H   UNK N   1      45.936   7.990  13.328  0.00  0.00     0.163 HD
HETATM   55  H   UNK N   1      43.940   8.115   7.319  0.00  0.00     0.163 HD
HETATM   56  H   UNK N   1      43.393  12.063   7.512  0.00  0.00     0.163 HD
HETATM   57  H   UNK N   1      38.416   8.545  17.724  0.00  0.00     0.163 HD
ENDROOT
BRANCH  41  58
HETATM   58  C   UNK N   1      35.589  10.479  16.718  0.00  0.00     0.154 C 
BRANCH  58  59
HETATM   59  C   UNK N   1      35.780  11.680  17.668  0.00  0.00     0.016 C 
HETATM   60  C   UNK N   1      35.280  11.444  19.081  0.00  0.00     0.013 C 
BRANCH  59  61
HETATM   61  C   UNK N   1      35.157  12.943  17.097  0.00  0.00     0.033 C 
BRANCH  61  62
HETATM   62  C   UNK N   1      35.312  14.092  18.048  0.00  0.00    -0.031 C 
HETATM   63  C   UNK N   1      36.153  15.108  17.832  0.00  0.00    -0.035 C 
HETATM   64  C   UNK N   1      37.016  15.187  16.617  0.00  0.00     0.036 C 
ENDBRANCH  61  62
ENDBRANCH  59  61
ENDBRANCH  58  59
BRANCH  58  65
HETATM   65  O   UNK N   1      34.799   9.466  17.270  0.00  0.00    -0.393 OA
HETATM   66  H   UNK N   1      34.149   9.335  17.978  0.00  0.00     0.210 HD
ENDBRANCH  58  65
ENDBRANCH  41  58
BRANCH  37  67
HETATM   67  C   UNK N   1      35.141  12.022  12.999  0.00  0.00     0.009 C 
HETATM   68  C   UNK N   1      35.649  13.322  13.610  0.00  0.00     0.012 C 
HETATM   69  C   UNK N   1      33.952  11.447  13.730  0.00  0.00     0.012 C 
ENDBRANCH  37  67
BRANCH   1  70
HETATM   70  C   UNK N   1      37.791   6.324  19.013  0.00  0.00     0.030 C 
HETATM   71  C   UNK N   1      37.981   7.638  19.743  0.00  0.00     0.007 C 
ENDBRANCH   1  70
BRANCH  33  72
HETATM   72  C   UNK N   1      35.987  13.826  10.038  0.00  0.00     0.039 C 
BRANCH  72  73
HETATM   73  C   UNK N   1      34.479  13.668  10.093  0.00  0.00    -0.020 C 
HETATM   74  C   UNK N   1      33.892  14.810  10.899  0.00  0.00     0.009 C 
HETATM   75  C   UNK N   1      33.931  13.755   8.684  0.00  0.00     0.009 C 
ENDBRANCH  72  73
ENDBRANCH  33  72
BRANCH  29  76
HETATM   76  C   UNK N   1      39.136  13.448   6.910  0.00  0.00     0.039 C 
BRANCH  76  77
HETATM   77  C   UNK N   1      37.917  13.277   5.993  0.00  0.00    -0.020 C 
HETATM   78  C   UNK N   1      36.718  14.098   6.430  0.00  0.00     0.009 C 
HETATM   79  C   UNK N   1      38.293  13.666   4.585  0.00  0.00     0.009 C 
ENDBRANCH  76  77
ENDBRANCH  29  76
BRANCH   9  80
HETATM   80  C   UNK N   1      44.379   6.425  16.342  0.00  0.00     0.013 C 
HETATM   81  C   UNK N   1      45.101   5.091  16.085  0.00  0.00     0.012 C 
BRANCH  80  82
HETATM   82  C   UNK N   1      45.100   7.179  17.458  0.00  0.00     0.002 C 
HETATM   83  C   UNK N   1      44.956   8.696  17.337  0.00  0.00     0.005 C 
ENDBRANCH  80  82
ENDBRANCH   9  80
BRANCH  13  84
HETATM   84  C   UNK N   1      46.354   5.624  11.262  0.00  0.00     0.009 C 
HETATM   85  C   UNK N   1      47.419   5.418  12.320  0.00  0.00     0.012 C 
HETATM   86  C   UNK N   1      45.584   4.338  11.046  0.00  0.00     0.012 C 
ENDBRANCH  13  84
BRANCH  17  87
HETATM   87  C   UNK N   1      46.008   7.626   8.764  0.00  0.00     0.039 C 
BRANCH  87  88
HETATM   88  C   UNK N   1      47.451   7.994   8.492  0.00  0.00    -0.020 C 
HETATM   89  C   UNK N   1      47.951   8.729   9.718  0.00  0.00     0.009 C 
HETATM   90  C   UNK N   1      48.309   6.764   8.283  0.00  0.00     0.009 C 
ENDBRANCH  87  88
ENDBRANCH  17  87
TORSDOF 16
ENDMDL
MODEL 3
REMARK VINA RESULT:      -6.7      7.773     13.131
REMARK  16 active torsions:
REMARK  status: ('A' for Active; 'I' for Inactive)
REMARK    1  A    between atoms: C_3  and  C_2 
REMARK    2  A    between atoms: C_11  and  C_80 
REMARK    3  A    between atoms: C_15  and  C_77 
REMARK    4  A    between atoms: C_19  and  C_72 
REMARK    5  A    between atoms: C_31  and  C_65 
REMARK    6  A    between atoms: C_35  and  C_60 
REMARK    7  A    between atoms: C_39  and  C_56 
REMARK    8  A    between atoms: C_43  and  C_47 
REMARK    9  A    between atoms: C_47  and  C_48 
REMARK   10  A    between atoms: C_47  and  O_54 
REMARK   11  A    between atoms: C_48  and  C_50 
REMARK   12  A    between atoms: C_50  and  C_51 
REMARK   13  A    between atoms: C_60  and  C_61 
REMARK   14  A    between atoms: C_65  and  C_66 
REMARK   15  A    between atoms: C_72  and  C_73 
REMARK   16  A    between atoms: C_80  and  C_82 
ROOT
HETATM    1  C   UNK N   1      32.140  13.663   3.868  0.00  0.00     0.176 C 
HETATM    2  C   UNK N   1      32.263  12.598   2.828  0.00  0.00     0.242 C 
HETATM    3  O   UNK N   1      33.260  12.568   2.118  0.00  0.00    -0.271 OA
HETATM    4  N   UNK N   1      31.228  11.728   2.608  0.00  0.00    -0.346 N 
HETATM    5  C   UNK N   1      31.189  10.915   1.444  0.00  0.00     0.228 C 
HETATM    6  C   UNK N   1      31.142  11.721   0.166  0.00  0.00     0.238 C 
HETATM    7  O   UNK N   1      32.003  12.557  -0.059  0.00  0.00    -0.272 OA
HETATM    8  N   UNK N   1      30.396  11.236  -0.846  0.00  0.00    -0.341 N 
HETATM    9  C   UNK N   1      31.044  10.857  -2.124  0.00  0.00     0.182 C 
HETATM   10  C   UNK N   1      30.733   9.404  -2.321  0.00  0.00     0.241 C 
HETATM   11  O   UNK N   1      31.121   8.601  -1.485  0.00  0.00    -0.271 OA
HETATM   12  N   UNK N   1      29.818   9.053  -3.257  0.00  0.00    -0.346 N 
HETATM   13  C   UNK N   1      29.042   7.832  -3.182  0.00  0.00     0.180 C 
HETATM   14  C   UNK N   1      28.180   7.859  -1.932  0.00  0.00     0.243 C 
HETATM   15  O   UNK N   1      28.708   7.856  -0.828  0.00  0.00    -0.271 OA
HETATM   16  N   UNK N   1      26.823   7.949  -2.034  0.00  0.00    -0.341 N 
HETATM   17  C   UNK N   1      26.176   7.727  -3.332  0.00  0.00     0.179 C 
HETATM   18  C   UNK N   1      24.679   7.716  -3.225  0.00  0.00     0.241 C 
HETATM   19  O   UNK N   1      23.999   8.485  -3.884  0.00  0.00    -0.271 OA
HETATM   20  N   UNK N   1      24.129   6.770  -2.425  0.00  0.00    -0.346 N 
HETATM   21  C   UNK N   1      22.754   6.422  -2.186  0.00  0.00     0.172 C 
HETATM   22  C   UNK N   1      21.679   7.276  -2.799  0.00  0.00     0.240 C 
HETATM   23  O   UNK N   1      20.706   6.739  -3.308  0.00  0.00    -0.271 OA
HETATM   24  N   UNK N   1      21.603   8.562  -2.392  0.00  0.00    -0.346 N 
HETATM   25  C   UNK N   1      20.575   8.989  -1.475  0.00  0.00     0.172 C 
HETATM   26  C   UNK N   1      20.824   8.241  -0.180  0.00  0.00     0.242 C 
HETATM   27  O   UNK N   1      20.603   7.042  -0.128  0.00  0.00    -0.271 OA
HETATM   28  N   UNK N   1      21.395   8.886   0.872  0.00  0.00    -0.341 N 
HETATM   29  C   UNK N   1      21.522  10.343   0.830  0.00  0.00     0.179 C 
HETATM   30  C   UNK N   1      22.288  11.034   1.940  0.00  0.00     0.243 C 
HETATM   31  O   UNK N   1      22.792  10.359   2.826  0.00  0.00    -0.271 OA
HETATM   32  N   UNK N   1      22.330  12.408   1.992  0.00  0.00    -0.341 N 
HETATM   33  C   UNK N   1      22.687  13.194   3.172  0.00  0.00     0.179 C 
HETATM   34  C   UNK N   1      23.301  12.443   4.343  0.00  0.00     0.243 C 
HETATM   35  O   UNK N   1      22.647  11.608   4.950  0.00  0.00    -0.271 OA
HETATM   36  N   UNK N   1      24.595  12.685   4.683  0.00  0.00    -0.341 N 
HETATM   37  C   UNK N   1      25.265  13.867   4.142  0.00  0.00     0.182 C 
HETATM   38  C   UNK N   1      26.745  13.980   4.345  0.00  0.00     0.243 C 
HETATM   39  O   UNK N   1      27.215  13.704   5.437  0.00  0.00    -0.271 OA
HETATM   40  N   UNK N   1      27.488  14.659   3.415  0.00  0.00    -0.339 N 
HETATM   41  C   UNK N   1      28.742  15.323   3.747  0.00  0.00     0.207 C 
HETATM   42  C   UNK N   1      29.860  14.431   4.162  0.00  0.00     0.243 C 
HETATM   43  O   UNK N   1      29.756  13.720   5.150  0.00  0.00    -0.271 OA
HETATM   44  N   UNK N   1      31.015  14.468   3.474  0.00  0.00    -0.346 N 
HETATM   45  C   UNK N   1      26.922  14.951   2.117  0.00  0.00     0.153 C 
HETATM   46  C   UNK N   1      25.239  11.830   5.663  0.00  0.00     0.153 C 
HETATM   47  C   UNK N   1      21.934  13.168   0.820  0.00  0.00     0.153 C 
HETATM   48  C   UNK N   1      21.782   8.100   2.032  0.00  0.00     0.153 C 
HETATM   49  C   UNK N   1      19.159   8.813  -2.006  0.00  0.00     0.042 C 
HETATM   50  C   UNK N   1      22.565   4.935  -2.408  0.00  0.00     0.042 C 
HETATM   51  C   UNK N   1      26.047   8.196  -0.832  0.00  0.00     0.153 C 
HETATM   52  C   UNK N   1      29.103  10.661  -0.512  0.00  0.00     0.153 C 
HETATM   53  C   UNK N   1      30.128  11.578   3.522  0.00  0.00     0.153 C 
HETATM   54  H   UNK N   1      29.675   9.655  -4.023  0.00  0.00     0.163 HD
HETATM   55  H   UNK N   1      24.780   6.230  -1.922  0.00  0.00     0.163 HD
HETATM   56  H   UNK N   1      22.259   9.216  -2.726  0.00  0.00     0.163 HD
HETATM   57  H   UNK N   1      31.093  15.055   2.687  0.00  0.00     0.163 HD
ENDROOT
BRANCH  41  58
HETATM   58  C   UNK N   1      28.550  16.474   4.751  0.00  0.00     0.154 C 
BRANCH  58  59
HETATM   59  C   UNK N   1      29.234  17.802   4.366  0.00  0.00     0.016 C 
HETATM   60  C   UNK N   1      30.729  17.832   4.624  0.00  0.00     0.013 C 
BRANCH  59  61
HETATM   61  C   UNK N   1      28.563  18.987   5.038  0.00  0.00     0.033 C 
BRANCH  61  62
HETATM   62  C   UNK N   1      27.440  19.514   4.195  0.00  0.00    -0.031 C 
HETATM   63  C   UNK N   1      26.692  20.563   4.552  0.00  0.00    -0.035 C 
HETATM   64  C   UNK N   1      26.911  21.304   5.829  0.00  0.00     0.036 C 
ENDBRANCH  61  62
ENDBRANCH  59  61
ENDBRANCH  58  59
BRANCH  58  65
HETATM   65  O   UNK N   1      28.860  16.056   6.050  0.00  0.00    -0.393 OA
HETATM   66  H   UNK N   1      28.424  15.906   6.904  0.00  0.00     0.210 HD
ENDBRANCH  58  65
ENDBRANCH  41  58
BRANCH  37  67
HETATM   67  C   UNK N   1      24.724  15.144   4.823  0.00  0.00     0.009 C 
HETATM   68  C   UNK N   1      24.680  16.385   3.940  0.00  0.00     0.012 C 
HETATM   69  C   UNK N   1      25.219  15.426   6.221  0.00  0.00     0.012 C 
ENDBRANCH  37  67
BRANCH   1  70
HETATM   70  C   UNK N   1      33.360  14.573   3.957  0.00  0.00     0.030 C 
HETATM   71  C   UNK N   1      33.402  15.293   5.288  0.00  0.00     0.007 C 
ENDBRANCH   1  70
BRANCH  33  72
HETATM   72  C   UNK N   1      21.538  14.152   3.556  0.00  0.00     0.039 C 
BRANCH  72  73
HETATM   73  C   UNK N   1      21.388  14.490   5.027  0.00  0.00    -0.020 C 
HETATM   74  C   UNK N   1      21.243  15.992   5.175  0.00  0.00     0.009 C 
HETATM   75  C   UNK N   1      20.121  13.841   5.546  0.00  0.00     0.009 C 
ENDBRANCH  72  73
ENDBRANCH  33  72
BRANCH  29  76
HETATM   76  C   UNK N   1      20.091  10.921   0.851  0.00  0.00     0.039 C 
BRANCH  76  77
HETATM   77  C   UNK N   1      19.308  10.563   2.121  0.00  0.00    -0.020 C 
HETATM   78  C   UNK N   1      18.811  11.778   2.883  0.00  0.00     0.009 C 
HETATM   79  C   UNK N   1      18.129   9.696   1.753  0.00  0.00     0.009 C 
ENDBRANCH  76  77
ENDBRANCH  29  76
BRANCH   9  80
HETATM   80  C   UNK N   1      32.607  11.041  -2.167  0.00  0.00     0.013 C 
HETATM   81  C   UNK N   1      33.431   9.741  -2.145  0.00  0.00     0.012 C 
BRANCH  80  82
HETATM   82  C   UNK N   1      33.098  11.927  -3.311  0.00  0.00     0.002 C 
HETATM   83  C   UNK N   1      33.998  13.066  -2.833  0.00  0.00     0.005 C 
ENDBRANCH  80  82
ENDBRANCH   9  80
BRANCH  13  84
HETATM   84  C   UNK N   1      29.768   6.525  -3.541  0.00  0.00     0.009 C 
HETATM   85  C   UNK N   1      30.869   6.802  -4.544  0.00  0.00     0.012 C 
HETATM   86  C   UNK N   1      30.316   5.720  -2.380  0.00  0.00     0.012 C 
ENDBRANCH  13  84
BRANCH  17  87
HETATM   87  C   UNK N   1      26.563   6.305  -3.771  0.00  0.00     0.039 C 
BRANCH  87  88
HETATM   88  C   UNK N   1      26.411   5.983  -5.242  0.00  0.00    -0.020 C 
HETATM   89  C   UNK N   1      26.939   7.178  -6.007  0.00  0.00     0.009 C 
HETATM   90  C   UNK N   1      27.223   4.765  -5.631  0.00  0.00     0.009 C 
ENDBRANCH  87  88
ENDBRANCH  17  87
TORSDOF 16
ENDMDL
MODEL 4
REMARK VINA RESULT:      -6.7      6.642     12.629
REMARK  16 active torsions:
REMARK  status: ('A' for Active; 'I' for Inactive)
REMARK    1  A    between atoms: C_3  and  C_2 
REMARK    2  A    between atoms: C_11  and  C_80 
REMARK    3  A    between atoms: C_15  and  C_77 
REMARK    4  A    between atoms: C_19  and  C_72 
REMARK    5  A    between atoms: C_31  and  C_65 
REMARK    6  A    between atoms: C_35  and  C_60 
REMARK    7  A    between atoms: C_39  and  C_56 
REMARK    8  A    between atoms: C_43  and  C_47 
REMARK    9  A    between atoms: C_47  and  C_48 
REMARK   10  A    between atoms: C_47  and  O_54 
REMARK   11  A    between atoms: C_48  and  C_50 
REMARK   12  A    between atoms: C_50  and  C_51 
REMARK   13  A    between atoms: C_60  and  C_61 
REMARK   14  A    between atoms: C_65  and  C_66 
REMARK   15  A    between atoms: C_72  and  C_73 
REMARK   16  A    between atoms: C_80  and  C_82 
ROOT
HETATM    1  C   UNK N   1      20.953  15.697   5.679  0.00  0.00     0.176 C 
HETATM    2  C   UNK N   1      22.330  16.235   5.891  0.00  0.00     0.242 C 
HETATM    3  O   UNK N   1      22.498  17.447   5.942  0.00  0.00    -0.271 OA
HETATM    4  N   UNK N   1      23.402  15.382   5.931  0.00  0.00    -0.346 N 
HETATM    5  C   UNK N   1      24.732  15.873   5.827  0.00  0.00     0.228 C 
HETATM    6  C   UNK N   1      24.996  16.580   4.517  0.00  0.00     0.238 C 
HETATM    7  O   UNK N   1      24.286  17.512   4.174  0.00  0.00    -0.272 OA
HETATM    8  N   UNK N   1      26.214  16.424   3.962  0.00  0.00    -0.341 N 
HETATM    9  C   UNK N   1      27.098  17.601   3.785  0.00  0.00     0.182 C 
HETATM   10  C   UNK N   1      28.344  17.291   4.559  0.00  0.00     0.241 C 
HETATM   11  O   UNK N   1      28.256  17.104   5.765  0.00  0.00    -0.271 OA
HETATM   12  N   UNK N   1      29.471  16.967   3.881  0.00  0.00    -0.346 N 
HETATM   13  C   UNK N   1      30.523  16.146   4.447  0.00  0.00     0.180 C 
HETATM   14  C   UNK N   1      29.970  14.768   4.764  0.00  0.00     0.243 C 
HETATM   15  O   UNK N   1      29.103  14.640   5.618  0.00  0.00    -0.271 OA
HETATM   16  N   UNK N   1      30.390  13.679   4.056  0.00  0.00    -0.341 N 
HETATM   17  C   UNK N   1      31.575  13.783   3.199  0.00  0.00     0.179 C 
HETATM   18  C   UNK N   1      31.975  12.458   2.621  0.00  0.00     0.241 C 
HETATM   19  O   UNK N   1      32.064  12.302   1.413  0.00  0.00    -0.271 OA
HETATM   20  N   UNK N   1      32.299  11.478   3.501  0.00  0.00    -0.346 N 
HETATM   21  C   UNK N   1      32.815  10.153   3.286  0.00  0.00     0.172 C 
HETATM   22  C   UNK N   1      32.936   9.648   1.876  0.00  0.00     0.240 C 
HETATM   23  O   UNK N   1      33.939   9.033   1.545  0.00  0.00    -0.271 OA
HETATM   24  N   UNK N   1      31.793   9.502   1.170  0.00  0.00    -0.346 N 
HETATM   25  C   UNK N   1      31.223   8.197   0.945  0.00  0.00     0.172 C 
HETATM   26  C   UNK N   1      30.845   7.658   2.311  0.00  0.00     0.242 C 
HETATM   27  O   UNK N   1      31.724   7.322   3.088  0.00  0.00    -0.271 OA
HETATM   28  N   UNK N   1      29.542   7.660   2.700  0.00  0.00    -0.341 N 
HETATM   29  C   UNK N   1      28.503   7.938   1.708  0.00  0.00     0.179 C 
HETATM   30  C   UNK N   1      27.071   8.080   2.182  0.00  0.00     0.243 C 
HETATM   31  O   UNK N   1      26.825   7.978   3.375  0.00  0.00    -0.271 OA
HETATM   32  N   UNK N   1      26.057   8.228   1.264  0.00  0.00    -0.341 N 
HETATM   33  C   UNK N   1      24.639   7.997   1.534  0.00  0.00     0.179 C 
HETATM   34  C   UNK N   1      24.230   7.832   2.989  0.00  0.00     0.243 C 
HETATM   35  O   UNK N   1      24.631   6.877   3.637  0.00  0.00    -0.271 OA
HETATM   36  N   UNK N   1      23.443   8.777   3.570  0.00  0.00    -0.341 N 
HETATM   37  C   UNK N   1      22.751   9.746   2.723  0.00  0.00     0.182 C 
HETATM   38  C   UNK N   1      22.086  10.907   3.397  0.00  0.00     0.243 C 
HETATM   39  O   UNK N   1      21.436  10.710   4.413  0.00  0.00    -0.271 OA
HETATM   40  N   UNK N   1      21.973  12.090   2.715  0.00  0.00    -0.339 N 
HETATM   41  C   UNK N   1      20.907  13.048   2.978  0.00  0.00     0.207 C 
HETATM   42  C   UNK N   1      20.926  13.690   4.321  0.00  0.00     0.243 C 
HETATM   43  O   UNK N   1      20.827  13.015   5.336  0.00  0.00    -0.271 OA
HETATM   44  N   UNK N   1      20.984  15.031   4.405  0.00  0.00    -0.346 N 
HETATM   45  C   UNK N   1      22.771  12.315   1.530  0.00  0.00     0.153 C 
HETATM   46  C   UNK N   1      23.221   8.726   5.003  0.00  0.00     0.153 C 
HETATM   47  C   UNK N   1      26.393   8.580  -0.105  0.00  0.00     0.153 C 
HETATM   48  C   UNK N   1      29.235   7.305   4.075  0.00  0.00     0.153 C 
HETATM   49  C   UNK N   1      32.122   7.255   0.157  0.00  0.00     0.042 C 
HETATM   50  C   UNK N   1      34.063   9.956   4.124  0.00  0.00     0.042 C 
HETATM   51  C   UNK N   1      29.685  12.420   4.228  0.00  0.00     0.153 C 
HETATM   52  C   UNK N   1      26.803  15.097   3.997  0.00  0.00     0.153 C 
HETATM   53  C   UNK N   1      23.262  13.960   6.079  0.00  0.00     0.153 C 
HETATM   54  H   UNK N   1      29.581  17.306   2.964  0.00  0.00     0.163 HD
HETATM   55  H   UNK N   1      32.158  11.714   4.445  0.00  0.00     0.163 HD
HETATM   56  H   UNK N   1      31.344  10.298   0.805  0.00  0.00     0.163 HD
HETATM   57  H   UNK N   1      21.050  15.566   3.581  0.00  0.00     0.163 HD
ENDROOT
BRANCH  41  58
HETATM   58  C   UNK N   1      19.513  12.480   2.655  0.00  0.00     0.154 C 
BRANCH  58  59
HETATM   59  C   UNK N   1      18.899  12.965   1.326  0.00  0.00     0.016 C 
HETATM   60  C   UNK N   1      18.732  11.876   0.282  0.00  0.00     0.013 C 
BRANCH  59  61
HETATM   61  C   UNK N   1      19.683  14.130   0.746  0.00  0.00     0.033 C 
BRANCH  61  62
HETATM   62  C   UNK N   1      18.790  15.025  -0.062  0.00  0.00    -0.031 C 
HETATM   63  C   UNK N   1      18.963  16.348  -0.138  0.00  0.00    -0.035 C 
HETATM   64  C   UNK N   1      20.065  17.054   0.579  0.00  0.00     0.036 C 
ENDBRANCH  61  62
ENDBRANCH  59  61
ENDBRANCH  58  59
BRANCH  58  65
HETATM   65  O   UNK N   1      18.650  12.634   3.745  0.00  0.00    -0.393 OA
HETATM   66  H   UNK N   1      17.707  12.558   3.961  0.00  0.00     0.210 HD
ENDBRANCH  58  65
ENDBRANCH  41  58
BRANCH  37  67
HETATM   67  C   UNK N   1      21.582   9.063   1.978  0.00  0.00     0.009 C 
HETATM   68  C   UNK N   1      21.358   9.533   0.547  0.00  0.00     0.012 C 
HETATM   69  C   UNK N   1      20.299   8.885   2.753  0.00  0.00     0.012 C 
ENDBRANCH  37  67
BRANCH   1  70
HETATM   70  C   UNK N   1      19.879  16.778   5.617  0.00  0.00     0.030 C 
HETATM   71  C   UNK N   1      19.486  17.068   4.184  0.00  0.00     0.007 C 
ENDBRANCH   1  70
BRANCH  33  72
HETATM   72  C   UNK N   1      24.072   6.921   0.583  0.00  0.00     0.039 C 
BRANCH  72  73
HETATM   73  C   UNK N   1      22.959   6.043   1.122  0.00  0.00    -0.020 C 
HETATM   74  C   UNK N   1      21.846   5.971   0.095  0.00  0.00     0.009 C 
HETATM   75  C   UNK N   1      23.502   4.644   1.328  0.00  0.00     0.009 C 
ENDBRANCH  72  73
ENDBRANCH  33  72
BRANCH  29  76
HETATM   76  C   UNK N   1      28.523   6.772   0.696  0.00  0.00     0.039 C 
BRANCH  76  77
HETATM   77  C   UNK N   1      28.169   5.417   1.321  0.00  0.00    -0.020 C 
HETATM   78  C   UNK N   1      27.016   4.718   0.626  0.00  0.00     0.009 C 
HETATM   79  C   UNK N   1      29.381   4.519   1.287  0.00  0.00     0.009 C 
ENDBRANCH  76  77
ENDBRANCH  29  76
BRANCH   9  80
HETATM   80  C   UNK N   1      26.515  18.967   4.306  0.00  0.00     0.013 C 
HETATM   81  C   UNK N   1      27.059  19.449   5.663  0.00  0.00     0.012 C 
BRANCH  80  82
HETATM   82  C   UNK N   1      26.607  20.109   3.296  0.00  0.00     0.002 C 
HETATM   83  C   UNK N   1      25.257  20.456   2.670  0.00  0.00     0.005 C 
ENDBRANCH  80  82
ENDBRANCH   9  80
BRANCH  13  84
HETATM   84  C   UNK N   1      31.450  16.815   5.475  0.00  0.00     0.009 C 
HETATM   85  C   UNK N   1      31.821  15.825   6.559  0.00  0.00     0.012 C 
HETATM   86  C   UNK N   1      32.700  17.473   4.924  0.00  0.00     0.012 C 
ENDBRANCH  13  84
BRANCH  17  87
HETATM   87  C   UNK N   1      32.738  14.195   4.115  0.00  0.00     0.039 C 
BRANCH  87  88
HETATM   88  C   UNK N   1      34.122  14.193   3.502  0.00  0.00    -0.020 C 
HETATM   89  C   UNK N   1      34.146  15.308   2.478  0.00  0.00     0.009 C 
HETATM   90  C   UNK N   1      35.191  14.467   4.539  0.00  0.00     0.009 C 
ENDBRANCH  87  88
ENDBRANCH  17  87
TORSDOF 16
ENDMDL
MODEL 5
REMARK VINA RESULT:      -6.6      3.017     13.100
REMARK  16 active torsions:
REMARK  status: ('A' for Active; 'I' for Inactive)
REMARK    1  A    between atoms: C_3  and  C_2 
REMARK    2  A    between atoms: C_11  and  C_80 
REMARK    3  A    between atoms: C_15  and  C_77 
REMARK    4  A    between atoms: C_19  and  C_72 
REMARK    5  A    between atoms: C_31  and  C_65 
REMARK    6  A    between atoms: C_35  and  C_60 
REMARK    7  A    between atoms: C_39  and  C_56 
REMARK    8  A    between atoms: C_43  and  C_47 
REMARK    9  A    between atoms: C_47  and  C_48 
REMARK   10  A    between atoms: C_47  and  O_54 
REMARK   11  A    between atoms: C_48  and  C_50 
REMARK   12  A    between atoms: C_50  and  C_51 
REMARK   13  A    between atoms: C_60  and  C_61 
REMARK   14  A    between atoms: C_65  and  C_66 
REMARK   15  A    between atoms: C_72  and  C_73 
REMARK   16  A    between atoms: C_80  and  C_82 
ROOT
HETATM    1  C   UNK N   1      28.094   6.721   2.086  0.00  0.00     0.176 C 
HETATM    2  C   UNK N   1      28.882   6.063   3.171  0.00  0.00     0.242 C 
HETATM    3  O   UNK N   1      28.513   4.979   3.605  0.00  0.00    -0.271 OA
HETATM    4  N   UNK N   1      29.946   6.713   3.738  0.00  0.00    -0.346 N 
HETATM    5  C   UNK N   1      30.518   6.256   4.956  0.00  0.00     0.228 C 
HETATM    6  C   UNK N   1      29.541   6.278   6.109  0.00  0.00     0.238 C 
HETATM    7  O   UNK N   1      28.477   5.687   6.017  0.00  0.00    -0.272 OA
HETATM    8  N   UNK N   1      30.021   6.611   7.323  0.00  0.00    -0.341 N 
HETATM    9  C   UNK N   1      29.976   5.625   8.429  0.00  0.00     0.182 C 
HETATM   10  C   UNK N   1      31.399   5.429   8.855  0.00  0.00     0.241 C 
HETATM   11  O   UNK N   1      32.203   4.997   8.041  0.00  0.00    -0.271 OA
HETATM   12  N   UNK N   1      31.812   5.975  10.025  0.00  0.00    -0.346 N 
HETATM   13  C   UNK N   1      33.192   6.338  10.282  0.00  0.00     0.180 C 
HETATM   14  C   UNK N   1      33.623   7.408   9.294  0.00  0.00     0.243 C 
HETATM   15  O   UNK N   1      33.679   7.149   8.100  0.00  0.00    -0.271 OA
HETATM   16  N   UNK N   1      33.888   8.675   9.726  0.00  0.00    -0.341 N 
HETATM   17  C   UNK N   1      34.042   8.936  11.161  0.00  0.00     0.179 C 
HETATM   18  C   UNK N   1      34.477  10.345  11.438  0.00  0.00     0.241 C 
HETATM   19  O   UNK N   1      33.816  11.075  12.160  0.00  0.00    -0.271 OA
HETATM   20  N   UNK N   1      35.664  10.735  10.910  0.00  0.00    -0.346 N 
HETATM   21  C   UNK N   1      36.408  11.956  11.067  0.00  0.00     0.172 C 
HETATM   22  C   UNK N   1      35.782  13.086  11.834  0.00  0.00     0.240 C 
HETATM   23  O   UNK N   1      36.463  13.720  12.628  0.00  0.00    -0.271 OA
HETATM   24  N   UNK N   1      34.659  13.636  11.322  0.00  0.00    -0.346 N 
HETATM   25  C   UNK N   1      34.697  14.913  10.654  0.00  0.00     0.172 C 
HETATM   26  C   UNK N   1      35.568  14.725   9.428  0.00  0.00     0.242 C 
HETATM   27  O   UNK N   1      36.772  14.574   9.564  0.00  0.00    -0.271 OA
HETATM   28  N   UNK N   1      34.991  14.612   8.202  0.00  0.00    -0.341 N 
HETATM   29  C   UNK N   1      33.571  14.931   8.051  0.00  0.00     0.179 C 
HETATM   30  C   UNK N   1      32.908  14.663   6.716  0.00  0.00     0.243 C 
HETATM   31  O   UNK N   1      33.568  14.174   5.810  0.00  0.00    -0.271 OA
HETATM   32  N   UNK N   1      31.606  15.055   6.506  0.00  0.00    -0.341 N 
HETATM   33  C   UNK N   1      30.976  15.212   5.196  0.00  0.00     0.179 C 
HETATM   34  C   UNK N   1      31.729  14.657   3.996  0.00  0.00     0.243 C 
HETATM   35  O   UNK N   1      32.804  15.136   3.669  0.00  0.00    -0.271 OA
HETATM   36  N   UNK N   1      31.209  13.600   3.316  0.00  0.00    -0.341 N 
HETATM   37  C   UNK N   1      29.814  13.226   3.538  0.00  0.00     0.182 C 
HETATM   38  C   UNK N   1      29.341  11.929   2.957  0.00  0.00     0.243 C 
HETATM   39  O   UNK N   1      29.669  11.636   1.817  0.00  0.00    -0.271 OA
HETATM   40  N   UNK N   1      28.332  11.251   3.589  0.00  0.00    -0.339 N 
HETATM   41  C   UNK N   1      27.423  10.359   2.881  0.00  0.00     0.207 C 
HETATM   42  C   UNK N   1      28.037   9.135   2.297  0.00  0.00     0.243 C 
HETATM   43  O   UNK N   1      28.915   9.221   1.450  0.00  0.00    -0.271 OA
HETATM   44  N   UNK N   1      27.567   7.929   2.662  0.00  0.00    -0.346 N 
HETATM   45  C   UNK N   1      27.977  11.594   4.949  0.00  0.00     0.153 C 
HETATM   46  C   UNK N   1      32.018  12.946   2.304  0.00  0.00     0.153 C 
HETATM   47  C   UNK N   1      30.785  15.410   7.650  0.00  0.00     0.153 C 
HETATM   48  C   UNK N   1      35.836  14.255   7.075  0.00  0.00     0.153 C 
HETATM   49  C   UNK N   1      35.153  16.063  11.542  0.00  0.00     0.042 C 
HETATM   50  C   UNK N   1      37.826  11.630  11.489  0.00  0.00     0.042 C 
HETATM   51  C   UNK N   1      34.078   9.724   8.739  0.00  0.00     0.153 C 
HETATM   52  C   UNK N   1      30.975   7.706   7.391  0.00  0.00     0.153 C 
HETATM   53  C   UNK N   1      30.549   7.879   3.154  0.00  0.00     0.153 C 
HETATM   54  H   UNK N   1      31.146   6.131  10.731  0.00  0.00     0.163 HD
HETATM   55  H   UNK N   1      36.087  10.070  10.322  0.00  0.00     0.163 HD
HETATM   56  H   UNK N   1      33.803  13.157  11.407  0.00  0.00     0.163 HD
HETATM   57  H   UNK N   1      26.850   7.871   3.335  0.00  0.00     0.163 HD
ENDROOT
BRANCH  41  58
HETATM   58  C   UNK N   1      26.565  11.100   1.838  0.00  0.00     0.154 C 
BRANCH  58  59
HETATM   59  C   UNK N   1      25.118  10.585   1.695  0.00  0.00     0.016 C 
HETATM   60  C   UNK N   1      24.867   9.773   0.437  0.00  0.00     0.013 C 
BRANCH  59  61
HETATM   61  C   UNK N   1      24.114  11.720   1.794  0.00  0.00     0.033 C 
BRANCH  61  62
HETATM   62  C   UNK N   1      23.692  12.180   0.430  0.00  0.00    -0.031 C 
HETATM   63  C   UNK N   1      23.692  13.465   0.063  0.00  0.00    -0.035 C 
HETATM   64  C   UNK N   1      24.116  14.560   0.983  0.00  0.00     0.036 C 
ENDBRANCH  61  62
ENDBRANCH  59  61
ENDBRANCH  58  59
BRANCH  58  65
HETATM   65  O   UNK N   1      27.239  11.189   0.616  0.00  0.00    -0.393 OA
HETATM   66  H   UNK N   1      27.614  11.860   0.024  0.00  0.00     0.210 HD
ENDBRANCH  58  65
ENDBRANCH  41  58
BRANCH  37  67
HETATM   67  C   UNK N   1      28.874  14.262   2.882  0.00  0.00     0.009 C 
HETATM   68  C   UNK N   1      27.458  14.304   3.441  0.00  0.00     0.012 C 
HETATM   69  C   UNK N   1      28.921  14.357   1.375  0.00  0.00     0.012 C 
ENDBRANCH  37  67
BRANCH   1  70
HETATM   70  C   UNK N   1      26.918   5.884   1.594  0.00  0.00     0.030 C 
HETATM   71  C   UNK N   1      25.608   6.422   2.132  0.00  0.00     0.007 C 
ENDBRANCH   1  70
BRANCH  33  72
HETATM   72  C   UNK N   1      30.450  16.651   5.013  0.00  0.00     0.039 C 
BRANCH  72  73
HETATM   73  C   UNK N   1      28.966  16.875   5.235  0.00  0.00    -0.020 C 
HETATM   74  C   UNK N   1      28.776  17.729   6.473  0.00  0.00     0.009 C 
HETATM   75  C   UNK N   1      28.409  17.635   4.049  0.00  0.00     0.009 C 
ENDBRANCH  72  73
ENDBRANCH  33  72
BRANCH  29  76
HETATM   76  C   UNK N   1      33.416  16.441   8.330  0.00  0.00     0.039 C 
BRANCH  76  77
HETATM   77  C   UNK N   1      34.378  17.313   7.513  0.00  0.00    -0.020 C 
HETATM   78  C   UNK N   1      33.810  17.741   6.173  0.00  0.00     0.009 C 
HETATM   79  C   UNK N   1      34.739  18.542   8.311  0.00  0.00     0.009 C 
ENDBRANCH  76  77
ENDBRANCH  29  76
BRANCH   9  80
HETATM   80  C   UNK N   1      29.370   4.221   8.056  0.00  0.00     0.013 C 
HETATM   81  C   UNK N   1      30.313   3.019   8.243  0.00  0.00     0.012 C 
BRANCH  80  82
HETATM   82  C   UNK N   1      28.034   3.919   8.732  0.00  0.00     0.002 C 
HETATM   83  C   UNK N   1      27.969   4.431  10.170  0.00  0.00     0.005 C 
ENDBRANCH  80  82
ENDBRANCH   9  80
BRANCH  13  84
HETATM   84  C   UNK N   1      34.167   5.189  10.586  0.00  0.00     0.009 C 
HETATM   85  C   UNK N   1      33.432   4.050  11.262  0.00  0.00     0.012 C 
HETATM   86  C   UNK N   1      34.971   4.663   9.413  0.00  0.00     0.012 C 
ENDBRANCH  13  84
BRANCH  17  87
HETATM   87  C   UNK N   1      35.203   8.050  11.640  0.00  0.00     0.039 C 
BRANCH  87  88
HETATM   88  C   UNK N   1      35.338   7.856  13.135  0.00  0.00    -0.020 C 
HETATM   89  C   UNK N   1      35.688   6.398  13.355  0.00  0.00     0.009 C 
HETATM   90  C   UNK N   1      36.450   8.710  13.709  0.00  0.00     0.009 C 
ENDBRANCH  87  88
ENDBRANCH  17  87
TORSDOF 16
ENDMDL
MODEL 6
REMARK VINA RESULT:      -6.5      2.058      9.904
REMARK  16 active torsions:
REMARK  status: ('A' for Active; 'I' for Inactive)
REMARK    1  A    between atoms: C_3  and  C_2 
REMARK    2  A    between atoms: C_11  and  C_80 
REMARK    3  A    between atoms: C_15  and  C_77 
REMARK    4  A    between atoms: C_19  and  C_72 
REMARK    5  A    between atoms: C_31  and  C_65 
REMARK    6  A    between atoms: C_35  and  C_60 
REMARK    7  A    between atoms: C_39  and  C_56 
REMARK    8  A    between atoms: C_43  and  C_47 
REMARK    9  A    between atoms: C_47  and  C_48 
REMARK   10  A    between atoms: C_47  and  O_54 
REMARK   11  A    between atoms: C_48  and  C_50 
REMARK   12  A    between atoms: C_50  and  C_51 
REMARK   13  A    between atoms: C_60  and  C_61 
REMARK   14  A    between atoms: C_65  and  C_66 
REMARK   15  A    between atoms: C_72  and  C_73 
REMARK   16  A    between atoms: C_80  and  C_82 
ROOT
HETATM    1  C   UNK N   1      34.341  14.708   3.317  0.00  0.00     0.176 C 
HETATM    2  C   UNK N   1      34.302  13.265   2.934  0.00  0.00     0.242 C 
HETATM    3  O   UNK N   1      33.677  12.927   1.937  0.00  0.00    -0.271 OA
HETATM    4  N   UNK N   1      34.880  12.322   3.744  0.00  0.00    -0.346 N 
HETATM    5  C   UNK N   1      34.603  10.939   3.571  0.00  0.00     0.228 C 
HETATM    6  C   UNK N   1      33.141  10.605   3.764  0.00  0.00     0.238 C 
HETATM    7  O   UNK N   1      32.292  11.183   3.105  0.00  0.00    -0.272 OA
HETATM    8  N   UNK N   1      32.847   9.432   4.358  0.00  0.00    -0.341 N 
HETATM    9  C   UNK N   1      32.098   8.394   3.609  0.00  0.00     0.182 C 
HETATM   10  C   UNK N   1      32.989   7.190   3.585  0.00  0.00     0.241 C 
HETATM   11  O   UNK N   1      34.085   7.279   3.049  0.00  0.00    -0.271 OA
HETATM   12  N   UNK N   1      32.681   6.132   4.375  0.00  0.00    -0.346 N 
HETATM   13  C   UNK N   1      33.674   5.196   4.861  0.00  0.00     0.180 C 
HETATM   14  C   UNK N   1      34.672   5.931   5.739  0.00  0.00     0.243 C 
HETATM   15  O   UNK N   1      35.395   6.790   5.252  0.00  0.00    -0.271 OA
HETATM   16  N   UNK N   1      34.723   5.682   7.079  0.00  0.00    -0.341 N 
HETATM   17  C   UNK N   1      34.030   4.511   7.627  0.00  0.00     0.179 C 
HETATM   18  C   UNK N   1      34.319   4.312   9.086  0.00  0.00     0.241 C 
HETATM   19  O   UNK N   1      33.414   4.270   9.904  0.00  0.00    -0.271 OA
HETATM   20  N   UNK N   1      35.615   4.112   9.433  0.00  0.00    -0.346 N 
HETATM   21  C   UNK N   1      36.211   3.792  10.702  0.00  0.00     0.172 C 
HETATM   22  C   UNK N   1      35.336   3.771  11.923  0.00  0.00     0.240 C 
HETATM   23  O   UNK N   1      35.470   2.871  12.740  0.00  0.00    -0.271 OA
HETATM   24  N   UNK N   1      34.762   4.937  12.294  0.00  0.00    -0.346 N 
HETATM   25  C   UNK N   1      35.270   5.690  13.414  0.00  0.00     0.172 C 
HETATM   26  C   UNK N   1      36.676   6.112  13.038  0.00  0.00     0.242 C 
HETATM   27  O   UNK N   1      37.562   5.274  12.988  0.00  0.00    -0.271 OA
HETATM   28  N   UNK N   1      36.915   7.394  12.652  0.00  0.00    -0.341 N 
HETATM   29  C   UNK N   1      35.874   8.403  12.851  0.00  0.00     0.179 C 
HETATM   30  C   UNK N   1      36.096   9.791  12.286  0.00  0.00     0.243 C 
HETATM   31  O   UNK N   1      37.124  10.026  11.667  0.00  0.00    -0.271 OA
HETATM   32  N   UNK N   1      35.190  10.793  12.552  0.00  0.00    -0.341 N 
HETATM   33  C   UNK N   1      35.453  12.223  12.409  0.00  0.00     0.179 C 
HETATM   34  C   UNK N   1      36.723  12.623  11.673  0.00  0.00     0.243 C 
HETATM   35  O   UNK N   1      37.818  12.347  12.140  0.00  0.00    -0.271 OA
HETATM   36  N   UNK N   1      36.625  13.257  10.474  0.00  0.00    -0.341 N 
HETATM   37  C   UNK N   1      35.339  13.823  10.070  0.00  0.00     0.182 C 
HETATM   38  C   UNK N   1      35.205  14.305   8.658  0.00  0.00     0.243 C 
HETATM   39  O   UNK N   1      36.114  14.955   8.166  0.00  0.00    -0.271 OA
HETATM   40  N   UNK N   1      33.972  14.264   8.061  0.00  0.00    -0.339 N 
HETATM   41  C   UNK N   1      33.587  15.179   6.995  0.00  0.00     0.207 C 
HETATM   42  C   UNK N   1      34.340  15.043   5.718  0.00  0.00     0.243 C 
HETATM   43  O   UNK N   1      35.549  15.216   5.685  0.00  0.00    -0.271 OA
HETATM   44  N   UNK N   1      33.662  14.795   4.582  0.00  0.00    -0.346 N 
HETATM   45  C   UNK N   1      32.917  13.465   8.645  0.00  0.00     0.153 C 
HETATM   46  C   UNK N   1      37.824  13.456   9.681  0.00  0.00     0.153 C 
HETATM   47  C   UNK N   1      33.884  10.438  13.077  0.00  0.00     0.153 C 
HETATM   48  C   UNK N   1      38.231   7.721  12.129  0.00  0.00     0.153 C 
HETATM   49  C   UNK N   1      35.202   4.947  14.742  0.00  0.00     0.042 C 
HETATM   50  C   UNK N   1      37.092   2.568  10.550  0.00  0.00     0.042 C 
HETATM   51  C   UNK N   1      35.524   6.553   7.921  0.00  0.00     0.153 C 
HETATM   52  C   UNK N   1      33.655   9.034   5.498  0.00  0.00     0.153 C 
HETATM   53  C   UNK N   1      35.788  12.658   4.806  0.00  0.00     0.153 C 
HETATM   54  H   UNK N   1      31.741   5.994   4.628  0.00  0.00     0.163 HD
HETATM   55  H   UNK N   1      36.255   4.200   8.691  0.00  0.00     0.163 HD
HETATM   56  H   UNK N   1      33.986   5.276  11.792  0.00  0.00     0.163 HD
HETATM   57  H   UNK N   1      32.686  14.671   4.617  0.00  0.00     0.163 HD
ENDROOT
BRANCH  41  58
HETATM   58  C   UNK N   1      33.550  16.645   7.463  0.00  0.00     0.154 C 
BRANCH  58  59
HETATM   59  C   UNK N   1      32.167  17.325   7.382  0.00  0.00     0.016 C 
HETATM   60  C   UNK N   1      31.697  17.938   8.688  0.00  0.00     0.013 C 
BRANCH  59  61
HETATM   61  C   UNK N   1      31.114  16.374   6.841  0.00  0.00     0.033 C 
BRANCH  61  62
HETATM   62  C   UNK N   1      30.337  17.015   5.729  0.00  0.00    -0.031 C 
HETATM   63  C   UNK N   1      29.096  17.486   5.885  0.00  0.00    -0.035 C 
HETATM   64  C   UNK N   1      28.371  17.415   7.188  0.00  0.00     0.036 C 
ENDBRANCH  61  62
ENDBRANCH  59  61
ENDBRANCH  58  59
BRANCH  58  65
HETATM   65  O   UNK N   1      34.562  17.388   6.847  0.00  0.00    -0.393 OA
HETATM   66  H   UNK N   1      34.779  18.308   6.632  0.00  0.00     0.210 HD
ENDBRANCH  58  65
ENDBRANCH  41  58
BRANCH  37  67
HETATM   67  C   UNK N   1      35.031  15.090  10.899  0.00  0.00     0.009 C 
HETATM   68  C   UNK N   1      33.566  15.504  10.937  0.00  0.00     0.012 C 
HETATM   69  C   UNK N   1      35.975  16.257  10.725  0.00  0.00     0.012 C 
ENDBRANCH  37  67
BRANCH   1  70
HETATM   70  C   UNK N   1      33.617  15.619   2.332  0.00  0.00     0.030 C 
HETATM   71  C   UNK N   1      32.809  16.672   3.063  0.00  0.00     0.007 C 
ENDBRANCH   1  70
BRANCH  33  72
HETATM   72  C   UNK N   1      35.233  12.954  13.751  0.00  0.00     0.039 C 
BRANCH  72  73
HETATM   73  C   UNK N   1      36.200  12.633  14.875  0.00  0.00    -0.020 C 
HETATM   74  C   UNK N   1      36.929  13.900  15.275  0.00  0.00     0.009 C 
HETATM   75  C   UNK N   1      35.407  12.148  16.071  0.00  0.00     0.009 C 
ENDBRANCH  72  73
ENDBRANCH  33  72
BRANCH  29  76
HETATM   76  C   UNK N   1      35.690   8.567  14.375  0.00  0.00     0.039 C 
BRANCH  76  77
HETATM   77  C   UNK N   1      36.991   8.383  15.167  0.00  0.00    -0.020 C 
HETATM   78  C   UNK N   1      37.828   9.646  15.247  0.00  0.00     0.009 C 
HETATM   79  C   UNK N   1      36.663   7.921  16.566  0.00  0.00     0.009 C 
ENDBRANCH  76  77
ENDBRANCH  29  76
BRANCH   9  80
HETATM   80  C   UNK N   1      31.728   8.769   2.126  0.00  0.00     0.013 C 
HETATM   81  C   UNK N   1      32.332   7.861   1.039  0.00  0.00     0.012 C 
BRANCH  80  82
HETATM   82  C   UNK N   1      30.227   8.918   1.877  0.00  0.00     0.002 C 
HETATM   83  C   UNK N   1      29.907   9.933   0.781  0.00  0.00     0.005 C 
ENDBRANCH  80  82
ENDBRANCH   9  80
BRANCH  13  84
HETATM   84  C   UNK N   1      34.208   4.164   3.854  0.00  0.00     0.009 C 
HETATM   85  C   UNK N   1      33.154   3.869   2.807  0.00  0.00     0.012 C 
HETATM   86  C   UNK N   1      35.525   4.499   3.184  0.00  0.00     0.012 C 
ENDBRANCH  13  84
BRANCH  17  87
HETATM   87  C   UNK N   1      34.631   3.284   6.923  0.00  0.00     0.039 C 
BRANCH  87  88
HETATM   88  C   UNK N   1      33.822   2.006   6.975  0.00  0.00    -0.020 C 
HETATM   89  C   UNK N   1      32.386   2.387   6.679  0.00  0.00     0.009 C 
HETATM   90  C   UNK N   1      34.282   1.013   5.928  0.00  0.00     0.009 C 
ENDBRANCH  87  88
ENDBRANCH  17  87
TORSDOF 16
ENDMDL
MODEL 7
REMARK VINA RESULT:      -6.4      5.150      7.977
REMARK  16 active torsions:
REMARK  status: ('A' for Active; 'I' for Inactive)
REMARK    1  A    between atoms: C_3  and  C_2 
REMARK    2  A    between atoms: C_11  and  C_80 
REMARK    3  A    between atoms: C_15  and  C_77 
REMARK    4  A    between atoms: C_19  and  C_72 
REMARK    5  A    between atoms: C_31  and  C_65 
REMARK    6  A    between atoms: C_35  and  C_60 
REMARK    7  A    between atoms: C_39  and  C_56 
REMARK    8  A    between atoms: C_43  and  C_47 
REMARK    9  A    between atoms: C_47  and  C_48 
REMARK   10  A    between atoms: C_47  and  O_54 
REMARK   11  A    between atoms: C_48  and  C_50 
REMARK   12  A    between atoms: C_50  and  C_51 
REMARK   13  A    between atoms: C_60  and  C_61 
REMARK   14  A    between atoms: C_65  and  C_66 
REMARK   15  A    between atoms: C_72  and  C_73 
REMARK   16  A    between atoms: C_80  and  C_82 
ROOT
HETATM    1  C   UNK N   1      29.654  18.117   7.110  0.00  0.00     0.176 C 
HETATM    2  C   UNK N   1      28.446  17.574   6.417  0.00  0.00     0.242 C 
HETATM    3  O   UNK N   1      27.342  17.742   6.920  0.00  0.00    -0.271 OA
HETATM    4  N   UNK N   1      28.586  16.815   5.286  0.00  0.00    -0.346 N 
HETATM    5  C   UNK N   1      27.504  16.043   4.784  0.00  0.00     0.228 C 
HETATM    6  C   UNK N   1      27.032  14.990   5.760  0.00  0.00     0.238 C 
HETATM    7  O   UNK N   1      26.694  15.313   6.888  0.00  0.00    -0.272 OA
HETATM    8  N   UNK N   1      26.631  13.808   5.253  0.00  0.00    -0.341 N 
HETATM    9  C   UNK N   1      25.226  13.369   5.428  0.00  0.00     0.182 C 
HETATM   10  C   UNK N   1      24.683  13.187   4.043  0.00  0.00     0.241 C 
HETATM   11  O   UNK N   1      24.652  14.152   3.291  0.00  0.00    -0.271 OA
HETATM   12  N   UNK N   1      24.493  11.929   3.575  0.00  0.00    -0.346 N 
HETATM   13  C   UNK N   1      24.517  11.601   2.163  0.00  0.00     0.180 C 
HETATM   14  C   UNK N   1      25.890  11.917   1.596  0.00  0.00     0.243 C 
HETATM   15  O   UNK N   1      26.284  13.074   1.563  0.00  0.00    -0.271 OA
HETATM   16  N   UNK N   1      26.711  10.909   1.182  0.00  0.00    -0.341 N 
HETATM   17  C   UNK N   1      26.170   9.557   1.008  0.00  0.00     0.179 C 
HETATM   18  C   UNK N   1      27.173   8.617   0.406  0.00  0.00     0.241 C 
HETATM   19  O   UNK N   1      27.488   7.586   0.978  0.00  0.00    -0.271 OA
HETATM   20  N   UNK N   1      27.648   8.935  -0.824  0.00  0.00    -0.346 N 
HETATM   21  C   UNK N   1      28.520   8.213  -1.712  0.00  0.00     0.172 C 
HETATM   22  C   UNK N   1      29.148   6.938  -1.224  0.00  0.00     0.240 C 
HETATM   23  O   UNK N   1      29.198   5.972  -1.971  0.00  0.00    -0.271 OA
HETATM   24  N   UNK N   1      30.002   7.028  -0.180  0.00  0.00    -0.346 N 
HETATM   25  C   UNK N   1      31.428   6.942  -0.381  0.00  0.00     0.172 C 
HETATM   26  C   UNK N   1      31.810   8.137  -1.232  0.00  0.00     0.242 C 
HETATM   27  O   UNK N   1      31.480   8.167  -2.407  0.00  0.00    -0.271 OA
HETATM   28  N   UNK N   1      32.414   9.210  -0.655  0.00  0.00    -0.341 N 
HETATM   29  C   UNK N   1      32.917   9.093   0.714  0.00  0.00     0.179 C 
HETATM   30  C   UNK N   1      33.456  10.335   1.394  0.00  0.00     0.243 C 
HETATM   31  O   UNK N   1      33.440  11.399   0.792  0.00  0.00    -0.271 OA
HETATM   32  N   UNK N   1      34.040  10.238   2.636  0.00  0.00    -0.341 N 
HETATM   33  C   UNK N   1      34.921  11.241   3.232  0.00  0.00     0.179 C 
HETATM   34  C   UNK N   1      34.992  12.595   2.543  0.00  0.00     0.243 C 
HETATM   35  O   UNK N   1      35.451  12.689   1.415  0.00  0.00    -0.271 OA
HETATM   36  N   UNK N   1      34.506  13.692   3.183  0.00  0.00    -0.341 N 
HETATM   37  C   UNK N   1      34.226  13.616   4.615  0.00  0.00     0.182 C 
HETATM   38  C   UNK N   1      33.479  14.756   5.239  0.00  0.00     0.243 C 
HETATM   39  O   UNK N   1      33.787  15.899   4.940  0.00  0.00    -0.271 OA
HETATM   40  N   UNK N   1      32.687  14.508   6.329  0.00  0.00    -0.339 N 
HETATM   41  C   UNK N   1      32.398  15.522   7.335  0.00  0.00     0.207 C 
HETATM   42  C   UNK N   1      31.596  16.688   6.871  0.00  0.00     0.243 C 
HETATM   43  O   UNK N   1      32.013  17.417   5.983  0.00  0.00    -0.271 OA
HETATM   44  N   UNK N   1      30.436  16.971   7.489  0.00  0.00    -0.346 N 
HETATM   45  C   UNK N   1      32.311  13.148   6.650  0.00  0.00     0.153 C 
HETATM   46  C   UNK N   1      34.388  14.941   2.452  0.00  0.00     0.153 C 
HETATM   47  C   UNK N   1      33.836   9.030   3.416  0.00  0.00     0.153 C 
HETATM   48  C   UNK N   1      32.604  10.406  -1.459  0.00  0.00     0.153 C 
HETATM   49  C   UNK N   1      31.892   5.616  -0.967  0.00  0.00     0.042 C 
HETATM   50  C   UNK N   1      27.870   8.101  -3.076  0.00  0.00     0.042 C 
HETATM   51  C   UNK N   1      28.091  11.222   0.856  0.00  0.00     0.153 C 
HETATM   52  C   UNK N   1      27.419  13.239   4.173  0.00  0.00     0.153 C 
HETATM   53  C   UNK N   1      29.813  16.746   4.540  0.00  0.00     0.153 C 
HETATM   54  H   UNK N   1      24.331  11.207   4.223  0.00  0.00     0.163 HD
HETATM   55  H   UNK N   1      27.344   9.805  -1.168  0.00  0.00     0.163 HD
HETATM   56  H   UNK N   1      29.646   7.155   0.729  0.00  0.00     0.163 HD
HETATM   57  H   UNK N   1      30.116  16.385   8.213  0.00  0.00     0.163 HD
ENDROOT
BRANCH  41  58
HETATM   58  C   UNK N   1      33.660  15.982   8.087  0.00  0.00     0.154 C 
BRANCH  58  59
HETATM   59  C   UNK N   1      34.212  14.976   9.118  0.00  0.00     0.016 C 
HETATM   60  C   UNK N   1      33.441  14.937  10.425  0.00  0.00     0.013 C 
BRANCH  59  61
HETATM   61  C   UNK N   1      35.688  15.212   9.388  0.00  0.00     0.033 C 
BRANCH  61  62
HETATM   62  C   UNK N   1      36.233  14.175  10.324  0.00  0.00    -0.031 C 
HETATM   63  C   UNK N   1      37.391  13.543  10.116  0.00  0.00    -0.035 C 
HETATM   64  C   UNK N   1      38.249  13.816   8.925  0.00  0.00     0.036 C 
ENDBRANCH  61  62
ENDBRANCH  59  61
ENDBRANCH  58  59
BRANCH  58  65
HETATM   65  O   UNK N   1      33.484  17.265   8.613  0.00  0.00    -0.393 OA
HETATM   66  H   UNK N   1      33.856  18.157   8.531  0.00  0.00     0.210 HD
ENDBRANCH  58  65
ENDBRANCH  41  58
BRANCH  37  67
HETATM   67  C   UNK N   1      35.547  13.589   5.416  0.00  0.00     0.009 C 
HETATM   68  C   UNK N   1      35.561  12.658   6.621  0.00  0.00     0.012 C 
HETATM   69  C   UNK N   1      36.199  14.924   5.688  0.00  0.00     0.012 C 
ENDBRANCH  37  67
BRANCH   1  70
HETATM   70  C   UNK N   1      29.328  18.903   8.375  0.00  0.00     0.030 C 
HETATM   71  C   UNK N   1      29.685  18.107   9.613  0.00  0.00     0.007 C 
ENDBRANCH   1  70
BRANCH  33  72
HETATM   72  C   UNK N   1      36.294  10.624   3.575  0.00  0.00     0.039 C 
BRANCH  72  73
HETATM   73  C   UNK N   1      37.501  11.538   3.482  0.00  0.00    -0.020 C 
HETATM   74  C   UNK N   1      38.344  11.371   4.730  0.00  0.00     0.009 C 
HETATM   75  C   UNK N   1      38.336  11.117   2.289  0.00  0.00     0.009 C 
ENDBRANCH  72  73
ENDBRANCH  33  72
BRANCH  29  76
HETATM   76  C   UNK N   1      34.069   8.066   0.685  0.00  0.00     0.039 C 
BRANCH  76  77
HETATM   77  C   UNK N   1      35.260   8.512  -0.174  0.00  0.00    -0.020 C 
HETATM   78  C   UNK N   1      36.578   8.509   0.579  0.00  0.00     0.009 C 
HETATM   79  C   UNK N   1      35.377   7.607  -1.375  0.00  0.00     0.009 C 
ENDBRANCH  76  77
ENDBRANCH  29  76
BRANCH   9  80
HETATM   80  C   UNK N   1      24.295  14.379   6.198  0.00  0.00     0.013 C 
HETATM   81  C   UNK N   1      23.221  15.077   5.345  0.00  0.00     0.012 C 
BRANCH  80  82
HETATM   82  C   UNK N   1      23.640  13.792   7.447  0.00  0.00     0.002 C 
HETATM   83  C   UNK N   1      24.634  13.063   8.350  0.00  0.00     0.005 C 
ENDBRANCH  80  82
ENDBRANCH   9  80
BRANCH  13  84
HETATM   84  C   UNK N   1      23.279  11.990   1.339  0.00  0.00     0.009 C 
HETATM   85  C   UNK N   1      22.066  12.091   2.242  0.00  0.00     0.012 C 
HETATM   86  C   UNK N   1      23.401  13.242   0.494  0.00  0.00     0.012 C 
ENDBRANCH  13  84
BRANCH  17  87
HETATM   87  C   UNK N   1      25.043   9.671  -0.031  0.00  0.00     0.039 C 
BRANCH  87  88
HETATM   88  C   UNK N   1      24.072   8.513  -0.112  0.00  0.00    -0.020 C 
HETATM   89  C   UNK N   1      23.637   8.209   1.306  0.00  0.00     0.009 C 
HETATM   90  C   UNK N   1      22.846   8.870  -0.927  0.00  0.00     0.009 C 
ENDBRANCH  87  88
ENDBRANCH  17  87
TORSDOF 16
ENDMDL
MODEL 8
REMARK VINA RESULT:      -6.3      2.600      7.701
REMARK  16 active torsions:
REMARK  status: ('A' for Active; 'I' for Inactive)
REMARK    1  A    between atoms: C_3  and  C_2 
REMARK    2  A    between atoms: C_11  and  C_80 
REMARK    3  A    between atoms: C_15  and  C_77 
REMARK    4  A    between atoms: C_19  and  C_72 
REMARK    5  A    between atoms: C_31  and  C_65 
REMARK    6  A    between atoms: C_35  and  C_60 
REMARK    7  A    between atoms: C_39  and  C_56 
REMARK    8  A    between atoms: C_43  and  C_47 
REMARK    9  A    between atoms: C_47  and  C_48 
REMARK   10  A    between atoms: C_47  and  O_54 
REMARK   11  A    between atoms: C_48  and  C_50 
REMARK   12  A    between atoms: C_50  and  C_51 
REMARK   13  A    between atoms: C_60  and  C_61 
REMARK   14  A    between atoms: C_65  and  C_66 
REMARK   15  A    between atoms: C_72  and  C_73 
REMARK   16  A    between atoms: C_80  and  C_82 
ROOT
HETATM    1  C   UNK N   1      36.072   5.123  12.359  0.00  0.00     0.176 C 
HETATM    2  C   UNK N   1      36.336   6.593  12.370  0.00  0.00     0.242 C 
HETATM    3  O   UNK N   1      36.597   7.147  13.430  0.00  0.00    -0.271 OA
HETATM    4  N   UNK N   1      36.192   7.326  11.221  0.00  0.00    -0.346 N 
HETATM    5  C   UNK N   1      36.138   8.745  11.259  0.00  0.00     0.228 C 
HETATM    6  C   UNK N   1      34.968   9.266  12.062  0.00  0.00     0.238 C 
HETATM    7  O   UNK N   1      34.818   8.911  13.221  0.00  0.00    -0.272 OA
HETATM    8  N   UNK N   1      34.359  10.383  11.618  0.00  0.00    -0.341 N 
HETATM    9  C   UNK N   1      34.368  11.609  12.452  0.00  0.00     0.182 C 
HETATM   10  C   UNK N   1      35.038  12.660  11.619  0.00  0.00     0.241 C 
HETATM   11  O   UNK N   1      36.192  12.478  11.260  0.00  0.00    -0.271 OA
HETATM   12  N   UNK N   1      34.280  13.640  11.070  0.00  0.00    -0.346 N 
HETATM   13  C   UNK N   1      34.658  14.347   9.863  0.00  0.00     0.180 C 
HETATM   14  C   UNK N   1      34.740  13.364   8.709  0.00  0.00     0.243 C 
HETATM   15  O   UNK N   1      35.583  12.477   8.722  0.00  0.00    -0.271 OA
HETATM   16  N   UNK N   1      33.838  13.426   7.687  0.00  0.00    -0.341 N 
HETATM   17  C   UNK N   1      32.979  14.606   7.549  0.00  0.00     0.179 C 
HETATM   18  C   UNK N   1      32.162  14.569   6.291  0.00  0.00     0.241 C 
HETATM   19  O   UNK N   1      30.944  14.639   6.332  0.00  0.00    -0.271 OA
HETATM   20  N   UNK N   1      32.843  14.527   5.119  0.00  0.00    -0.346 N 
HETATM   21  C   UNK N   1      32.380  14.587   3.758  0.00  0.00     0.172 C 
HETATM   22  C   UNK N   1      30.900  14.580   3.501  0.00  0.00     0.240 C 
HETATM   23  O   UNK N   1      30.435  15.337   2.661  0.00  0.00    -0.271 OA
HETATM   24  N   UNK N   1      30.213  13.475   3.866  0.00  0.00    -0.346 N 
HETATM   25  C   UNK N   1      29.776  12.516   2.881  0.00  0.00     0.172 C 
HETATM   26  C   UNK N   1      31.034  11.941   2.261  0.00  0.00     0.242 C 
HETATM   27  O   UNK N   1      31.712  12.637   1.523  0.00  0.00    -0.271 OA
HETATM   28  N   UNK N   1      31.456  10.699   2.620  0.00  0.00    -0.341 N 
HETATM   29  C   UNK N   1      30.560   9.839   3.395  0.00  0.00     0.179 C 
HETATM   30  C   UNK N   1      31.094   8.519   3.911  0.00  0.00     0.243 C 
HETATM   31  O   UNK N   1      32.256   8.215   3.684  0.00  0.00    -0.271 OA
HETATM   32  N   UNK N   1      30.247   7.637   4.544  0.00  0.00    -0.341 N 
HETATM   33  C   UNK N   1      30.513   6.214   4.745  0.00  0.00     0.179 C 
HETATM   34  C   UNK N   1      31.927   5.729   4.467  0.00  0.00     0.243 C 
HETATM   35  O   UNK N   1      32.382   5.775   3.334  0.00  0.00    -0.271 OA
HETATM   36  N   UNK N   1      32.690   5.277   5.498  0.00  0.00    -0.341 N 
HETATM   37  C   UNK N   1      32.051   4.966   6.775  0.00  0.00     0.182 C 
HETATM   38  C   UNK N   1      32.940   4.697   7.950  0.00  0.00     0.243 C 
HETATM   39  O   UNK N   1      33.923   3.988   7.798  0.00  0.00    -0.271 OA
HETATM   40  N   UNK N   1      32.484   4.998   9.206  0.00  0.00    -0.339 N 
HETATM   41  C   UNK N   1      32.945   4.297  10.397  0.00  0.00     0.207 C 
HETATM   42  C   UNK N   1      34.380   4.483  10.747  0.00  0.00     0.243 C 
HETATM   43  O   UNK N   1      35.260   4.137   9.972  0.00  0.00    -0.271 OA
HETATM   44  N   UNK N   1      34.699   4.974  11.958  0.00  0.00    -0.346 N 
HETATM   45  C   UNK N   1      31.335   5.863   9.365  0.00  0.00     0.153 C 
HETATM   46  C   UNK N   1      34.097   5.006   5.268  0.00  0.00     0.153 C 
HETATM   47  C   UNK N   1      28.954   8.112   5.004  0.00  0.00     0.153 C 
HETATM   48  C   UNK N   1      32.754  10.250   2.147  0.00  0.00     0.153 C 
HETATM   49  C   UNK N   1      28.806  13.082   1.853  0.00  0.00     0.042 C 
HETATM   50  C   UNK N   1      33.132  15.675   3.018  0.00  0.00     0.042 C 
HETATM   51  C   UNK N   1      33.803  12.344   6.719  0.00  0.00     0.153 C 
HETATM   52  C   UNK N   1      34.139  10.504  10.187  0.00  0.00     0.153 C 
HETATM   53  C   UNK N   1      36.088   6.723   9.920  0.00  0.00     0.153 C 
HETATM   54  H   UNK N   1      33.435  13.883  11.512  0.00  0.00     0.163 HD
HETATM   55  H   UNK N   1      33.818  14.441   5.216  0.00  0.00     0.163 HD
HETATM   56  H   UNK N   1      30.009  13.323   4.817  0.00  0.00     0.163 HD
HETATM   57  H   UNK N   1      33.983   5.237  12.579  0.00  0.00     0.163 HD
ENDROOT
BRANCH  41  58
HETATM   58  C   UNK N   1      32.567   2.804  10.384  0.00  0.00     0.154 C 
BRANCH  58  59
HETATM   59  C   UNK N   1      31.393   2.417  11.306  0.00  0.00     0.016 C 
HETATM   60  C   UNK N   1      30.021   2.637  10.696  0.00  0.00     0.013 C 
BRANCH  59  61
HETATM   61  C   UNK N   1      31.488   3.121  12.649  0.00  0.00     0.033 C 
BRANCH  61  62
HETATM   62  C   UNK N   1      30.305   4.016  12.867  0.00  0.00    -0.031 C 
HETATM   63  C   UNK N   1      29.911   4.420  14.079  0.00  0.00    -0.035 C 
HETATM   64  C   UNK N   1      30.619   4.012  15.327  0.00  0.00     0.036 C 
ENDBRANCH  61  62
ENDBRANCH  59  61
ENDBRANCH  58  59
BRANCH  58  65
HETATM   65  O   UNK N   1      33.699   2.005  10.572  0.00  0.00    -0.393 OA
HETATM   66  H   UNK N   1      34.455   1.921  11.174  0.00  0.00     0.210 HD
ENDBRANCH  58  65
ENDBRANCH  41  58
BRANCH  37  67
HETATM   67  C   UNK N   1      31.230   3.662   6.656  0.00  0.00     0.009 C 
HETATM   68  C   UNK N   1      31.518   2.821   5.420  0.00  0.00     0.012 C 
HETATM   69  C   UNK N   1      29.759   3.759   6.981  0.00  0.00     0.012 C 
ENDBRANCH  37  67
BRANCH   1  70
HETATM   70  C   UNK N   1      36.236   4.465  13.725  0.00  0.00     0.030 C 
HETATM   71  C   UNK N   1      34.889   4.223  14.374  0.00  0.00     0.007 C 
ENDBRANCH   1  70
BRANCH  33  72
HETATM   72  C   UNK N   1      29.402   5.357   4.102  0.00  0.00     0.039 C 
BRANCH  72  73
HETATM   73  C   UNK N   1      29.263   5.432   2.593  0.00  0.00    -0.020 C 
HETATM   74  C   UNK N   1      29.564   4.069   2.001  0.00  0.00     0.009 C 
HETATM   75  C   UNK N   1      27.829   5.785   2.257  0.00  0.00     0.009 C 
ENDBRANCH  72  73
ENDBRANCH  33  72
BRANCH  29  76
HETATM   76  C   UNK N   1      29.356   9.508   2.487  0.00  0.00     0.039 C 
BRANCH  76  77
HETATM   77  C   UNK N   1      29.724   9.409   1.001  0.00  0.00    -0.020 C 
HETATM   78  C   UNK N   1      30.193   8.026   0.589  0.00  0.00     0.009 C 
HETATM   79  C   UNK N   1      28.528   9.793   0.164  0.00  0.00     0.009 C 
ENDBRANCH  76  77
ENDBRANCH  29  76
BRANCH   9  80
HETATM   80  C   UNK N   1      35.141  11.489  13.818  0.00  0.00     0.013 C 
HETATM   81  C   UNK N   1      36.418  12.340  13.937  0.00  0.00     0.012 C 
BRANCH  80  82
HETATM   82  C   UNK N   1      34.268  11.720  15.050  0.00  0.00     0.002 C 
HETATM   83  C   UNK N   1      34.981  12.522  16.138  0.00  0.00     0.005 C 
ENDBRANCH  80  82
ENDBRANCH   9  80
BRANCH  13  84
HETATM   84  C   UNK N   1      35.761  15.409   9.998  0.00  0.00     0.009 C 
HETATM   85  C   UNK N   1      35.460  16.323  11.167  0.00  0.00     0.012 C 
HETATM   86  C   UNK N   1      37.183  14.892  10.097  0.00  0.00     0.012 C 
ENDBRANCH  13  84
BRANCH  17  87
HETATM   87  C   UNK N   1      33.919  15.811   7.387  0.00  0.00     0.039 C 
BRANCH  87  88
HETATM   88  C   UNK N   1      33.306  17.183   7.569  0.00  0.00    -0.020 C 
HETATM   89  C   UNK N   1      32.305  17.065   8.700  0.00  0.00     0.009 C 
HETATM   90  C   UNK N   1      34.348  18.212   7.954  0.00  0.00     0.009 C 
ENDBRANCH  87  88
ENDBRANCH  17  87
TORSDOF 16
ENDMDL
MODEL 9
REMARK VINA RESULT:      -6.1      6.037     10.632
REMARK  16 active torsions:
REMARK  status: ('A' for Active; 'I' for Inactive)
REMARK    1  A    between atoms: C_3  and  C_2 
REMARK    2  A    between atoms: C_11  and  C_80 
REMARK    3  A    between atoms: C_15  and  C_77 
REMARK    4  A    between atoms: C_19  and  C_72 
REMARK    5  A    between atoms: C_31  and  C_65 
REMARK    6  A    between atoms: C_35  and  C_60 
REMARK    7  A    between atoms: C_39  and  C_56 
REMARK    8  A    between atoms: C_43  and  C_47 
REMARK    9  A    between atoms: C_47  and  C_48 
REMARK   10  A    between atoms: C_47  and  O_54 
REMARK   11  A    between atoms: C_48  and  C_50 
REMARK   12  A    between atoms: C_50  and  C_51 
REMARK   13  A    between atoms: C_60  and  C_61 
REMARK   14  A    between atoms: C_65  and  C_66 
REMARK   15  A    between atoms: C_72  and  C_73 
REMARK   16  A    between atoms: C_80  and  C_82 
ROOT
HETATM    1  C   UNK N   1      33.611  12.988   4.205  0.00  0.00     0.176 C 
HETATM    2  C   UNK N   1      32.746  14.201   4.321  0.00  0.00     0.242 C 
HETATM    3  O   UNK N   1      33.087  15.110   5.068  0.00  0.00    -0.271 OA
HETATM    4  N   UNK N   1      31.541  14.250   3.672  0.00  0.00    -0.346 N 
HETATM    5  C   UNK N   1      30.574  15.239   3.998  0.00  0.00     0.228 C 
HETATM    6  C   UNK N   1      30.107  15.153   5.433  0.00  0.00     0.238 C 
HETATM    7  O   UNK N   1      30.921  15.194   6.342  0.00  0.00    -0.272 OA
HETATM    8  N   UNK N   1      28.810  15.423   5.681  0.00  0.00    -0.341 N 
HETATM    9  C   UNK N   1      28.448  16.579   6.536  0.00  0.00     0.182 C 
HETATM   10  C   UNK N   1      27.592  17.463   5.680  0.00  0.00     0.241 C 
HETATM   11  O   UNK N   1      28.069  17.929   4.654  0.00  0.00    -0.271 OA
HETATM   12  N   UNK N   1      26.259  17.508   5.915  0.00  0.00    -0.346 N 
HETATM   13  C   UNK N   1      25.288  17.844   4.892  0.00  0.00     0.180 C 
HETATM   14  C   UNK N   1      25.351  16.810   3.781  0.00  0.00     0.243 C 
HETATM   15  O   UNK N   1      26.364  16.705   3.102  0.00  0.00    -0.271 OA
HETATM   16  N   UNK N   1      24.307  15.956   3.577  0.00  0.00    -0.341 N 
HETATM   17  C   UNK N   1      23.018  16.217   4.224  0.00  0.00     0.179 C 
HETATM   18  C   UNK N   1      21.951  15.266   3.769  0.00  0.00     0.241 C 
HETATM   19  O   UNK N   1      21.342  14.576   4.571  0.00  0.00    -0.271 OA
HETATM   20  N   UNK N   1      21.653  15.267   2.446  0.00  0.00    -0.346 N 
HETATM   21  C   UNK N   1      20.632  14.570   1.710  0.00  0.00     0.172 C 
HETATM   22  C   UNK N   1      19.784  13.563   2.434  0.00  0.00     0.240 C 
HETATM   23  O   UNK N   1      18.580  13.534   2.224  0.00  0.00    -0.271 OA
HETATM   24  N   UNK N   1      20.407  12.474   2.934  0.00  0.00    -0.346 N 
HETATM   25  C   UNK N   1      20.299  11.193   2.280  0.00  0.00     0.172 C 
HETATM   26  C   UNK N   1      20.947  11.356   0.920  0.00  0.00     0.242 C 
HETATM   27  O   UNK N   1      20.389  12.025   0.065  0.00  0.00    -0.271 OA
HETATM   28  N   UNK N   1      22.192  10.853   0.701  0.00  0.00    -0.341 N 
HETATM   29  C   UNK N   1      22.776   9.945   1.689  0.00  0.00     0.179 C 
HETATM   30  C   UNK N   1      24.215   9.508   1.505  0.00  0.00     0.243 C 
HETATM   31  O   UNK N   1      24.852   9.936   0.553  0.00  0.00    -0.271 OA
HETATM   32  N   UNK N   1      24.759   8.568   2.351  0.00  0.00    -0.341 N 
HETATM   33  C   UNK N   1      25.964   7.787   2.075  0.00  0.00     0.179 C 
HETATM   34  C   UNK N   1      26.816   8.224   0.893  0.00  0.00     0.243 C 
HETATM   35  O   UNK N   1      26.372   8.161  -0.243  0.00  0.00    -0.271 OA
HETATM   36  N   UNK N   1      28.063   8.718   1.119  0.00  0.00    -0.341 N 
HETATM   37  C   UNK N   1      28.678   8.527   2.431  0.00  0.00     0.182 C 
HETATM   38  C   UNK N   1      29.942   9.278   2.722  0.00  0.00     0.243 C 
HETATM   39  O   UNK N   1      30.809   9.331   1.864  0.00  0.00    -0.271 OA
HETATM   40  N   UNK N   1      30.218   9.629   4.017  0.00  0.00    -0.339 N 
HETATM   41  C   UNK N   1      31.578   9.811   4.507  0.00  0.00     0.207 C 
HETATM   42  C   UNK N   1      32.335  10.948   3.914  0.00  0.00     0.243 C 
HETATM   43  O   UNK N   1      32.560  10.989   2.713  0.00  0.00    -0.271 OA
HETATM   44  N   UNK N   1      32.830  11.899   4.727  0.00  0.00    -0.346 N 
HETATM   45  C   UNK N   1      29.169   9.586   5.013  0.00  0.00     0.153 C 
HETATM   46  C   UNK N   1      28.793   9.319   0.019  0.00  0.00     0.153 C 
HETATM   47  C   UNK N   1      24.074   8.259   3.593  0.00  0.00     0.153 C 
HETATM   48  C   UNK N   1      22.855  11.179  -0.550  0.00  0.00     0.153 C 
HETATM   49  C   UNK N   1      18.878  10.653   2.206  0.00  0.00     0.042 C 
HETATM   50  C   UNK N   1      19.843  15.563   0.880  0.00  0.00     0.042 C 
HETATM   51  C   UNK N   1      24.485  14.842   2.662  0.00  0.00     0.153 C 
HETATM   52  C   UNK N   1      27.825  14.896   4.751  0.00  0.00     0.153 C 
HETATM   53  C   UNK N   1      31.175  13.323   2.637  0.00  0.00     0.153 C 
HETATM   54  H   UNK N   1      25.935  17.306   6.822  0.00  0.00     0.163 HD
HETATM   55  H   UNK N   1      22.233  15.842   1.897  0.00  0.00     0.163 HD
HETATM   56  H   UNK N   1      20.942  12.556   3.757  0.00  0.00     0.163 HD
HETATM   57  H   UNK N   1      32.654  11.850   5.695  0.00  0.00     0.163 HD
ENDROOT
BRANCH  41  58
HETATM   58  C   UNK N   1      32.402   8.512   4.456  0.00  0.00     0.154 C 
BRANCH  58  59
HETATM   59  C   UNK N   1      32.681   7.858   5.825  0.00  0.00     0.016 C 
HETATM   60  C   UNK N   1      31.917   6.570   6.069  0.00  0.00     0.013 C 
BRANCH  59  61
HETATM   61  C   UNK N   1      32.439   8.834   6.964  0.00  0.00     0.033 C 
BRANCH  61  62
HETATM   62  C   UNK N   1      31.497   8.251   7.975  0.00  0.00    -0.031 C 
HETATM   63  C   UNK N   1      31.537   8.565   9.273  0.00  0.00    -0.035 C 
HETATM   64  C   UNK N   1      32.530   9.529   9.833  0.00  0.00     0.036 C 
ENDBRANCH  61  62
ENDBRANCH  59  61
ENDBRANCH  58  59
BRANCH  58  65
HETATM   65  O   UNK N   1      33.556   8.686   3.686  0.00  0.00    -0.393 OA
HETATM   66  H   UNK N   1      33.851   9.149   2.887  0.00  0.00     0.210 HD
ENDBRANCH  58  65
ENDBRANCH  41  58
BRANCH  37  67
HETATM   67  C   UNK N   1      29.103   7.053   2.611  0.00  0.00     0.009 C 
HETATM   68  C   UNK N   1      28.889   6.478   4.005  0.00  0.00     0.012 C 
HETATM   69  C   UNK N   1      30.422   6.650   1.997  0.00  0.00     0.012 C 
ENDBRANCH  37  67
BRANCH   1  70
HETATM   70  C   UNK N   1      34.897  13.077   5.021  0.00  0.00     0.030 C 
HETATM   71  C   UNK N   1      36.072  13.443   4.139  0.00  0.00     0.007 C 
ENDBRANCH   1  70
BRANCH  33  72
HETATM   72  C   UNK N   1      25.654   6.276   2.118  0.00  0.00     0.039 C 
BRANCH  72  73
HETATM   73  C   UNK N   1      26.307   5.409   1.057  0.00  0.00    -0.020 C 
HETATM   74  C   UNK N   1      27.050   4.275   1.735  0.00  0.00     0.009 C 
HETATM   75  C   UNK N   1      25.222   4.809   0.188  0.00  0.00     0.009 C 
ENDBRANCH  72  73
ENDBRANCH  33  72
BRANCH  29  76
HETATM   76  C   UNK N   1      21.918   8.662   1.686  0.00  0.00     0.039 C 
BRANCH  76  77
HETATM   77  C   UNK N   1      21.515   8.203   0.279  0.00  0.00    -0.020 C 
HETATM   78  C   UNK N   1      22.445   7.151  -0.298  0.00  0.00     0.009 C 
HETATM   79  C   UNK N   1      20.111   7.651   0.316  0.00  0.00     0.009 C 
ENDBRANCH  76  77
ENDBRANCH  29  76
BRANCH   9  80
HETATM   80  C   UNK N   1      29.661  17.427   7.071  0.00  0.00     0.013 C 
HETATM   81  C   UNK N   1      30.389  18.285   6.020  0.00  0.00     0.012 C 
BRANCH  80  82
HETATM   82  C   UNK N   1      29.326  18.296   8.282  0.00  0.00     0.002 C 
HETATM   83  C   UNK N   1      28.519  17.548   9.342  0.00  0.00     0.005 C 
ENDBRANCH  80  82
ENDBRANCH   9  80
BRANCH  13  84
HETATM   84  C   UNK N   1      25.172  19.327   4.504  0.00  0.00     0.009 C 
HETATM   85  C   UNK N   1      25.902  20.185   5.516  0.00  0.00     0.012 C 
HETATM   86  C   UNK N   1      25.614  19.691   3.101  0.00  0.00     0.012 C 
ENDBRANCH  13  84
BRANCH  17  87
HETATM   87  C   UNK N   1      22.562  17.603   3.739  0.00  0.00     0.039 C 
BRANCH  87  88
HETATM   88  C   UNK N   1      21.315  18.173   4.381  0.00  0.00    -0.020 C 
HETATM   89  C   UNK N   1      21.612  18.314   5.859  0.00  0.00     0.009 C 
HETATM   90  C   UNK N   1      20.978  19.540   3.824  0.00  0.00     0.009 C 
ENDBRANCH  87  88
ENDBRANCH  17  87
TORSDOF 16
ENDMDL
