MODEL 1
REMARK VINA RESULT:      -5.5      0.000      0.000
REMARK  4 active torsions:
REMARK  status: ('A' for Active; 'I' for Inactive)
REMARK    1  A    between atoms: C_2  and  C_3 
REMARK    2  A    between atoms: C_2  and  N_10 
REMARK    3  A    between atoms: C_15  and  C_16 
REMARK    4  A    between atoms: C_16  and  O_18 
ROOT
HETATM    1  N   UNK N   1      34.834  15.843   7.581  0.00  0.00    -0.328 N 
HETATM    2  C   UNK N   1      35.143  14.721   8.268  0.00  0.00     0.184 A 
HETATM    3  N   UNK N   1      35.191  14.944   9.596  0.00  0.00    -0.360 N 
ATOM      4  HN  UNK N   1      35.404  14.262  10.325  1.00  0.00     0.166 HD
HETATM    5  C   UNK N   1      34.904  16.246   9.767  0.00  0.00     0.125 A 
HETATM    6  C   UNK N   1      34.678  16.803   8.526  0.00  0.00     0.127 A 
ENDROOT
BRANCH   1   7
HETATM    7  C   UNK N   1      34.712  15.983   6.107  0.00  0.00     0.120 C 
HETATM    8  C   UNK N   1      35.279  14.739   5.433  0.00  0.00     0.038 C 
BRANCH   7   9
HETATM    9  C   UNK N   1      33.308  16.207   5.536  0.00  0.00    -0.035 A 
HETATM   10  C   UNK N   1      32.308  15.256   5.811  0.00  0.00     0.010 A 
HETATM   11  C   UNK N   1      30.993  15.452   5.371  0.00  0.00     0.019 A 
HETATM   12  C   UNK N   1      30.661  16.599   4.646  0.00  0.00     0.006 A 
HETATM   13  C   UNK N   1      31.645  17.541   4.350  0.00  0.00     0.019 A 
HETATM   14  I   UNK N   1      28.679  16.925   4.020  0.00  0.00    -0.045 I 
HETATM   15  C   UNK N   1      32.954  17.346   4.792  0.00  0.00     0.010 A 
ENDBRANCH   7   9
ENDBRANCH   1   7
BRANCH   6  16
HETATM   16  C   UNK N   1      34.333  18.233   8.330  0.00  0.00     0.311 C 
HETATM   17  O   UNK N   1      35.219  19.074   8.413  0.00  0.00    -0.258 OA
BRANCH  16  18
HETATM   18  O   UNK N   1      33.060  18.613   8.066  0.00  0.00    -0.321 OA
HETATM   19  C   UNK N   1      31.975  17.864   8.462  0.00  0.00     0.213 C 
ENDBRANCH  16  18
ENDBRANCH   6  16
TORSDOF 4
ENDMDL
MODEL 2
REMARK VINA RESULT:      -5.5      7.609      9.942
REMARK  4 active torsions:
REMARK  status: ('A' for Active; 'I' for Inactive)
REMARK    1  A    between atoms: C_2  and  C_3 
REMARK    2  A    between atoms: C_2  and  N_10 
REMARK    3  A    between atoms: C_15  and  C_16 
REMARK    4  A    between atoms: C_16  and  O_18 
ROOT
HETATM    1  N   UNK N   1      35.810  11.836  12.755  0.00  0.00    -0.328 N 
HETATM    2  C   UNK N   1      36.590  10.863  12.237  0.00  0.00     0.184 A 
HETATM    3  N   UNK N   1      37.623  11.371  11.535  0.00  0.00    -0.360 N 
ATOM      4  HN  UNK N   1      38.350  10.845  11.048  1.00  0.00     0.166 HD
HETATM    5  C   UNK N   1      37.502  12.708  11.605  0.00  0.00     0.125 A 
HETATM    6  C   UNK N   1      36.387  12.998  12.362  0.00  0.00     0.127 A 
ENDROOT
BRANCH   1   7
HETATM    7  C   UNK N   1      34.577  11.656  13.565  0.00  0.00     0.120 C 
HETATM    8  C   UNK N   1      33.847  10.400  13.101  0.00  0.00     0.038 C 
BRANCH   7   9
HETATM    9  C   UNK N   1      34.744  11.547  15.084  0.00  0.00    -0.035 A 
HETATM   10  C   UNK N   1      34.703  10.272  15.679  0.00  0.00     0.010 A 
HETATM   11  C   UNK N   1      34.920  10.115  17.052  0.00  0.00     0.019 A 
HETATM   12  C   UNK N   1      35.177  11.231  17.853  0.00  0.00     0.006 A 
HETATM   13  C   UNK N   1      35.203  12.503  17.282  0.00  0.00     0.019 A 
HETATM   14  I   UNK N   1      35.551  11.001  19.911  0.00  0.00    -0.045 I 
HETATM   15  C   UNK N   1      34.990  12.657  15.911  0.00  0.00     0.010 A 
ENDBRANCH   7   9
ENDBRANCH   1   7
BRANCH   6  16
HETATM   16  C   UNK N   1      35.942  14.385  12.650  0.00  0.00     0.311 C 
HETATM   17  O   UNK N   1      36.374  14.952  13.645  0.00  0.00    -0.258 OA
BRANCH  16  18
HETATM   18  O   UNK N   1      35.070  15.022  11.832  0.00  0.00    -0.321 OA
HETATM   19  C   UNK N   1      35.412  16.164  11.143  0.00  0.00     0.213 C 
ENDBRANCH  16  18
ENDBRANCH   6  16
TORSDOF 4
ENDMDL
MODEL 3
REMARK VINA RESULT:      -5.1      2.001      2.925
REMARK  4 active torsions:
REMARK  status: ('A' for Active; 'I' for Inactive)
REMARK    1  A    between atoms: C_2  and  C_3 
REMARK    2  A    between atoms: C_2  and  N_10 
REMARK    3  A    between atoms: C_15  and  C_16 
REMARK    4  A    between atoms: C_16  and  O_18 
ROOT
HETATM    1  N   UNK N   1      34.642  15.826   8.090  0.00  0.00    -0.328 N 
HETATM    2  C   UNK N   1      34.898  15.097   6.981  0.00  0.00     0.184 A 
HETATM    3  N   UNK N   1      35.825  14.146   7.211  0.00  0.00    -0.360 N 
ATOM      4  HN  UNK N   1      36.189  13.470   6.538  1.00  0.00     0.166 HD
HETATM    5  C   UNK N   1      36.173  14.268   8.503  0.00  0.00     0.125 A 
HETATM    6  C   UNK N   1      35.442  15.300   9.050  0.00  0.00     0.127 A 
ENDROOT
BRANCH   1   7
HETATM    7  C   UNK N   1      33.698  16.967   8.210  0.00  0.00     0.120 C 
HETATM    8  C   UNK N   1      34.458  18.274   8.022  0.00  0.00     0.038 C 
BRANCH   7   9
HETATM    9  C   UNK N   1      32.503  16.995   7.251  0.00  0.00    -0.035 A 
HETATM   10  C   UNK N   1      31.222  16.717   7.761  0.00  0.00     0.010 A 
HETATM   11  C   UNK N   1      30.091  16.801   6.940  0.00  0.00     0.019 A 
HETATM   12  C   UNK N   1      30.227  17.157   5.595  0.00  0.00     0.006 A 
HETATM   13  C   UNK N   1      31.492  17.417   5.071  0.00  0.00     0.019 A 
HETATM   14  I   UNK N   1      28.529  17.329   4.364  0.00  0.00    -0.045 I 
HETATM   15  C   UNK N   1      32.617  17.338   5.893  0.00  0.00     0.010 A 
ENDBRANCH   7   9
ENDBRANCH   1   7
BRANCH   6  16
HETATM   16  C   UNK N   1      35.568  15.721  10.468  0.00  0.00     0.311 C 
HETATM   17  O   UNK N   1      36.415  16.552  10.767  0.00  0.00    -0.258 OA
BRANCH  16  18
HETATM   18  O   UNK N   1      34.764  15.196  11.425  0.00  0.00    -0.321 OA
HETATM   19  C   UNK N   1      35.018  13.975  12.006  0.00  0.00     0.213 C 
ENDBRANCH  16  18
ENDBRANCH   6  16
TORSDOF 4
ENDMDL
MODEL 4
REMARK VINA RESULT:      -5.1     10.341     12.012
REMARK  4 active torsions:
REMARK  status: ('A' for Active; 'I' for Inactive)
REMARK    1  A    between atoms: C_2  and  C_3 
REMARK    2  A    between atoms: C_2  and  N_10 
REMARK    3  A    between atoms: C_15  and  C_16 
REMARK    4  A    between atoms: C_16  and  O_18 
ROOT
HETATM    1  N   UNK N   1      22.518  12.688  10.449  0.00  0.00    -0.328 N 
HETATM    2  C   UNK N   1      22.351  11.877  11.517  0.00  0.00     0.184 A 
HETATM    3  N   UNK N   1      21.059  11.808  11.896  0.00  0.00    -0.360 N 
ATOM      4  HN  UNK N   1      20.677  11.266  12.671  1.00  0.00     0.166 HD
HETATM    5  C   UNK N   1      20.378  12.596  11.046  0.00  0.00     0.125 A 
HETATM    6  C   UNK N   1      21.274  13.137  10.150  0.00  0.00     0.127 A 
ENDROOT
BRANCH   1   7
HETATM    7  C   UNK N   1      23.798  13.021   9.772  0.00  0.00     0.120 C 
HETATM    8  C   UNK N   1      24.963  12.584  10.652  0.00  0.00     0.038 C 
BRANCH   7   9
HETATM    9  C   UNK N   1      24.033  12.424   8.381  0.00  0.00    -0.035 A 
HETATM   10  C   UNK N   1      24.810  13.148   7.458  0.00  0.00     0.010 A 
HETATM   11  C   UNK N   1      25.111  12.613   6.200  0.00  0.00     0.019 A 
HETATM   12  C   UNK N   1      24.636  11.348   5.845  0.00  0.00     0.006 A 
HETATM   13  C   UNK N   1      23.849  10.626   6.741  0.00  0.00     0.019 A 
HETATM   14  I   UNK N   1      25.122  10.515   3.974  0.00  0.00    -0.045 I 
HETATM   15  C   UNK N   1      23.553  11.160   7.996  0.00  0.00     0.010 A 
ENDBRANCH   7   9
ENDBRANCH   1   7
BRANCH   6  16
HETATM   16  C   UNK N   1      20.872  14.064   9.061  0.00  0.00     0.311 C 
HETATM   17  O   UNK N   1      21.011  15.268   9.227  0.00  0.00    -0.258 OA
BRANCH  16  18
HETATM   18  O   UNK N   1      20.357  13.593   7.900  0.00  0.00    -0.321 OA
HETATM   19  C   UNK N   1      20.992  13.770   6.692  0.00  0.00     0.213 C 
ENDBRANCH  16  18
ENDBRANCH   6  16
TORSDOF 4
ENDMDL
MODEL 5
REMARK VINA RESULT:      -5.1      4.429      6.672
REMARK  4 active torsions:
REMARK  status: ('A' for Active; 'I' for Inactive)
REMARK    1  A    between atoms: C_2  and  C_3 
REMARK    2  A    between atoms: C_2  and  N_10 
REMARK    3  A    between atoms: C_15  and  C_16 
REMARK    4  A    between atoms: C_16  and  O_18 
ROOT
HETATM    1  N   UNK N   1      34.344  15.009   9.023  0.00  0.00    -0.328 N 
HETATM    2  C   UNK N   1      33.360  14.187   9.449  0.00  0.00     0.184 A 
HETATM    3  N   UNK N   1      32.402  14.026   8.514  0.00  0.00    -0.360 N 
ATOM      4  HN  UNK N   1      31.558  13.458   8.592  1.00  0.00     0.166 HD
HETATM    5  C   UNK N   1      32.783  14.767   7.458  0.00  0.00     0.125 A 
HETATM    6  C   UNK N   1      33.983  15.370   7.767  0.00  0.00     0.127 A 
ENDROOT
BRANCH   1   7
HETATM    7  C   UNK N   1      35.547  15.430   9.786  0.00  0.00     0.120 C 
HETATM    8  C   UNK N   1      35.241  16.721  10.539  0.00  0.00     0.038 C 
BRANCH   7   9
HETATM    9  C   UNK N   1      36.118  14.438  10.803  0.00  0.00    -0.035 A 
HETATM   10  C   UNK N   1      35.819  14.620  12.166  0.00  0.00     0.010 A 
HETATM   11  C   UNK N   1      36.259  13.700  13.125  0.00  0.00     0.019 A 
HETATM   12  C   UNK N   1      37.009  12.587  12.736  0.00  0.00     0.006 A 
HETATM   13  C   UNK N   1      37.329  12.402  11.392  0.00  0.00     0.019 A 
HETATM   14  I   UNK N   1      37.635  11.174  14.164  0.00  0.00    -0.045 I 
HETATM   15  C   UNK N   1      36.886  13.319  10.436  0.00  0.00     0.010 A 
ENDBRANCH   7   9
ENDBRANCH   1   7
BRANCH   6  16
HETATM   16  C   UNK N   1      34.703  16.268   6.830  0.00  0.00     0.311 C 
HETATM   17  O   UNK N   1      35.394  15.775   5.949  0.00  0.00    -0.258 OA
BRANCH  16  18
HETATM   18  O   UNK N   1      34.606  17.615   6.942  0.00  0.00    -0.321 OA
HETATM   19  C   UNK N   1      33.625  18.218   7.697  0.00  0.00     0.213 C 
ENDBRANCH  16  18
ENDBRANCH   6  16
TORSDOF 4
ENDMDL
MODEL 6
REMARK VINA RESULT:      -5.1     12.672     14.891
REMARK  4 active torsions:
REMARK  status: ('A' for Active; 'I' for Inactive)
REMARK    1  A    between atoms: C_2  and  C_3 
REMARK    2  A    between atoms: C_2  and  N_10 
REMARK    3  A    between atoms: C_15  and  C_16 
REMARK    4  A    between atoms: C_16  and  O_18 
ROOT
HETATM    1  N   UNK N   1      28.940  24.804  -3.993  0.00  0.00    -0.328 N 
HETATM    2  C   UNK N   1      29.320  26.009  -4.472  0.00  0.00     0.184 A 
HETATM    3  N   UNK N   1      30.589  26.306  -4.130  0.00  0.00    -0.360 N 
ATOM      4  HN  UNK N   1      31.106  27.153  -4.368  1.00  0.00     0.166 HD
HETATM    5  C   UNK N   1      31.036  25.262  -3.410  0.00  0.00     0.125 A 
HETATM    6  C   UNK N   1      30.022  24.331  -3.328  0.00  0.00     0.127 A 
ENDROOT
BRANCH   1   7
HETATM    7  C   UNK N   1      27.611  24.158  -4.153  0.00  0.00     0.120 C 
HETATM    8  C   UNK N   1      26.517  25.159  -3.799  0.00  0.00     0.038 C 
BRANCH   7   9
HETATM    9  C   UNK N   1      27.270  23.584  -5.532  0.00  0.00    -0.035 A 
HETATM   10  C   UNK N   1      28.256  22.854  -6.222  0.00  0.00     0.010 A 
HETATM   11  C   UNK N   1      27.970  22.250  -7.451  0.00  0.00     0.019 A 
HETATM   12  C   UNK N   1      26.696  22.371  -8.012  0.00  0.00     0.006 A 
HETATM   13  C   UNK N   1      25.714  23.106  -7.349  0.00  0.00     0.019 A 
HETATM   14  I   UNK N   1      26.243  21.428  -9.838  0.00  0.00    -0.045 I 
HETATM   15  C   UNK N   1      26.000  23.704  -6.121  0.00  0.00     0.010 A 
ENDBRANCH   7   9
ENDBRANCH   1   7
BRANCH   6  16
HETATM   16  C   UNK N   1      30.161  23.043  -2.603  0.00  0.00     0.311 C 
HETATM   17  O   UNK N   1      30.444  23.060  -1.412  0.00  0.00    -0.258 OA
BRANCH  16  18
HETATM   18  O   UNK N   1      29.982  21.861  -3.241  0.00  0.00    -0.321 OA
HETATM   19  C   UNK N   1      31.011  21.213  -3.885  0.00  0.00     0.213 C 
ENDBRANCH  16  18
ENDBRANCH   6  16
TORSDOF 4
ENDMDL
MODEL 7
REMARK VINA RESULT:      -5.1      7.439     10.036
REMARK  4 active torsions:
REMARK  status: ('A' for Active; 'I' for Inactive)
REMARK    1  A    between atoms: C_2  and  C_3 
REMARK    2  A    between atoms: C_2  and  N_10 
REMARK    3  A    between atoms: C_15  and  C_16 
REMARK    4  A    between atoms: C_16  and  O_18 
ROOT
HETATM    1  N   UNK N   1      35.831  12.482  12.786  0.00  0.00    -0.328 N 
HETATM    2  C   UNK N   1      34.674  11.783  12.785  0.00  0.00     0.184 A 
HETATM    3  N   UNK N   1      34.241  11.535  11.532  0.00  0.00    -0.360 N 
ATOM      4  HN  UNK N   1      33.397  11.028  11.265  1.00  0.00     0.166 HD
HETATM    5  C   UNK N   1      35.146  12.090  10.707  0.00  0.00     0.125 A 
HETATM    6  C   UNK N   1      36.130  12.671  11.477  0.00  0.00     0.127 A 
ENDROOT
BRANCH   1   7
HETATM    7  C   UNK N   1      36.589  12.951  13.975  0.00  0.00     0.120 C 
HETATM    8  C   UNK N   1      36.466  14.466  14.087  0.00  0.00     0.038 C 
BRANCH   7   9
HETATM    9  C   UNK N   1      36.198  12.363  15.335  0.00  0.00    -0.035 A 
HETATM   10  C   UNK N   1      36.662  11.079  15.673  0.00  0.00     0.010 A 
HETATM   11  C   UNK N   1      36.391  10.528  16.931  0.00  0.00     0.019 A 
HETATM   12  C   UNK N   1      35.649  11.252  17.867  0.00  0.00     0.006 A 
HETATM   13  C   UNK N   1      35.167  12.518  17.540  0.00  0.00     0.019 A 
HETATM   14  I   UNK N   1      35.275  10.452  19.777  0.00  0.00    -0.045 I 
HETATM   15  C   UNK N   1      35.441  13.068  16.287  0.00  0.00     0.010 A 
ENDBRANCH   7   9
ENDBRANCH   1   7
BRANCH   6  16
HETATM   16  C   UNK N   1      37.298  13.383  10.899  0.00  0.00     0.311 C 
HETATM   17  O   UNK N   1      38.416  12.908  11.049  0.00  0.00    -0.258 OA
BRANCH  16  18
HETATM   18  O   UNK N   1      37.139  14.542  10.215  0.00  0.00    -0.321 OA
HETATM   19  C   UNK N   1      36.297  15.540  10.651  0.00  0.00     0.213 C 
ENDBRANCH  16  18
ENDBRANCH   6  16
TORSDOF 4
ENDMDL
MODEL 8
REMARK VINA RESULT:      -5.0      1.538      2.357
REMARK  4 active torsions:
REMARK  status: ('A' for Active; 'I' for Inactive)
REMARK    1  A    between atoms: C_2  and  C_3 
REMARK    2  A    between atoms: C_2  and  N_10 
REMARK    3  A    between atoms: C_15  and  C_16 
REMARK    4  A    between atoms: C_16  and  O_18 
ROOT
HETATM    1  N   UNK N   1      34.907  14.419   9.132  0.00  0.00    -0.328 N 
HETATM    2  C   UNK N   1      34.654  13.256   9.772  0.00  0.00     0.184 A 
HETATM    3  N   UNK N   1      34.384  13.451  11.078  0.00  0.00    -0.360 N 
ATOM      4  HN  UNK N   1      34.162  12.736  11.771  1.00  0.00     0.166 HD
HETATM    5  C   UNK N   1      34.466  14.778  11.282  0.00  0.00     0.125 A 
HETATM    6  C   UNK N   1      34.783  15.378  10.083  0.00  0.00     0.127 A 
ENDROOT
BRANCH   1   7
HETATM    7  C   UNK N   1      35.261  14.591   7.700  0.00  0.00     0.120 C 
HETATM    8  C   UNK N   1      35.829  13.284   7.159  0.00  0.00     0.038 C 
BRANCH   7   9
HETATM    9  C   UNK N   1      34.143  15.028   6.747  0.00  0.00    -0.035 A 
HETATM   10  C   UNK N   1      34.493  15.670   5.545  0.00  0.00     0.010 A 
HETATM   11  C   UNK N   1      33.513  16.024   4.610  0.00  0.00     0.019 A 
HETATM   12  C   UNK N   1      32.168  15.745   4.866  0.00  0.00     0.006 A 
HETATM   13  C   UNK N   1      31.804  15.125   6.060  0.00  0.00     0.019 A 
HETATM   14  I   UNK N   1      30.692  16.231   3.448  0.00  0.00    -0.045 I 
HETATM   15  C   UNK N   1      32.783  14.769   6.989  0.00  0.00     0.010 A 
ENDBRANCH   7   9
ENDBRANCH   1   7
BRANCH   6  16
HETATM   16  C   UNK N   1      34.957  16.845   9.931  0.00  0.00     0.311 C 
HETATM   17  O   UNK N   1      35.910  17.388  10.474  0.00  0.00    -0.258 OA
BRANCH  16  18
HETATM   18  O   UNK N   1      34.079  17.579   9.207  0.00  0.00    -0.321 OA
HETATM   19  C   UNK N   1      34.482  18.394   8.173  0.00  0.00     0.213 C 
ENDBRANCH  16  18
ENDBRANCH   6  16
TORSDOF 4
ENDMDL
MODEL 9
REMARK VINA RESULT:      -5.0      3.818      5.480
REMARK  4 active torsions:
REMARK  status: ('A' for Active; 'I' for Inactive)
REMARK    1  A    between atoms: C_2  and  C_3 
REMARK    2  A    between atoms: C_2  and  N_10 
REMARK    3  A    between atoms: C_15  and  C_16 
REMARK    4  A    between atoms: C_16  and  O_18 
ROOT
HETATM    1  N   UNK N   1      30.192  17.461   7.843  0.00  0.00    -0.328 N 
HETATM    2  C   UNK N   1      30.994  18.118   8.709  0.00  0.00     0.184 A 
HETATM    3  N   UNK N   1      32.296  17.981   8.387  0.00  0.00    -0.360 N 
ATOM      4  HN  UNK N   1      33.095  18.379   8.882  1.00  0.00     0.166 HD
HETATM    5  C   UNK N   1      32.329  17.215   7.283  0.00  0.00     0.125 A 
HETATM    6  C   UNK N   1      31.032  16.896   6.942  0.00  0.00     0.127 A 
ENDROOT
BRANCH   1   7
HETATM    7  C   UNK N   1      28.709  17.371   7.892  0.00  0.00     0.120 C 
HETATM    8  C   UNK N   1      28.212  17.946   9.213  0.00  0.00     0.038 C 
BRANCH   7   9
HETATM    9  C   UNK N   1      27.926  18.064   6.773  0.00  0.00    -0.035 A 
HETATM   10  C   UNK N   1      27.188  17.272   5.874  0.00  0.00     0.010 A 
HETATM   11  C   UNK N   1      26.400  17.862   4.880  0.00  0.00     0.019 A 
HETATM   12  C   UNK N   1      26.342  19.253   4.766  0.00  0.00     0.006 A 
HETATM   13  C   UNK N   1      27.081  20.052   5.637  0.00  0.00     0.019 A 
HETATM   14  I   UNK N   1      25.124  20.151   3.303  0.00  0.00    -0.045 I 
HETATM   15  C   UNK N   1      27.863  19.461   6.631  0.00  0.00     0.010 A 
ENDBRANCH   7   9
ENDBRANCH   1   7
BRANCH   6  16
HETATM   16  C   UNK N   1      30.686  16.056   5.768  0.00  0.00     0.311 C 
HETATM   17  O   UNK N   1      30.503  14.857   5.930  0.00  0.00    -0.258 OA
BRANCH  16  18
HETATM   18  O   UNK N   1      30.575  16.599   4.531  0.00  0.00    -0.321 OA
HETATM   19  C   UNK N   1      31.527  16.402   3.557  0.00  0.00     0.213 C 
ENDBRANCH  16  18
ENDBRANCH   6  16
TORSDOF 4
ENDMDL
