MODEL 1
REMARK VINA RESULT:      -8.1      0.000      0.000
REMARK  11 active torsions:
REMARK  status: ('A' for Active; 'I' for Inactive)
REMARK    1  A    between atoms: C_3  and  O_40 
REMARK    2  A    between atoms: C_4  and  N_39 
REMARK    3  A    between atoms: C_6  and  O_8 
REMARK    4  A    between atoms: C_9  and  O_8 
REMARK    5  A    between atoms: C_11  and  C_34 
REMARK    6  A    between atoms: C_11  and  O_38 
REMARK    7  A    between atoms: C_15  and  O_33 
REMARK    8  A    between atoms: C_18  and  O_19 
REMARK    9  A    between atoms: C_26  and  O_31 
REMARK   10  A    between atoms: C_34  and  C_36 
REMARK   11  A    between atoms: C_36  and  O_37 
ROOT
HETATM    1  C   UNK N   1      23.655  17.101   4.822  0.00  0.00     0.164 C 
HETATM    2  C   UNK N   1      22.722  17.064   3.608  0.00  0.00     0.083 C 
HETATM    3  C   UNK N   1      21.439  17.904   3.863  0.00  0.00     0.127 C 
HETATM    4  C   UNK N   1      21.256  18.287   5.356  0.00  0.00     0.088 C 
HETATM    5  C   UNK N   1      21.642  17.120   6.231  0.00  0.00    -0.009 A 
HETATM    6  C   UNK N   1      22.876  16.521   5.980  0.00  0.00     0.014 A 
HETATM    7  C   UNK N   1      23.299  15.424   6.746  0.00  0.00     0.088 A 
HETATM    8  C   UNK N   1      22.464  14.914   7.770  0.00  0.00     0.042 A 
HETATM    9  C   UNK N   1      21.191  15.497   7.992  0.00  0.00     0.064 A 
HETATM   10  C   UNK N   1      20.791  16.619   7.222  0.00  0.00     0.088 A 
HETATM   11  C   UNK N   1      20.283  14.905   9.019  0.00  0.00     0.197 A 
HETATM   12  O   UNK N   1      19.166  15.366   9.197  0.00  0.00    -0.286 OA
HETATM   13  C   UNK N   1      20.728  13.751   9.836  0.00  0.00     0.030 A 
HETATM   14  C   UNK N   1      19.864  13.217  10.802  0.00  0.00     0.016 A 
HETATM   15  C   UNK N   1      20.273  12.164  11.615  0.00  0.00     0.004 A 
HETATM   16  C   UNK N   1      21.562  11.654  11.498  0.00  0.00     0.038 A 
HETATM   17  C   UNK N   1      22.449  12.165  10.535  0.00  0.00     0.081 A 
HETATM   18  C   UNK N   1      22.019  13.208   9.673  0.00  0.00     0.039 A 
HETATM   19  C   UNK N   1      22.911  13.759   8.612  0.00  0.00     0.054 A 
HETATM   20  N   UNK N   1      24.064  13.232   8.416  0.00  0.00    -0.398 N 
ATOM     21  HN  UNK N   1      24.391  12.517   9.067  1.00  0.00     0.156 HD
HETATM   22  H   UNK N   1      24.649  13.487   7.666  0.00  0.00     0.156 HD
ENDROOT
BRANCH   1  23
HETATM   23  O   UNK N   1      24.898  16.514   4.538  0.00  0.00    -0.351 OA
BRANCH  23  24
HETATM   24  C   UNK N   1      25.381  17.121   3.354  0.00  0.00     0.263 C 
HETATM   25  C   UNK N   1      26.234  16.205   2.459  0.00  0.00     0.088 C 
HETATM   26  C   UNK N   1      27.546  15.913   3.155  0.00  0.00     0.110 C 
HETATM   27  C   UNK N   1      28.221  17.232   3.507  0.00  0.00     0.169 C 
HETATM   28  C   UNK N   1      27.244  18.069   4.349  0.00  0.00     0.151 C 
HETATM   29  C   UNK N   1      27.890  19.391   4.722  0.00  0.00     0.042 C 
HETATM   30  O   UNK N   1      26.054  18.334   3.631  0.00  0.00    -0.354 OA
BRANCH  26  31
HETATM   31  N   UNK N   1      28.391  15.125   2.277  0.00  0.00    -0.423 N 
HETATM   32  H   UNK N   1      29.166  15.316   1.643  0.00  0.00     0.150 HD
HETATM   33  H   UNK N   1      28.149  14.135   2.299  0.00  0.00     0.150 HD
ENDBRANCH  26  31
BRANCH  27  34
HETATM   34  O   UNK N   1      29.389  16.978   4.228  0.00  0.00    -0.391 OA
HETATM   35  H   UNK N   1      29.674  16.143   4.630  0.00  0.00     0.210 HD
ENDBRANCH  27  34
ENDBRANCH  23  24
ENDBRANCH   1  23
BRANCH   3  36
HETATM   36  C   UNK N   1      21.526  19.145   3.003  0.00  0.00     0.184 C 
HETATM   37  O   UNK N   1      22.267  20.061   3.324  0.00  0.00    -0.292 OA
BRANCH  36  38
HETATM   38  C   UNK N   1      20.630  19.325   1.810  0.00  0.00     0.245 C 
BRANCH  38  39
HETATM   39  O   UNK N   1      19.294  19.410   2.190  0.00  0.00    -0.393 OA
HETATM   40  H   UNK N   1      18.332  19.409   2.064  0.00  0.00     0.209 HD
ENDBRANCH  38  39
ENDBRANCH  36  38
ENDBRANCH   3  36
BRANCH   3  41
HETATM   41  O   UNK N   1      20.327  17.145   3.488  0.00  0.00    -0.382 OA
HETATM   42  H   UNK N   1      20.029  16.702   2.677  0.00  0.00     0.211 HD
ENDBRANCH   3  41
BRANCH   7  43
HETATM   43  O   UNK N   1      24.487  14.853   6.489  0.00  0.00    -0.359 OA
HETATM   44  H   UNK N   1      24.794  14.075   6.911  0.00  0.00     0.217 HD
ENDBRANCH   7  43
BRANCH  10  45
HETATM   45  O   UNK N   1      19.597  17.206   7.422  0.00  0.00    -0.359 OA
HETATM   46  H   UNK N   1      19.184  17.257   8.261  0.00  0.00     0.217 HD
ENDBRANCH  10  45
BRANCH  17  47
HETATM   47  O   UNK N   1      23.717  11.689  10.451  0.00  0.00    -0.355 OA
HETATM   48  C   UNK N   1      24.683  11.919  11.404  0.00  0.00     0.210 C 
ENDBRANCH  17  47
TORSDOF 11
ENDMDL
MODEL 2
REMARK VINA RESULT:      -8.1      9.303     14.247
REMARK  11 active torsions:
REMARK  status: ('A' for Active; 'I' for Inactive)
REMARK    1  A    between atoms: C_3  and  O_40 
REMARK    2  A    between atoms: C_4  and  N_39 
REMARK    3  A    between atoms: C_6  and  O_8 
REMARK    4  A    between atoms: C_9  and  O_8 
REMARK    5  A    between atoms: C_11  and  C_34 
REMARK    6  A    between atoms: C_11  and  O_38 
REMARK    7  A    between atoms: C_15  and  O_33 
REMARK    8  A    between atoms: C_18  and  O_19 
REMARK    9  A    between atoms: C_26  and  O_31 
REMARK   10  A    between atoms: C_34  and  C_36 
REMARK   11  A    between atoms: C_36  and  O_37 
ROOT
HETATM    1  C   UNK N   1      35.953  13.724  10.567  0.00  0.00     0.164 C 
HETATM    2  C   UNK N   1      36.387  12.379   9.977  0.00  0.00     0.083 C 
HETATM    3  C   UNK N   1      37.282  12.582   8.722  0.00  0.00     0.127 C 
HETATM    4  C   UNK N   1      37.244  14.037   8.185  0.00  0.00     0.088 C 
HETATM    5  C   UNK N   1      35.836  14.573   8.264  0.00  0.00    -0.009 A 
HETATM    6  C   UNK N   1      35.175  14.438   9.485  0.00  0.00     0.014 A 
HETATM    7  C   UNK N   1      33.860  14.902   9.633  0.00  0.00     0.088 A 
HETATM    8  C   UNK N   1      33.194  15.500   8.534  0.00  0.00     0.042 A 
HETATM    9  C   UNK N   1      33.853  15.595   7.283  0.00  0.00     0.064 A 
HETATM   10  C   UNK N   1      35.191  15.139   7.160  0.00  0.00     0.088 A 
HETATM   11  C   UNK N   1      33.119  16.154   6.109  0.00  0.00     0.197 A 
HETATM   12  O   UNK N   1      33.654  16.206   5.012  0.00  0.00    -0.286 OA
HETATM   13  C   UNK N   1      31.732  16.653   6.262  0.00  0.00     0.030 A 
HETATM   14  C   UNK N   1      31.064  17.183   5.149  0.00  0.00     0.016 A 
HETATM   15  C   UNK N   1      29.778  17.701   5.274  0.00  0.00     0.004 A 
HETATM   16  C   UNK N   1      29.157  17.729   6.519  0.00  0.00     0.038 A 
HETATM   17  C   UNK N   1      29.799  17.201   7.651  0.00  0.00     0.081 A 
HETATM   18  C   UNK N   1      31.092  16.628   7.517  0.00  0.00     0.039 A 
HETATM   19  C   UNK N   1      31.798  16.022   8.683  0.00  0.00     0.054 A 
HETATM   20  N   UNK N   1      31.201  15.941   9.816  0.00  0.00    -0.398 N 
ATOM     21  HN  UNK N   1      30.294  16.395   9.922  1.00  0.00     0.156 HD
HETATM   22  H   UNK N   1      31.579  15.460  10.587  0.00  0.00     0.156 HD
ENDROOT
BRANCH   1  23
HETATM   23  O   UNK N   1      35.311  13.564  11.806  0.00  0.00    -0.351 OA
BRANCH  23  24
HETATM   24  C   UNK N   1      36.031  12.575  12.518  0.00  0.00     0.263 C 
HETATM   25  C   UNK N   1      35.176  11.416  13.059  0.00  0.00     0.088 C 
HETATM   26  C   UNK N   1      34.280  11.933  14.164  0.00  0.00     0.110 C 
HETATM   27  C   UNK N   1      35.143  12.607  15.223  0.00  0.00     0.169 C 
HETATM   28  C   UNK N   1      35.983  13.699  14.542  0.00  0.00     0.151 C 
HETATM   29  C   UNK N   1      36.853  14.396  15.574  0.00  0.00     0.042 C 
HETATM   30  O   UNK N   1      36.820  13.148  13.544  0.00  0.00    -0.354 OA
BRANCH  26  31
HETATM   31  N   UNK N   1      33.538  10.826  14.738  0.00  0.00    -0.423 N 
HETATM   32  H   UNK N   1      32.650  10.362  14.546  0.00  0.00     0.150 HD
HETATM   33  H   UNK N   1      34.025  10.408  15.530  0.00  0.00     0.150 HD
ENDBRANCH  26  31
BRANCH  27  34
HETATM   34  O   UNK N   1      34.322  13.166  16.204  0.00  0.00    -0.391 OA
HETATM   35  H   UNK N   1      34.556  13.824  16.876  0.00  0.00     0.210 HD
ENDBRANCH  27  34
ENDBRANCH  23  24
ENDBRANCH   1  23
BRANCH   3  36
HETATM   36  C   UNK N   1      38.694  12.192   9.099  0.00  0.00     0.184 C 
HETATM   37  O   UNK N   1      39.272  12.780  10.000  0.00  0.00    -0.292 OA
BRANCH  36  38
HETATM   38  C   UNK N   1      39.448  11.159   8.309  0.00  0.00     0.245 C 
BRANCH  38  39
HETATM   39  O   UNK N   1      39.653  11.578   6.998  0.00  0.00    -0.393 OA
HETATM   40  H   UNK N   1      39.721  12.213   6.268  0.00  0.00     0.209 HD
ENDBRANCH  38  39
ENDBRANCH  36  38
ENDBRANCH   3  36
BRANCH   3  41
HETATM   41  O   UNK N   1      36.815  11.748   7.703  0.00  0.00    -0.382 OA
HETATM   42  H   UNK N   1      36.140  11.809   7.009  0.00  0.00     0.211 HD
ENDBRANCH   3  41
BRANCH   7  43
HETATM   43  O   UNK N   1      33.233  14.758  10.812  0.00  0.00    -0.359 OA
HETATM   44  H   UNK N   1      32.405  14.331  10.914  0.00  0.00     0.217 HD
ENDBRANCH   7  43
BRANCH  10  45
HETATM   45  O   UNK N   1      35.850  15.234   5.991  0.00  0.00    -0.359 OA
HETATM   46  H   UNK N   1      35.662  14.692   5.250  0.00  0.00     0.217 HD
ENDBRANCH  10  45
BRANCH  17  47
HETATM   47  O   UNK N   1      29.203  17.264   8.869  0.00  0.00    -0.355 OA
HETATM   48  C   UNK N   1      28.171  18.124   9.168  0.00  0.00     0.210 C 
ENDBRANCH  17  47
TORSDOF 11
ENDMDL
MODEL 3
REMARK VINA RESULT:      -7.5     14.459     16.572
REMARK  11 active torsions:
REMARK  status: ('A' for Active; 'I' for Inactive)
REMARK    1  A    between atoms: C_3  and  O_40 
REMARK    2  A    between atoms: C_4  and  N_39 
REMARK    3  A    between atoms: C_6  and  O_8 
REMARK    4  A    between atoms: C_9  and  O_8 
REMARK    5  A    between atoms: C_11  and  C_34 
REMARK    6  A    between atoms: C_11  and  O_38 
REMARK    7  A    between atoms: C_15  and  O_33 
REMARK    8  A    between atoms: C_18  and  O_19 
REMARK    9  A    between atoms: C_26  and  O_31 
REMARK   10  A    between atoms: C_34  and  C_36 
REMARK   11  A    between atoms: C_36  and  O_37 
ROOT
HETATM    1  C   UNK N   1      28.003  24.899  -6.059  0.00  0.00     0.164 C 
HETATM    2  C   UNK N   1      26.795  24.667  -5.147  0.00  0.00     0.083 C 
HETATM    3  C   UNK N   1      27.104  25.104  -3.687  0.00  0.00     0.127 C 
HETATM    4  C   UNK N   1      28.617  25.343  -3.438  0.00  0.00     0.088 C 
HETATM    5  C   UNK N   1      29.424  24.285  -4.150  0.00  0.00    -0.009 A 
HETATM    6  C   UNK N   1      29.132  24.066  -5.497  0.00  0.00     0.014 A 
HETATM    7  C   UNK N   1      29.833  23.092  -6.223  0.00  0.00     0.088 A 
HETATM    8  C   UNK N   1      30.832  22.317  -5.584  0.00  0.00     0.042 A 
HETATM    9  C   UNK N   1      31.094  22.511  -4.205  0.00  0.00     0.064 A 
HETATM   10  C   UNK N   1      30.390  23.517  -3.493  0.00  0.00     0.088 A 
HETATM   11  C   UNK N   1      32.093  21.639  -3.519  0.00  0.00     0.197 A 
HETATM   12  O   UNK N   1      32.302  21.762  -2.321  0.00  0.00    -0.286 OA
HETATM   13  C   UNK N   1      32.841  20.613  -4.283  0.00  0.00     0.030 A 
HETATM   14  C   UNK N   1      33.781  19.811  -3.622  0.00  0.00     0.016 A 
HETATM   15  C   UNK N   1      34.531  18.871  -4.324  0.00  0.00     0.004 A 
HETATM   16  C   UNK N   1      34.377  18.746  -5.701  0.00  0.00     0.038 A 
HETATM   17  C   UNK N   1      33.440  19.533  -6.390  0.00  0.00     0.081 A 
HETATM   18  C   UNK N   1      32.639  20.459  -5.669  0.00  0.00     0.039 A 
HETATM   19  C   UNK N   1      31.605  21.289  -6.352  0.00  0.00     0.054 A 
HETATM   20  N   UNK N   1      31.372  21.115  -7.601  0.00  0.00    -0.398 N 
ATOM     21  HN  UNK N   1      31.980  20.486  -8.127  1.00  0.00     0.156 HD
HETATM   22  H   UNK N   1      30.634  21.560  -8.076  0.00  0.00     0.156 HD
ENDROOT
BRANCH   1  23
HETATM   23  O   UNK N   1      27.679  24.695  -7.410  0.00  0.00    -0.351 OA
BRANCH  23  24
HETATM   24  C   UNK N   1      26.310  24.336  -7.456  0.00  0.00     0.263 C 
HETATM   25  C   UNK N   1      26.038  22.877  -7.864  0.00  0.00     0.088 C 
HETATM   26  C   UNK N   1      26.406  22.691  -9.319  0.00  0.00     0.110 C 
HETATM   27  C   UNK N   1      25.646  23.715 -10.153  0.00  0.00     0.169 C 
HETATM   28  C   UNK N   1      25.961  25.117  -9.608  0.00  0.00     0.151 C 
HETATM   29  C   UNK N   1      25.222  26.163 -10.423  0.00  0.00     0.042 C 
HETATM   30  O   UNK N   1      25.565  25.235  -8.255  0.00  0.00    -0.354 OA
BRANCH  26  31
HETATM   31  N   UNK N   1      26.065  21.342  -9.732  0.00  0.00    -0.423 N 
HETATM   32  H   UNK N   1      25.454  20.603  -9.386  0.00  0.00     0.150 HD
HETATM   33  H   UNK N   1      26.561  21.064 -10.578  0.00  0.00     0.150 HD
ENDBRANCH  26  31
BRANCH  27  34
HETATM   34  O   UNK N   1      26.043  23.612 -11.488  0.00  0.00    -0.391 OA
HETATM   35  H   UNK N   1      25.545  23.865 -12.281  0.00  0.00     0.210 HD
ENDBRANCH  27  34
ENDBRANCH  23  24
ENDBRANCH   1  23
BRANCH   3  36
HETATM   36  C   UNK N   1      26.315  26.363  -3.409  0.00  0.00     0.184 C 
HETATM   37  O   UNK N   1      26.166  26.750  -2.260  0.00  0.00    -0.292 OA
BRANCH  36  38
HETATM   38  C   UNK N   1      25.611  27.096  -4.516  0.00  0.00     0.245 C 
BRANCH  38  39
HETATM   39  O   UNK N   1      25.179  28.351  -4.095  0.00  0.00    -0.393 OA
HETATM   40  H   UNK N   1      24.677  28.985  -3.559  0.00  0.00     0.209 HD
ENDBRANCH  38  39
ENDBRANCH  36  38
ENDBRANCH   3  36
BRANCH   3  41
HETATM   41  O   UNK N   1      26.695  24.086  -2.822  0.00  0.00    -0.382 OA
HETATM   42  H   UNK N   1      26.385  23.172  -2.920  0.00  0.00     0.211 HD
ENDBRANCH   3  41
BRANCH   7  43
HETATM   43  O   UNK N   1      29.536  22.886  -7.517  0.00  0.00    -0.359 OA
HETATM   44  H   UNK N   1      28.665  22.761  -7.839  0.00  0.00     0.217 HD
ENDBRANCH   7  43
BRANCH  10  45
HETATM   45  O   UNK N   1      30.630  23.739  -2.188  0.00  0.00    -0.359 OA
HETATM   46  H   UNK N   1      31.059  23.118  -1.632  0.00  0.00     0.217 HD
ENDBRANCH  10  45
BRANCH  17  47
HETATM   47  O   UNK N   1      33.320  19.433  -7.739  0.00  0.00    -0.355 OA
HETATM   48  C   UNK N   1      33.569  18.276  -8.442  0.00  0.00     0.210 C 
ENDBRANCH  17  47
TORSDOF 11
ENDMDL
MODEL 4
REMARK VINA RESULT:      -7.4      4.514      8.302
REMARK  11 active torsions:
REMARK  status: ('A' for Active; 'I' for Inactive)
REMARK    1  A    between atoms: C_3  and  O_40 
REMARK    2  A    between atoms: C_4  and  N_39 
REMARK    3  A    between atoms: C_6  and  O_8 
REMARK    4  A    between atoms: C_9  and  O_8 
REMARK    5  A    between atoms: C_11  and  C_34 
REMARK    6  A    between atoms: C_11  and  O_38 
REMARK    7  A    between atoms: C_15  and  O_33 
REMARK    8  A    between atoms: C_18  and  O_19 
REMARK    9  A    between atoms: C_26  and  O_31 
REMARK   10  A    between atoms: C_34  and  C_36 
REMARK   11  A    between atoms: C_36  and  O_37 
ROOT
HETATM    1  C   UNK N   1      24.721  17.967   3.717  0.00  0.00     0.164 C 
HETATM    2  C   UNK N   1      24.983  18.362   5.174  0.00  0.00     0.083 C 
HETATM    3  C   UNK N   1      26.368  19.051   5.325  0.00  0.00     0.127 C 
HETATM    4  C   UNK N   1      27.268  18.875   4.073  0.00  0.00     0.088 C 
HETATM    5  C   UNK N   1      27.121  17.474   3.534  0.00  0.00    -0.009 A 
HETATM    6  C   UNK N   1      25.823  17.009   3.327  0.00  0.00     0.014 A 
HETATM    7  C   UNK N   1      25.606  15.712   2.837  0.00  0.00     0.088 A 
HETATM    8  C   UNK N   1      26.709  14.866   2.562  0.00  0.00     0.042 A 
HETATM    9  C   UNK N   1      28.024  15.327   2.816  0.00  0.00     0.064 A 
HETATM   10  C   UNK N   1      28.224  16.649   3.291  0.00  0.00     0.088 A 
HETATM   11  C   UNK N   1      29.179  14.405   2.599  0.00  0.00     0.197 A 
HETATM   12  O   UNK N   1      30.317  14.768   2.852  0.00  0.00    -0.286 OA
HETATM   13  C   UNK N   1      28.955  13.037   2.074  0.00  0.00     0.030 A 
HETATM   14  C   UNK N   1      30.053  12.190   1.869  0.00  0.00     0.016 A 
HETATM   15  C   UNK N   1      29.877  10.918   1.334  0.00  0.00     0.004 A 
HETATM   16  C   UNK N   1      28.606  10.488   0.963  0.00  0.00     0.038 A 
HETATM   17  C   UNK N   1      27.486  11.312   1.162  0.00  0.00     0.081 A 
HETATM   18  C   UNK N   1      27.657  12.593   1.752  0.00  0.00     0.039 A 
HETATM   19  C   UNK N   1      26.494  13.489   2.016  0.00  0.00     0.054 A 
HETATM   20  N   UNK N   1      25.304  13.071   1.782  0.00  0.00    -0.398 N 
ATOM     21  HN  UNK N   1      25.186  12.172   1.314  1.00  0.00     0.156 HD
HETATM   22  H   UNK N   1      24.499  13.579   2.034  0.00  0.00     0.156 HD
ENDROOT
BRANCH   1  23
HETATM   23  O   UNK N   1      23.401  17.523   3.530  0.00  0.00    -0.351 OA
BRANCH  23  24
HETATM   24  C   UNK N   1      22.583  18.290   4.393  0.00  0.00     0.263 C 
HETATM   25  C   UNK N   1      21.367  17.540   4.966  0.00  0.00     0.088 C 
HETATM   26  C   UNK N   1      20.383  17.264   3.850  0.00  0.00     0.110 C 
HETATM   27  C   UNK N   1      20.030  18.580   3.169  0.00  0.00     0.169 C 
HETATM   28  C   UNK N   1      21.331  19.249   2.698  0.00  0.00     0.151 C 
HETATM   29  C   UNK N   1      21.013  20.563   2.008  0.00  0.00     0.042 C 
HETATM   30  O   UNK N   1      22.192  19.509   3.790  0.00  0.00    -0.354 OA
BRANCH  26  31
HETATM   31  N   UNK N   1      19.194  16.639   4.401  0.00  0.00    -0.423 N 
HETATM   32  H   UNK N   1      18.333  16.245   4.023  0.00  0.00     0.150 HD
HETATM   33  H   UNK N   1      19.229  16.579   5.418  0.00  0.00     0.150 HD
ENDBRANCH  26  31
BRANCH  27  34
HETATM   34  O   UNK N   1      19.191  18.329   2.081  0.00  0.00    -0.391 OA
HETATM   35  H   UNK N   1      18.223  18.281   2.072  0.00  0.00     0.210 HD
ENDBRANCH  27  34
ENDBRANCH  23  24
ENDBRANCH   1  23
BRANCH   3  36
HETATM   36  C   UNK N   1      26.122  20.518   5.600  0.00  0.00     0.184 C 
HETATM   37  O   UNK N   1      25.518  21.200   4.787  0.00  0.00    -0.292 OA
BRANCH  36  38
HETATM   38  C   UNK N   1      26.705  21.186   6.813  0.00  0.00     0.245 C 
BRANCH  38  39
HETATM   39  O   UNK N   1      25.983  20.868   7.960  0.00  0.00    -0.393 OA
HETATM   40  H   UNK N   1      25.193  20.778   8.517  0.00  0.00     0.209 HD
ENDBRANCH  38  39
ENDBRANCH  36  38
ENDBRANCH   3  36
BRANCH   3  41
HETATM   41  O   UNK N   1      27.038  18.472   6.406  0.00  0.00    -0.382 OA
HETATM   42  H   UNK N   1      27.515  17.642   6.565  0.00  0.00     0.211 HD
ENDBRANCH   3  41
BRANCH   7  43
HETATM   43  O   UNK N   1      24.350  15.274   2.650  0.00  0.00    -0.359 OA
HETATM   44  H   UNK N   1      24.124  14.564   2.083  0.00  0.00     0.217 HD
ENDBRANCH   7  43
BRANCH  10  45
HETATM   45  O   UNK N   1      29.462  17.123   3.522  0.00  0.00    -0.359 OA
HETATM   46  H   UNK N   1      29.680  17.651   4.265  0.00  0.00     0.217 HD
ENDBRANCH  10  45
BRANCH  17  47
HETATM   47  O   UNK N   1      26.255  10.902   0.765  0.00  0.00    -0.355 OA
HETATM   48  C   UNK N   1      25.855   9.585   0.760  0.00  0.00     0.210 C 
ENDBRANCH  17  47
TORSDOF 11
ENDMDL
MODEL 5
REMARK VINA RESULT:      -7.3     10.034     14.638
REMARK  11 active torsions:
REMARK  status: ('A' for Active; 'I' for Inactive)
REMARK    1  A    between atoms: C_3  and  O_40 
REMARK    2  A    between atoms: C_4  and  N_39 
REMARK    3  A    between atoms: C_6  and  O_8 
REMARK    4  A    between atoms: C_9  and  O_8 
REMARK    5  A    between atoms: C_11  and  C_34 
REMARK    6  A    between atoms: C_11  and  O_38 
REMARK    7  A    between atoms: C_15  and  O_33 
REMARK    8  A    between atoms: C_18  and  O_19 
REMARK    9  A    between atoms: C_26  and  O_31 
REMARK   10  A    between atoms: C_34  and  C_36 
REMARK   11  A    between atoms: C_36  and  O_37 
ROOT
HETATM    1  C   UNK N   1      34.714  12.029  10.751  0.00  0.00     0.164 C 
HETATM    2  C   UNK N   1      36.155  12.247  11.220  0.00  0.00     0.083 C 
HETATM    3  C   UNK N   1      36.295  13.590  11.992  0.00  0.00     0.127 C 
HETATM    4  C   UNK N   1      35.063  14.516  11.815  0.00  0.00     0.088 C 
HETATM    5  C   UNK N   1      34.581  14.456  10.387  0.00  0.00    -0.009 A 
HETATM    6  C   UNK N   1      34.378  13.188   9.841  0.00  0.00     0.014 A 
HETATM    7  C   UNK N   1      33.940  13.051   8.515  0.00  0.00     0.088 A 
HETATM    8  C   UNK N   1      33.715  14.203   7.722  0.00  0.00     0.042 A 
HETATM    9  C   UNK N   1      33.966  15.487   8.267  0.00  0.00     0.064 A 
HETATM   10  C   UNK N   1      34.387  15.606   9.616  0.00  0.00     0.088 A 
HETATM   11  C   UNK N   1      33.802  16.694   7.402  0.00  0.00     0.197 A 
HETATM   12  O   UNK N   1      34.053  17.807   7.840  0.00  0.00    -0.286 OA
HETATM   13  C   UNK N   1      33.332  16.555   6.004  0.00  0.00     0.030 A 
HETATM   14  C   UNK N   1      33.176  17.701   5.212  0.00  0.00     0.016 A 
HETATM   15  C   UNK N   1      32.693  17.604   3.911  0.00  0.00     0.004 A 
HETATM   16  C   UNK N   1      32.326  16.365   3.395  0.00  0.00     0.038 A 
HETATM   17  C   UNK N   1      32.476  15.198   4.162  0.00  0.00     0.081 A 
HETATM   18  C   UNK N   1      33.013  15.288   5.474  0.00  0.00     0.039 A 
HETATM   19  C   UNK N   1      33.225  14.074   6.313  0.00  0.00     0.054 A 
HETATM   20  N   UNK N   1      32.994  12.912   5.820  0.00  0.00    -0.398 N 
ATOM     21  HN  UNK N   1      32.563  12.852   4.897  1.00  0.00     0.156 HD
HETATM   22  H   UNK N   1      33.214  12.077   6.291  0.00  0.00     0.156 HD
ENDROOT
BRANCH   1  23
HETATM   23  O   UNK N   1      34.529  10.739  10.227  0.00  0.00    -0.351 OA
BRANCH  23  24
HETATM   24  C   UNK N   1      33.586  10.087  11.057  0.00  0.00     0.263 C 
HETATM   25  C   UNK N   1      33.958  10.049  12.550  0.00  0.00     0.088 C 
HETATM   26  C   UNK N   1      35.149   9.136  12.742  0.00  0.00     0.110 C 
HETATM   27  C   UNK N   1      34.823   7.770  12.154  0.00  0.00     0.169 C 
HETATM   28  C   UNK N   1      34.416   7.958  10.684  0.00  0.00     0.151 C 
HETATM   29  C   UNK N   1      34.088   6.611  10.065  0.00  0.00     0.042 C 
HETATM   30  O   UNK N   1      33.278   8.793  10.575  0.00  0.00    -0.354 OA
BRANCH  26  31
HETATM   31  N   UNK N   1      35.446   9.025  14.159  0.00  0.00    -0.423 N 
HETATM   32  H   UNK N   1      36.287   8.906  14.722  0.00  0.00     0.150 HD
HETATM   33  H   UNK N   1      34.605   9.079  14.732  0.00  0.00     0.150 HD
ENDBRANCH  26  31
BRANCH  27  34
HETATM   34  O   UNK N   1      35.945   6.945  12.245  0.00  0.00    -0.391 OA
HETATM   35  H   UNK N   1      36.632   6.794  11.578  0.00  0.00     0.210 HD
ENDBRANCH  27  34
ENDBRANCH  23  24
ENDBRANCH   1  23
BRANCH   3  36
HETATM   36  C   UNK N   1      36.505  13.258  13.453  0.00  0.00     0.184 C 
HETATM   37  O   UNK N   1      36.582  12.093  13.811  0.00  0.00    -0.292 OA
BRANCH  36  38
HETATM   38  C   UNK N   1      36.511  14.338  14.498  0.00  0.00     0.245 C 
BRANCH  38  39
HETATM   39  O   UNK N   1      37.595  14.199  15.361  0.00  0.00    -0.393 OA
HETATM   40  H   UNK N   1      38.358  13.756  15.765  0.00  0.00     0.209 HD
ENDBRANCH  38  39
ENDBRANCH  36  38
ENDBRANCH   3  36
BRANCH   3  41
HETATM   41  O   UNK N   1      37.407  14.275  11.497  0.00  0.00    -0.382 OA
HETATM   42  H   UNK N   1      37.658  15.205  11.385  0.00  0.00     0.211 HD
ENDBRANCH   3  41
BRANCH   7  43
HETATM   43  O   UNK N   1      33.757  11.824   8.000  0.00  0.00    -0.359 OA
HETATM   44  H   UNK N   1      33.445  11.092   8.494  0.00  0.00     0.217 HD
ENDBRANCH   7  43
BRANCH  10  45
HETATM   45  O   UNK N   1      34.613  16.813  10.168  0.00  0.00    -0.359 OA
HETATM   46  H   UNK N   1      35.462  17.208  10.208  0.00  0.00     0.217 HD
ENDBRANCH  10  45
BRANCH  17  47
HETATM   47  O   UNK N   1      32.082  13.997   3.667  0.00  0.00    -0.355 OA
HETATM   48  C   UNK N   1      30.927  13.814   2.942  0.00  0.00     0.210 C 
ENDBRANCH  17  47
TORSDOF 11
ENDMDL
MODEL 6
REMARK VINA RESULT:      -7.3      4.446      6.942
REMARK  11 active torsions:
REMARK  status: ('A' for Active; 'I' for Inactive)
REMARK    1  A    between atoms: C_3  and  O_40 
REMARK    2  A    between atoms: C_4  and  N_39 
REMARK    3  A    between atoms: C_6  and  O_8 
REMARK    4  A    between atoms: C_9  and  O_8 
REMARK    5  A    between atoms: C_11  and  C_34 
REMARK    6  A    between atoms: C_11  and  O_38 
REMARK    7  A    between atoms: C_15  and  O_33 
REMARK    8  A    between atoms: C_18  and  O_19 
REMARK    9  A    between atoms: C_26  and  O_31 
REMARK   10  A    between atoms: C_34  and  C_36 
REMARK   11  A    between atoms: C_36  and  O_37 
ROOT
HETATM    1  C   UNK N   1      22.635  16.578   3.123  0.00  0.00     0.164 C 
HETATM    2  C   UNK N   1      21.617  17.088   4.148  0.00  0.00     0.083 C 
HETATM    3  C   UNK N   1      21.786  18.614   4.391  0.00  0.00     0.127 C 
HETATM    4  C   UNK N   1      23.114  19.173   3.816  0.00  0.00     0.088 C 
HETATM    5  C   UNK N   1      24.231  18.190   4.068  0.00  0.00    -0.009 A 
HETATM    6  C   UNK N   1      24.003  16.865   3.696  0.00  0.00     0.014 A 
HETATM    7  C   UNK N   1      24.991  15.891   3.909  0.00  0.00     0.088 A 
HETATM    8  C   UNK N   1      26.220  16.252   4.515  0.00  0.00     0.042 A 
HETATM    9  C   UNK N   1      26.429  17.590   4.932  0.00  0.00     0.064 A 
HETATM   10  C   UNK N   1      25.427  18.564   4.689  0.00  0.00     0.088 A 
HETATM   11  C   UNK N   1      27.694  17.947   5.641  0.00  0.00     0.197 A 
HETATM   12  O   UNK N   1      27.876  19.085   6.046  0.00  0.00    -0.286 OA
HETATM   13  C   UNK N   1      28.743  16.924   5.861  0.00  0.00     0.030 A 
HETATM   14  C   UNK N   1      29.927  17.282   6.520  0.00  0.00     0.016 A 
HETATM   15  C   UNK N   1      30.949  16.354   6.699  0.00  0.00     0.004 A 
HETATM   16  C   UNK N   1      30.815  15.065   6.191  0.00  0.00     0.038 A 
HETATM   17  C   UNK N   1      29.638  14.675   5.530  0.00  0.00     0.081 A 
HETATM   18  C   UNK N   1      28.575  15.607   5.388  0.00  0.00     0.039 A 
HETATM   19  C   UNK N   1      27.293  15.228   4.727  0.00  0.00     0.054 A 
HETATM   20  N   UNK N   1      27.107  14.018   4.346  0.00  0.00    -0.398 N 
ATOM     21  HN  UNK N   1      27.888  13.363   4.405  1.00  0.00     0.156 HD
HETATM   22  H   UNK N   1      26.245  13.691   4.001  0.00  0.00     0.156 HD
ENDROOT
BRANCH   1  23
HETATM   23  O   UNK N   1      22.371  15.251   2.748  0.00  0.00    -0.351 OA
BRANCH  23  24
HETATM   24  C   UNK N   1      21.760  15.296   1.472  0.00  0.00     0.263 C 
HETATM   25  C   UNK N   1      20.275  14.895   1.452  0.00  0.00     0.088 C 
HETATM   26  C   UNK N   1      20.156  13.415   1.745  0.00  0.00     0.110 C 
HETATM   27  C   UNK N   1      21.015  12.646   0.750  0.00  0.00     0.169 C 
HETATM   28  C   UNK N   1      22.453  13.181   0.833  0.00  0.00     0.151 C 
HETATM   29  C   UNK N   1      23.338  12.430  -0.146  0.00  0.00     0.042 C 
HETATM   30  O   UNK N   1      22.500  14.560   0.516  0.00  0.00    -0.354 OA
BRANCH  26  31
HETATM   31  N   UNK N   1      18.765  13.014   1.638  0.00  0.00    -0.423 N 
HETATM   32  H   UNK N   1      17.862  13.479   1.719  0.00  0.00     0.150 HD
HETATM   33  H   UNK N   1      18.668  12.021   1.430  0.00  0.00     0.150 HD
ENDBRANCH  26  31
BRANCH  27  34
HETATM   34  O   UNK N   1      20.984  11.286   1.065  0.00  0.00    -0.391 OA
HETATM   35  H   UNK N   1      21.551  10.803   1.686  0.00  0.00     0.210 HD
ENDBRANCH  27  34
ENDBRANCH  23  24
ENDBRANCH   1  23
BRANCH   3  36
HETATM   36  C   UNK N   1      20.600  19.312   3.761  0.00  0.00     0.184 C 
HETATM   37  O   UNK N   1      20.377  20.486   4.012  0.00  0.00    -0.292 OA
BRANCH  36  38
HETATM   38  C   UNK N   1      19.619  18.555   2.911  0.00  0.00     0.245 C 
BRANCH  38  39
HETATM   39  O   UNK N   1      19.933  18.665   1.559  0.00  0.00    -0.393 OA
HETATM   40  H   UNK N   1      20.395  18.450   0.734  0.00  0.00     0.209 HD
ENDBRANCH  38  39
ENDBRANCH  36  38
ENDBRANCH   3  36
BRANCH   3  41
HETATM   41  O   UNK N   1      21.796  18.847   5.769  0.00  0.00    -0.382 OA
HETATM   42  H   UNK N   1      22.111  18.370   6.552  0.00  0.00     0.211 HD
ENDBRANCH   3  41
BRANCH   7  43
HETATM   43  O   UNK N   1      24.755  14.618   3.553  0.00  0.00    -0.359 OA
HETATM   44  H   UNK N   1      24.171  14.047   4.013  0.00  0.00     0.217 HD
ENDBRANCH   7  43
BRANCH  10  45
HETATM   45  O   UNK N   1      25.604  19.847   5.055  0.00  0.00    -0.359 OA
HETATM   46  H   UNK N   1      25.026  20.300   5.636  0.00  0.00     0.217 HD
ENDBRANCH  10  45
BRANCH  17  47
HETATM   47  O   UNK N   1      29.528  13.429   5.005  0.00  0.00    -0.355 OA
HETATM   48  C   UNK N   1      30.550  12.789   4.341  0.00  0.00     0.210 C 
ENDBRANCH  17  47
TORSDOF 11
ENDMDL
MODEL 7
REMARK VINA RESULT:      -7.1      4.310      6.869
REMARK  11 active torsions:
REMARK  status: ('A' for Active; 'I' for Inactive)
REMARK    1  A    between atoms: C_3  and  O_40 
REMARK    2  A    between atoms: C_4  and  N_39 
REMARK    3  A    between atoms: C_6  and  O_8 
REMARK    4  A    between atoms: C_9  and  O_8 
REMARK    5  A    between atoms: C_11  and  C_34 
REMARK    6  A    between atoms: C_11  and  O_38 
REMARK    7  A    between atoms: C_15  and  O_33 
REMARK    8  A    between atoms: C_18  and  O_19 
REMARK    9  A    between atoms: C_26  and  O_31 
REMARK   10  A    between atoms: C_34  and  C_36 
REMARK   11  A    between atoms: C_36  and  O_37 
ROOT
HETATM    1  C   UNK N   1      24.277  16.005   3.576  0.00  0.00     0.164 C 
HETATM    2  C   UNK N   1      23.041  16.243   4.449  0.00  0.00     0.083 C 
HETATM    3  C   UNK N   1      22.836  17.760   4.725  0.00  0.00     0.127 C 
HETATM    4  C   UNK N   1      24.077  18.613   4.352  0.00  0.00     0.088 C 
HETATM    5  C   UNK N   1      25.335  17.885   4.754  0.00  0.00    -0.009 A 
HETATM    6  C   UNK N   1      25.457  16.557   4.343  0.00  0.00     0.014 A 
HETATM    7  C   UNK N   1      26.594  15.812   4.687  0.00  0.00     0.088 A 
HETATM    8  C   UNK N   1      27.618  16.404   5.467  0.00  0.00     0.042 A 
HETATM    9  C   UNK N   1      27.470  17.739   5.920  0.00  0.00     0.064 A 
HETATM   10  C   UNK N   1      26.323  18.483   5.542  0.00  0.00     0.088 A 
HETATM   11  C   UNK N   1      28.516  18.332   6.806  0.00  0.00     0.197 A 
HETATM   12  O   UNK N   1      28.386  19.466   7.242  0.00  0.00    -0.286 OA
HETATM   13  C   UNK N   1      29.722  17.551   7.166  0.00  0.00     0.030 A 
HETATM   14  C   UNK N   1      30.696  18.130   7.991  0.00  0.00     0.016 A 
HETATM   15  C   UNK N   1      31.861  17.437   8.308  0.00  0.00     0.004 A 
HETATM   16  C   UNK N   1      32.084  16.171   7.776  0.00  0.00     0.038 A 
HETATM   17  C   UNK N   1      31.124  15.563   6.950  0.00  0.00     0.081 A 
HETATM   18  C   UNK N   1      29.913  16.248   6.664  0.00  0.00     0.039 A 
HETATM   19  C   UNK N   1      28.849  15.629   5.822  0.00  0.00     0.054 A 
HETATM   20  N   UNK N   1      28.987  14.422   5.410  0.00  0.00    -0.398 N 
ATOM     21  HN  UNK N   1      29.876  13.949   5.575  1.00  0.00     0.156 HD
HETATM   22  H   UNK N   1      28.274  13.931   4.941  0.00  0.00     0.156 HD
ENDROOT
BRANCH   1  23
HETATM   23  O   UNK N   1      24.365  14.668   3.157  0.00  0.00    -0.351 OA
BRANCH  23  24
HETATM   24  C   UNK N   1      24.637  14.688   1.768  0.00  0.00     0.263 C 
HETATM   25  C   UNK N   1      23.454  14.279   0.872  0.00  0.00     0.088 C 
HETATM   26  C   UNK N   1      23.174  12.804   1.061  0.00  0.00     0.110 C 
HETATM   27  C   UNK N   1      24.453  12.022   0.789  0.00  0.00     0.169 C 
HETATM   28  C   UNK N   1      25.561  12.566   1.705  0.00  0.00     0.151 C 
HETATM   29  C   UNK N   1      26.850  11.802   1.461  0.00  0.00     0.042 C 
HETATM   30  O   UNK N   1      25.796  13.939   1.456  0.00  0.00    -0.354 OA
BRANCH  26  31
HETATM   31  N   UNK N   1      22.121  12.394   0.151  0.00  0.00    -0.423 N 
HETATM   32  H   UNK N   1      22.071  11.869  -0.721  0.00  0.00     0.150 HD
HETATM   33  H   UNK N   1      21.202  12.710   0.462  0.00  0.00     0.150 HD
ENDBRANCH  26  31
BRANCH  27  34
HETATM   34  O   UNK N   1      24.231  10.667   1.046  0.00  0.00    -0.391 OA
HETATM   35  H   UNK N   1      23.502  10.111   0.732  0.00  0.00     0.210 HD
ENDBRANCH  27  34
ENDBRANCH  23  24
ENDBRANCH   1  23
BRANCH   3  36
HETATM   36  C   UNK N   1      21.625  18.209   3.937  0.00  0.00     0.184 C 
HETATM   37  O   UNK N   1      20.743  17.411   3.662  0.00  0.00    -0.292 OA
BRANCH  36  38
HETATM   38  C   UNK N   1      21.535  19.605   3.387  0.00  0.00     0.245 C 
BRANCH  38  39
HETATM   39  O   UNK N   1      20.518  20.326   4.007  0.00  0.00    -0.393 OA
HETATM   40  H   UNK N   1      20.046  21.119   4.306  0.00  0.00     0.209 HD
ENDBRANCH  38  39
ENDBRANCH  36  38
ENDBRANCH   3  36
BRANCH   3  41
HETATM   41  O   UNK N   1      22.604  17.936   6.092  0.00  0.00    -0.382 OA
HETATM   42  H   UNK N   1      23.154  17.988   6.889  0.00  0.00     0.211 HD
ENDBRANCH   3  41
BRANCH   7  43
HETATM   43  O   UNK N   1      26.694  14.532   4.292  0.00  0.00    -0.359 OA
HETATM   44  H   UNK N   1      27.120  14.262   3.502  0.00  0.00     0.217 HD
ENDBRANCH   7  43
BRANCH  10  45
HETATM   45  O   UNK N   1      26.163  19.759   5.940  0.00  0.00    -0.359 OA
HETATM   46  H   UNK N   1      26.291  20.041   6.824  0.00  0.00     0.217 HD
ENDBRANCH  10  45
BRANCH  17  47
HETATM   47  O   UNK N   1      31.363  14.343   6.404  0.00  0.00    -0.355 OA
HETATM   48  C   UNK N   1      32.625  13.829   6.211  0.00  0.00     0.210 C 
ENDBRANCH  17  47
TORSDOF 11
ENDMDL
MODEL 8
REMARK VINA RESULT:      -7.1      6.806     10.612
REMARK  11 active torsions:
REMARK  status: ('A' for Active; 'I' for Inactive)
REMARK    1  A    between atoms: C_3  and  O_40 
REMARK    2  A    between atoms: C_4  and  N_39 
REMARK    3  A    between atoms: C_6  and  O_8 
REMARK    4  A    between atoms: C_9  and  O_8 
REMARK    5  A    between atoms: C_11  and  C_34 
REMARK    6  A    between atoms: C_11  and  O_38 
REMARK    7  A    between atoms: C_15  and  O_33 
REMARK    8  A    between atoms: C_18  and  O_19 
REMARK    9  A    between atoms: C_26  and  O_31 
REMARK   10  A    between atoms: C_34  and  C_36 
REMARK   11  A    between atoms: C_36  and  O_37 
ROOT
HETATM    1  C   UNK N   1      32.574  14.632   5.734  0.00  0.00     0.164 C 
HETATM    2  C   UNK N   1      33.935  15.078   6.277  0.00  0.00     0.083 C 
HETATM    3  C   UNK N   1      33.940  15.090   7.832  0.00  0.00     0.127 C 
HETATM    4  C   UNK N   1      32.516  14.982   8.439  0.00  0.00     0.088 C 
HETATM    5  C   UNK N   1      31.553  15.815   7.631  0.00  0.00    -0.009 A 
HETATM    6  C   UNK N   1      31.560  15.627   6.249  0.00  0.00     0.014 A 
HETATM    7  C   UNK N   1      30.700  16.374   5.429  0.00  0.00     0.088 A 
HETATM    8  C   UNK N   1      29.829  17.332   6.006  0.00  0.00     0.042 A 
HETATM    9  C   UNK N   1      29.858  17.551   7.405  0.00  0.00     0.064 A 
HETATM   10  C   UNK N   1      30.719  16.771   8.219  0.00  0.00     0.088 A 
HETATM   11  C   UNK N   1      28.995  18.616   7.998  0.00  0.00     0.197 A 
HETATM   12  O   UNK N   1      29.035  18.850   9.197  0.00  0.00    -0.286 OA
HETATM   13  C   UNK N   1      28.079  19.402   7.138  0.00  0.00     0.030 A 
HETATM   14  C   UNK N   1      27.270  20.391   7.715  0.00  0.00     0.016 A 
HETATM   15  C   UNK N   1      26.368  21.112   6.939  0.00  0.00     0.004 A 
HETATM   16  C   UNK N   1      26.236  20.830   5.583  0.00  0.00     0.038 A 
HETATM   17  C   UNK N   1      27.036  19.849   4.975  0.00  0.00     0.081 A 
HETATM   18  C   UNK N   1      27.991  19.144   5.755  0.00  0.00     0.039 A 
HETATM   19  C   UNK N   1      28.888  18.119   5.147  0.00  0.00     0.054 A 
HETATM   20  N   UNK N   1      28.858  17.919   3.880  0.00  0.00    -0.398 N 
ATOM     21  HN  UNK N   1      28.139  18.390   3.330  1.00  0.00     0.156 HD
HETATM   22  H   UNK N   1      29.497  17.333   3.415  0.00  0.00     0.156 HD
ENDROOT
BRANCH   1  23
HETATM   23  O   UNK N   1      32.612  14.428   4.345  0.00  0.00    -0.351 OA
BRANCH  23  24
HETATM   24  C   UNK N   1      33.061  13.102   4.136  0.00  0.00     0.263 C 
HETATM   25  C   UNK N   1      33.852  12.886   2.834  0.00  0.00     0.088 C 
HETATM   26  C   UNK N   1      32.917  13.034   1.654  0.00  0.00     0.110 C 
HETATM   27  C   UNK N   1      31.747  12.075   1.829  0.00  0.00     0.169 C 
HETATM   28  C   UNK N   1      31.084  12.360   3.186  0.00  0.00     0.151 C 
HETATM   29  C   UNK N   1      29.908  11.422   3.391  0.00  0.00     0.042 C 
HETATM   30  O   UNK N   1      32.000  12.172   4.248  0.00  0.00    -0.354 OA
BRANCH  26  31
HETATM   31  N   UNK N   1      33.638  12.741   0.429  0.00  0.00    -0.423 N 
HETATM   32  H   UNK N   1      34.453  13.125  -0.050  0.00  0.00     0.150 HD
HETATM   33  H   UNK N   1      33.229  11.959  -0.079  0.00  0.00     0.150 HD
ENDBRANCH  26  31
BRANCH  27  34
HETATM   34  O   UNK N   1      30.831  12.265   0.792  0.00  0.00    -0.391 OA
HETATM   35  H   UNK N   1      29.899  12.521   0.857  0.00  0.00     0.210 HD
ENDBRANCH  27  34
ENDBRANCH  23  24
ENDBRANCH   1  23
BRANCH   3  36
HETATM   36  C   UNK N   1      34.804  13.939   8.297  0.00  0.00     0.184 C 
HETATM   37  O   UNK N   1      35.203  13.110   7.493  0.00  0.00    -0.292 OA
BRANCH  36  38
HETATM   38  C   UNK N   1      35.097  13.730   9.756  0.00  0.00     0.245 C 
BRANCH  38  39
HETATM   39  O   UNK N   1      35.895  14.753  10.262  0.00  0.00    -0.393 OA
HETATM   40  H   UNK N   1      36.088  15.625  10.640  0.00  0.00     0.209 HD
ENDBRANCH  38  39
ENDBRANCH  36  38
ENDBRANCH   3  36
BRANCH   3  41
HETATM   41  O   UNK N   1      34.488  16.300   8.266  0.00  0.00    -0.382 OA
HETATM   42  H   UNK N   1      34.809  16.654   9.110  0.00  0.00     0.211 HD
ENDBRANCH   3  41
BRANCH   7  43
HETATM   43  O   UNK N   1      30.722  16.188   4.099  0.00  0.00    -0.359 OA
HETATM   44  H   UNK N   1      30.085  16.545   3.512  0.00  0.00     0.217 HD
ENDBRANCH   7  43
BRANCH  10  45
HETATM   45  O   UNK N   1      30.754  16.942   9.554  0.00  0.00    -0.359 OA
HETATM   46  H   UNK N   1      31.378  17.493   9.985  0.00  0.00     0.217 HD
ENDBRANCH  10  45
BRANCH  17  47
HETATM   47  O   UNK N   1      26.877  19.553   3.660  0.00  0.00    -0.355 OA
HETATM   48  C   UNK N   1      25.907  20.117   2.864  0.00  0.00     0.210 C 
ENDBRANCH  17  47
TORSDOF 11
ENDMDL
MODEL 9
REMARK VINA RESULT:      -7.1      6.539     12.507
REMARK  11 active torsions:
REMARK  status: ('A' for Active; 'I' for Inactive)
REMARK    1  A    between atoms: C_3  and  O_40 
REMARK    2  A    between atoms: C_4  and  N_39 
REMARK    3  A    between atoms: C_6  and  O_8 
REMARK    4  A    between atoms: C_9  and  O_8 
REMARK    5  A    between atoms: C_11  and  C_34 
REMARK    6  A    between atoms: C_11  and  O_38 
REMARK    7  A    between atoms: C_15  and  O_33 
REMARK    8  A    between atoms: C_18  and  O_19 
REMARK    9  A    between atoms: C_26  and  O_31 
REMARK   10  A    between atoms: C_34  and  C_36 
REMARK   11  A    between atoms: C_36  and  O_37 
ROOT
HETATM    1  C   UNK N   1      32.383  16.041   7.326  0.00  0.00     0.164 C 
HETATM    2  C   UNK N   1      32.971  15.433   8.603  0.00  0.00     0.083 C 
HETATM    3  C   UNK N   1      34.520  15.567   8.624  0.00  0.00     0.127 C 
HETATM    4  C   UNK N   1      35.108  15.962   7.244  0.00  0.00     0.088 C 
HETATM    5  C   UNK N   1      34.379  15.224   6.149  0.00  0.00    -0.009 A 
HETATM    6  C   UNK N   1      32.985  15.277   6.170  0.00  0.00     0.014 A 
HETATM    7  C   UNK N   1      32.238  14.606   5.190  0.00  0.00     0.088 A 
HETATM    8  C   UNK N   1      32.899  13.862   4.183  0.00  0.00     0.042 A 
HETATM    9  C   UNK N   1      34.314  13.774   4.192  0.00  0.00     0.064 A 
HETATM   10  C   UNK N   1      35.053  14.477   5.178  0.00  0.00     0.088 A 
HETATM   11  C   UNK N   1      35.001  12.924   3.174  0.00  0.00     0.197 A 
HETATM   12  O   UNK N   1      36.217  12.801   3.191  0.00  0.00    -0.286 OA
HETATM   13  C   UNK N   1      34.216  12.220   2.133  0.00  0.00     0.030 A 
HETATM   14  C   UNK N   1      34.882  11.435   1.181  0.00  0.00     0.016 A 
HETATM   15  C   UNK N   1      34.175  10.800   0.165  0.00  0.00     0.004 A 
HETATM   16  C   UNK N   1      32.797  10.971   0.064  0.00  0.00     0.038 A 
HETATM   17  C   UNK N   1      32.102  11.747   1.006  0.00  0.00     0.081 A 
HETATM   18  C   UNK N   1      32.815  12.357   2.072  0.00  0.00     0.039 A 
HETATM   19  C   UNK N   1      32.116  13.160   3.116  0.00  0.00     0.054 A 
HETATM   20  N   UNK N   1      30.836  13.242   3.104  0.00  0.00    -0.398 N 
ATOM     21  HN  UNK N   1      30.329  12.845   2.312  1.00  0.00     0.156 HD
HETATM   22  H   UNK N   1      30.319  13.670   3.824  0.00  0.00     0.156 HD
ENDROOT
BRANCH   1  23
HETATM   23  O   UNK N   1      30.981  16.104   7.381  0.00  0.00    -0.351 OA
BRANCH  23  24
HETATM   24  C   UNK N   1      30.618  17.445   7.113  0.00  0.00     0.263 C 
HETATM   25  C   UNK N   1      29.774  18.118   8.210  0.00  0.00     0.088 C 
HETATM   26  C   UNK N   1      28.403  17.479   8.245  0.00  0.00     0.110 C 
HETATM   27  C   UNK N   1      27.786  17.563   6.855  0.00  0.00     0.169 C 
HETATM   28  C   UNK N   1      28.750  16.909   5.853  0.00  0.00     0.151 C 
HETATM   29  C   UNK N   1      28.161  16.973   4.456  0.00  0.00     0.042 C 
HETATM   30  O   UNK N   1      30.000  17.572   5.846  0.00  0.00    -0.354 OA
BRANCH  26  31
HETATM   31  N   UNK N   1      27.575  18.171   9.215  0.00  0.00    -0.423 N 
HETATM   32  H   UNK N   1      27.119  17.927  10.094  0.00  0.00     0.150 HD
HETATM   33  H   UNK N   1      27.407  19.141   8.953  0.00  0.00     0.150 HD
ENDBRANCH  26  31
BRANCH  27  34
HETATM   34  O   UNK N   1      26.558  16.899   6.852  0.00  0.00    -0.391 OA
HETATM   35  H   UNK N   1      26.016  16.640   7.613  0.00  0.00     0.210 HD
ENDBRANCH  27  34
ENDBRANCH  23  24
ENDBRANCH   1  23
BRANCH   3  36
HETATM   36  C   UNK N   1      34.876  16.600   9.669  0.00  0.00     0.184 C 
HETATM   37  O   UNK N   1      34.759  17.790   9.418  0.00  0.00    -0.292 OA
BRANCH  36  38
HETATM   38  C   UNK N   1      35.480  16.195  10.985  0.00  0.00     0.245 C 
BRANCH  38  39
HETATM   39  O   UNK N   1      36.862  16.063  10.886  0.00  0.00    -0.393 OA
HETATM   40  H   UNK N   1      37.757  15.839  11.185  0.00  0.00     0.209 HD
ENDBRANCH  38  39
ENDBRANCH  36  38
ENDBRANCH   3  36
BRANCH   3  41
HETATM   41  O   UNK N   1      35.069  14.330   8.974  0.00  0.00    -0.382 OA
HETATM   42  H   UNK N   1      34.781  13.405   8.932  0.00  0.00     0.211 HD
ENDBRANCH   3  41
BRANCH   7  43
HETATM   43  O   UNK N   1      30.896  14.659   5.227  0.00  0.00    -0.359 OA
HETATM   44  H   UNK N   1      30.412  15.396   5.543  0.00  0.00     0.217 HD
ENDBRANCH   7  43
BRANCH  10  45
HETATM   45  O   UNK N   1      36.397  14.429   5.201  0.00  0.00    -0.359 OA
HETATM   46  H   UNK N   1      36.881  13.636   5.322  0.00  0.00     0.217 HD
ENDBRANCH  10  45
BRANCH  17  47
HETATM   47  O   UNK N   1      30.764  11.939   0.881  0.00  0.00    -0.355 OA
HETATM   48  C   UNK N   1      30.108  11.971  -0.328  0.00  0.00     0.210 C 
ENDBRANCH  17  47
TORSDOF 11
ENDMDL
