MODEL 1
REMARK VINA RESULT:      -6.6      0.000      0.000
REMARK  1 active torsions:
REMARK  status: ('A' for Active; 'I' for Inactive)
REMARK    1  A    between atoms: C_4  and  C_8 
REMARK       I    between atoms: C_11  and  N_18 
REMARK       I    between atoms: C_14  and  N_17 
ROOT
HETATM    1  C   UNK N   1      36.208  14.319  12.734  0.00  0.00     0.148 A 
HETATM    2  N   UNK N   1      37.206  13.807  11.967  0.00  0.00    -0.175 N 
ATOM      3  HN  UNK N   1      37.718  12.984  12.285  1.00  0.00     0.186 HD
HETATM    4  C   UNK N   1      37.529  14.384  10.783  0.00  0.00     0.692 A 
HETATM    5  N   UNK N   1      36.847  15.475  10.352  0.00  0.00    -0.023 N 
ATOM      6  HN  UNK N   1      37.084  15.904   9.457  1.00  0.00     0.203 HD
HETATM    7  C   UNK N   1      35.853  15.994  11.111  0.00  0.00     0.692 A 
HETATM    8  N   UNK N   1      35.535  15.418  12.298  0.00  0.00    -0.175 N 
ATOM      9  HN  UNK N   1      34.786  15.812  12.867  1.00  0.00     0.186 HD
HETATM   10  N   UNK N   1      35.133  17.117  10.660  0.00  0.00    -0.234 N 
HETATM   11  N   UNK N   1      38.555  13.836   9.990  0.00  0.00    -0.234 N 
HETATM   12  H   UNK N   1      34.359  17.448  11.172  0.00  0.00     0.174 HD
HETATM   13  H   UNK N   1      35.404  17.572   9.830  0.00  0.00     0.174 HD
HETATM   14  H   UNK N   1      38.820  14.279   9.151  0.00  0.00     0.174 HD
HETATM   15  H   UNK N   1      39.008  13.010  10.273  0.00  0.00     0.174 HD
ENDROOT
BRANCH   1  16
HETATM   16  C   UNK N   1      35.794  13.667  14.008  0.00  0.00     0.032 A 
HETATM   17  C   UNK N   1      36.270  14.055  15.292  0.00  0.00     0.048 A 
HETATM   18  C   UNK N   1      35.857  13.347  16.426  0.00  0.00     0.026 A 
HETATM   19 Cl   UNK N   1      37.388  15.389  15.554  0.00  0.00    -0.083 Cl
HETATM   20  C   UNK N   1      34.982  12.267  16.315  0.00  0.00     0.025 A 
HETATM   21  C   UNK N   1      34.505  11.887  15.064  0.00  0.00     0.035 A 
HETATM   22  C   UNK N   1      34.909  12.579  13.924  0.00  0.00     0.041 A 
HETATM   23 Cl   UNK N   1      33.410  10.529  14.918  0.00  0.00    -0.084 Cl
ENDBRANCH   1  16
TORSDOF 1
ENDMDL
MODEL 2
REMARK VINA RESULT:      -6.5      0.094      2.061
REMARK  1 active torsions:
REMARK  status: ('A' for Active; 'I' for Inactive)
REMARK    1  A    between atoms: C_4  and  C_8 
REMARK       I    between atoms: C_11  and  N_18 
REMARK       I    between atoms: C_14  and  N_17 
ROOT
HETATM    1  C   UNK N   1      36.127  14.272  12.696  0.00  0.00     0.148 A 
HETATM    2  N   UNK N   1      35.477  15.380  12.252  0.00  0.00    -0.175 N 
ATOM      3  HN  UNK N   1      34.704  15.765  12.795  1.00  0.00     0.186 HD
HETATM    4  C   UNK N   1      35.847  15.976  11.091  0.00  0.00     0.692 A 
HETATM    5  N   UNK N   1      36.879  15.472  10.369  0.00  0.00    -0.023 N 
ATOM      6  HN  UNK N   1      37.163  15.925   9.500  1.00  0.00     0.203 HD
HETATM    7  C   UNK N   1      37.530  14.366  10.802  0.00  0.00     0.692 A 
HETATM    8  N   UNK N   1      37.155  13.768  11.960  0.00  0.00    -0.175 N 
ATOM      9  HN  UNK N   1      37.647  12.936  12.283  1.00  0.00     0.186 HD
HETATM   10  N   UNK N   1      38.611  13.849  10.062  0.00  0.00    -0.234 N 
HETATM   11  N   UNK N   1      35.177  17.132  10.649  0.00  0.00    -0.234 N 
HETATM   12  H   UNK N   1      39.136  13.093  10.414  0.00  0.00     0.174 HD
HETATM   13  H   UNK N   1      38.843  14.245   9.191  0.00  0.00     0.174 HD
HETATM   14  H   UNK N   1      35.415  17.540   9.785  0.00  0.00     0.174 HD
HETATM   15  H   UNK N   1      34.469  17.533  11.203  0.00  0.00     0.174 HD
ENDROOT
BRANCH   1  16
HETATM   16  C   UNK N   1      35.779  13.636  13.997  0.00  0.00     0.032 A 
HETATM   17  C   UNK N   1      36.283  14.070  15.256  0.00  0.00     0.048 A 
HETATM   18  C   UNK N   1      35.933  13.375  16.418  0.00  0.00     0.026 A 
HETATM   19 Cl   UNK N   1      37.360  15.448  15.450  0.00  0.00    -0.083 Cl
HETATM   20  C   UNK N   1      35.094  12.262  16.360  0.00  0.00     0.025 A 
HETATM   21  C   UNK N   1      34.590  11.836  15.134  0.00  0.00     0.035 A 
HETATM   22  C   UNK N   1      34.932  12.515  13.967  0.00  0.00     0.041 A 
HETATM   23 Cl   UNK N   1      33.540  10.438  15.056  0.00  0.00    -0.084 Cl
ENDBRANCH   1  16
TORSDOF 1
ENDMDL
MODEL 3
REMARK VINA RESULT:      -6.2      1.584      3.251
REMARK  1 active torsions:
REMARK  status: ('A' for Active; 'I' for Inactive)
REMARK    1  A    between atoms: C_4  and  C_8 
REMARK       I    between atoms: C_11  and  N_18 
REMARK       I    between atoms: C_14  and  N_17 
ROOT
HETATM    1  C   UNK N   1      35.740  13.569  12.345  0.00  0.00     0.148 A 
HETATM    2  N   UNK N   1      35.143  14.760  12.077  0.00  0.00    -0.175 N 
ATOM      3  HN  UNK N   1      34.273  15.008  12.548  1.00  0.00     0.186 HD
HETATM    4  C   UNK N   1      35.694  15.621  11.185  0.00  0.00     0.692 A 
HETATM    5  N   UNK N   1      36.854  15.299  10.560  0.00  0.00    -0.023 N 
ATOM      6  HN  UNK N   1      37.273  15.949   9.896  1.00  0.00     0.203 HD
HETATM    7  C   UNK N   1      37.455  14.112  10.819  0.00  0.00     0.692 A 
HETATM    8  N   UNK N   1      36.899  13.251  11.708  0.00  0.00    -0.175 N 
ATOM      9  HN  UNK N   1      37.354  12.359  11.900  1.00  0.00     0.186 HD
HETATM   10  N   UNK N   1      38.667  13.782  10.184  0.00  0.00    -0.234 N 
HETATM   11  N   UNK N   1      35.075  16.858  10.926  0.00  0.00    -0.234 N 
HETATM   12  H   UNK N   1      39.145  12.956  10.428  0.00  0.00     0.174 HD
HETATM   13  H   UNK N   1      39.037  14.378   9.493  0.00  0.00     0.174 HD
HETATM   14  H   UNK N   1      35.450  17.465  10.247  0.00  0.00     0.174 HD
HETATM   15  H   UNK N   1      34.266  17.118  11.424  0.00  0.00     0.174 HD
ENDROOT
BRANCH   1  16
HETATM   16  C   UNK N   1      35.187  12.635  13.366  0.00  0.00     0.032 A 
HETATM   17  C   UNK N   1      34.509  11.423  13.051  0.00  0.00     0.048 A 
HETATM   18  C   UNK N   1      33.984  10.637  14.083  0.00  0.00     0.026 A 
HETATM   19 Cl   UNK N   1      34.264  10.843  11.409  0.00  0.00    -0.083 Cl
HETATM   20  C   UNK N   1      34.119  11.024  15.416  0.00  0.00     0.025 A 
HETATM   21  C   UNK N   1      34.788  12.203  15.732  0.00  0.00     0.035 A 
HETATM   22  C   UNK N   1      35.314  13.000  14.717  0.00  0.00     0.041 A 
HETATM   23 Cl   UNK N   1      34.956  12.696  17.403  0.00  0.00    -0.084 Cl
ENDBRANCH   1  16
TORSDOF 1
ENDMDL
MODEL 4
REMARK VINA RESULT:      -6.0      7.051      9.096
REMARK  1 active torsions:
REMARK  status: ('A' for Active; 'I' for Inactive)
REMARK    1  A    between atoms: C_4  and  C_8 
REMARK       I    between atoms: C_11  and  N_18 
REMARK       I    between atoms: C_14  and  N_17 
ROOT
HETATM    1  C   UNK N   1      31.730  17.190   8.122  0.00  0.00     0.148 A 
HETATM    2  N   UNK N   1      32.776  18.045   7.979  0.00  0.00    -0.175 N 
ATOM      3  HN  UNK N   1      32.691  18.848   7.357  1.00  0.00     0.186 HD
HETATM    4  C   UNK N   1      33.932  17.836   8.656  0.00  0.00     0.692 A 
HETATM    5  N   UNK N   1      34.049  16.772   9.489  0.00  0.00    -0.023 N 
ATOM      6  HN  UNK N   1      34.915  16.620  10.005  1.00  0.00     0.203 HD
HETATM    7  C   UNK N   1      33.012  15.912   9.636  0.00  0.00     0.692 A 
HETATM    8  N   UNK N   1      31.857  16.120   8.954  0.00  0.00    -0.175 N 
ATOM      9  HN  UNK N   1      31.079  15.471   9.067  1.00  0.00     0.186 HD
HETATM   10  N   UNK N   1      33.123  14.816  10.512  0.00  0.00    -0.234 N 
HETATM   11  N   UNK N   1      35.004  18.738   8.511  0.00  0.00    -0.234 N 
HETATM   12  H   UNK N   1      32.346  14.235  10.680  0.00  0.00     0.174 HD
HETATM   13  H   UNK N   1      33.980  14.630  10.958  0.00  0.00     0.174 HD
HETATM   14  H   UNK N   1      35.859  18.564   8.967  0.00  0.00     0.174 HD
HETATM   15  H   UNK N   1      34.900  19.542   7.954  0.00  0.00     0.174 HD
ENDROOT
BRANCH   1  16
HETATM   16  C   UNK N   1      30.429  17.431   7.438  0.00  0.00     0.032 A 
HETATM   17  C   UNK N   1      29.285  17.991   8.076  0.00  0.00     0.048 A 
HETATM   18  C   UNK N   1      28.093  18.133   7.357  0.00  0.00     0.026 A 
HETATM   19 Cl   UNK N   1      29.265  18.510   9.756  0.00  0.00    -0.083 Cl
HETATM   20  C   UNK N   1      28.011  17.737   6.023  0.00  0.00     0.025 A 
HETATM   21  C   UNK N   1      29.127  17.197   5.389  0.00  0.00     0.035 A 
HETATM   22  C   UNK N   1      30.321  17.045   6.091  0.00  0.00     0.041 A 
HETATM   23 Cl   UNK N   1      29.029  16.694   3.716  0.00  0.00    -0.084 Cl
ENDBRANCH   1  16
TORSDOF 1
ENDMDL
MODEL 5
REMARK VINA RESULT:      -6.0      1.995      3.446
REMARK  1 active torsions:
REMARK  status: ('A' for Active; 'I' for Inactive)
REMARK    1  A    between atoms: C_4  and  C_8 
REMARK       I    between atoms: C_11  and  N_18 
REMARK       I    between atoms: C_14  and  N_17 
ROOT
HETATM    1  C   UNK N   1      35.824  12.695  13.280  0.00  0.00     0.148 A 
HETATM    2  N   UNK N   1      34.765  13.080  12.520  0.00  0.00    -0.175 N 
ATOM      3  HN  UNK N   1      33.822  13.034  12.906  1.00  0.00     0.186 HD
HETATM    4  C   UNK N   1      34.953  13.524  11.252  0.00  0.00     0.692 A 
HETATM    5  N   UNK N   1      36.206  13.594  10.737  0.00  0.00    -0.023 N 
ATOM      6  HN  UNK N   1      36.348  13.936   9.786  1.00  0.00     0.203 HD
HETATM    7  C   UNK N   1      37.267  13.209  11.485  0.00  0.00     0.692 A 
HETATM    8  N   UNK N   1      37.076  12.760  12.752  0.00  0.00    -0.175 N 
ATOM      9  HN  UNK N   1      37.877  12.471  13.312  1.00  0.00     0.186 HD
HETATM   10  N   UNK N   1      38.570  13.295  10.959  0.00  0.00    -0.234 N 
HETATM   11  N   UNK N   1      33.850  13.935  10.480  0.00  0.00    -0.234 N 
HETATM   12  H   UNK N   1      39.348  13.090  11.527  0.00  0.00     0.174 HD
HETATM   13  H   UNK N   1      38.703  13.561  10.021  0.00  0.00     0.174 HD
HETATM   14  H   UNK N   1      33.980  14.216   9.545  0.00  0.00     0.174 HD
HETATM   15  H   UNK N   1      32.948  13.942  10.874  0.00  0.00     0.174 HD
ENDROOT
BRANCH   1  16
HETATM   16  C   UNK N   1      35.649  12.262  14.694  0.00  0.00     0.032 A 
HETATM   17  C   UNK N   1      35.517  10.904  15.101  0.00  0.00     0.048 A 
HETATM   18  C   UNK N   1      35.309  10.604  16.452  0.00  0.00     0.026 A 
HETATM   19 Cl   UNK N   1      35.579   9.544  13.987  0.00  0.00    -0.083 Cl
HETATM   20  C   UNK N   1      35.232  11.619  17.406  0.00  0.00     0.025 A 
HETATM   21  C   UNK N   1      35.370  12.948  17.017  0.00  0.00     0.035 A 
HETATM   22  C   UNK N   1      35.574  13.265  15.676  0.00  0.00     0.041 A 
HETATM   23 Cl   UNK N   1      35.271  14.225  18.210  0.00  0.00    -0.084 Cl
ENDBRANCH   1  16
TORSDOF 1
ENDMDL
MODEL 6
REMARK VINA RESULT:      -6.0      1.938      2.853
REMARK  1 active torsions:
REMARK  status: ('A' for Active; 'I' for Inactive)
REMARK    1  A    between atoms: C_4  and  C_8 
REMARK       I    between atoms: C_11  and  N_18 
REMARK       I    between atoms: C_14  and  N_17 
ROOT
HETATM    1  C   UNK N   1      35.823  12.870  13.326  0.00  0.00     0.148 A 
HETATM    2  N   UNK N   1      37.051  12.900  12.746  0.00  0.00    -0.175 N 
ATOM      3  HN  UNK N   1      37.864  12.568  13.265  1.00  0.00     0.186 HD
HETATM    4  C   UNK N   1      37.205  13.369  11.483  0.00  0.00     0.692 A 
HETATM    5  N   UNK N   1      36.126  13.805  10.785  0.00  0.00    -0.023 N 
ATOM      6  HN  UNK N   1      36.240  14.150   9.833  1.00  0.00     0.203 HD
HETATM    7  C   UNK N   1      34.898  13.782  11.357  0.00  0.00     0.692 A 
HETATM    8  N   UNK N   1      34.748  13.317  12.622  0.00  0.00    -0.175 N 
ATOM      9  HN  UNK N   1      33.821  13.301  13.049  1.00  0.00     0.186 HD
HETATM   10  N   UNK N   1      33.774  14.219  10.630  0.00  0.00    -0.234 N 
HETATM   11  N   UNK N   1      38.480  13.381  10.887  0.00  0.00    -0.234 N 
HETATM   12  H   UNK N   1      32.871  14.131  11.013  0.00  0.00     0.174 HD
HETATM   13  H   UNK N   1      33.891  14.615   9.736  0.00  0.00     0.174 HD
HETATM   14  H   UNK N   1      38.600  13.762   9.987  0.00  0.00     0.174 HD
HETATM   15  H   UNK N   1      39.253  13.009  11.370  0.00  0.00     0.174 HD
ENDROOT
BRANCH   1  16
HETATM   16  C   UNK N   1      35.619  12.302  14.688  0.00  0.00     0.032 A 
HETATM   17  C   UNK N   1      35.480  10.911  14.958  0.00  0.00     0.048 A 
HETATM   18  C   UNK N   1      35.244  10.482  16.269  0.00  0.00     0.026 A 
HETATM   19 Cl   UNK N   1      35.567   9.665  13.719  0.00  0.00    -0.083 Cl
HETATM   20  C   UNK N   1      35.147  11.399  17.315  0.00  0.00     0.025 A 
HETATM   21  C   UNK N   1      35.291  12.760  17.060  0.00  0.00     0.035 A 
HETATM   22  C   UNK N   1      35.522  13.205  15.760  0.00  0.00     0.041 A 
HETATM   23 Cl   UNK N   1      35.165  13.916  18.369  0.00  0.00    -0.084 Cl
ENDBRANCH   1  16
TORSDOF 1
ENDMDL
MODEL 7
REMARK VINA RESULT:      -6.0      7.079      9.100
REMARK  1 active torsions:
REMARK  status: ('A' for Active; 'I' for Inactive)
REMARK    1  A    between atoms: C_4  and  C_8 
REMARK       I    between atoms: C_11  and  N_18 
REMARK       I    between atoms: C_14  and  N_17 
ROOT
HETATM    1  C   UNK N   1      31.670  17.192   8.174  0.00  0.00     0.148 A 
HETATM    2  N   UNK N   1      31.810  16.122   9.001  0.00  0.00    -0.175 N 
ATOM      3  HN  UNK N   1      31.033  15.475   9.128  1.00  0.00     0.186 HD
HETATM    4  C   UNK N   1      32.977  15.910   9.659  0.00  0.00     0.692 A 
HETATM    5  N   UNK N   1      34.017  16.764   9.489  0.00  0.00    -0.023 N 
ATOM      6  HN  UNK N   1      34.897  16.600   9.978  1.00  0.00     0.203 HD
HETATM    7  C   UNK N   1      33.885  17.835   8.670  0.00  0.00     0.692 A 
HETATM    8  N   UNK N   1      32.715  18.048   8.016  0.00  0.00    -0.175 N 
ATOM      9  HN  UNK N   1      32.620  18.855   7.400  1.00  0.00     0.186 HD
HETATM   10  N   UNK N   1      34.968  18.715   8.479  0.00  0.00    -0.234 N 
HETATM   11  N   UNK N   1      33.116  14.790  10.501  0.00  0.00    -0.234 N 
HETATM   12  H   UNK N   1      34.901  19.448   7.825  0.00  0.00     0.174 HD
HETATM   13  H   UNK N   1      35.794  18.596   9.000  0.00  0.00     0.174 HD
HETATM   14  H   UNK N   1      33.947  14.659  11.013  0.00  0.00     0.174 HD
HETATM   15  H   UNK N   1      32.383  14.138  10.577  0.00  0.00     0.174 HD
ENDROOT
BRANCH   1  16
HETATM   16  C   UNK N   1      30.421  17.412   7.393  0.00  0.00     0.032 A 
HETATM   17  C   UNK N   1      29.216  17.930   7.947  0.00  0.00     0.048 A 
HETATM   18  C   UNK N   1      28.081  18.054   7.139  0.00  0.00     0.026 A 
HETATM   19 Cl   UNK N   1      29.049  18.417   9.629  0.00  0.00    -0.083 Cl
HETATM   20  C   UNK N   1      28.115  17.681   5.796  0.00  0.00     0.025 A 
HETATM   21  C   UNK N   1      29.292  17.182   5.244  0.00  0.00     0.035 A 
HETATM   22  C   UNK N   1      30.431  17.048   6.036  0.00  0.00     0.041 A 
HETATM   23 Cl   UNK N   1      29.339  16.708   3.560  0.00  0.00    -0.084 Cl
ENDBRANCH   1  16
TORSDOF 1
ENDMDL
MODEL 8
REMARK VINA RESULT:      -5.8      8.093      9.770
REMARK  1 active torsions:
REMARK  status: ('A' for Active; 'I' for Inactive)
REMARK    1  A    between atoms: C_4  and  C_8 
REMARK       I    between atoms: C_11  and  N_18 
REMARK       I    between atoms: C_14  and  N_17 
ROOT
HETATM    1  C   UNK N   1      30.366  17.370   7.801  0.00  0.00     0.148 A 
HETATM    2  N   UNK N   1      30.439  16.805   9.034  0.00  0.00    -0.175 N 
ATOM      3  HN  UNK N   1      31.204  16.168   9.255  1.00  0.00     0.186 HD
HETATM    4  C   UNK N   1      29.501  17.081   9.974  0.00  0.00     0.692 A 
HETATM    5  N   UNK N   1      28.485  17.933   9.689  0.00  0.00    -0.023 N 
ATOM      6  HN  UNK N   1      27.784  18.147  10.398  1.00  0.00     0.203 HD
HETATM    7  C   UNK N   1      28.402  18.498   8.460  0.00  0.00     0.692 A 
HETATM    8  N   UNK N   1      29.339  18.217   7.520  0.00  0.00    -0.175 N 
ATOM      9  HN  UNK N   1      29.273  18.645   6.597  1.00  0.00     0.186 HD
HETATM   10  N   UNK N   1      27.357  19.395   8.166  0.00  0.00    -0.234 N 
HETATM   11  N   UNK N   1      29.595  16.501  11.254  0.00  0.00    -0.234 N 
HETATM   12  H   UNK N   1      27.339  19.867   7.302  0.00  0.00     0.174 HD
HETATM   13  H   UNK N   1      26.644  19.551   8.826  0.00  0.00     0.174 HD
HETATM   14  H   UNK N   1      28.892  16.666  11.923  0.00  0.00     0.174 HD
HETATM   15  H   UNK N   1      30.365  15.931  11.480  0.00  0.00     0.174 HD
ENDROOT
BRANCH   1  16
HETATM   16  C   UNK N   1      31.417  17.131   6.773  0.00  0.00     0.032 A 
HETATM   17  C   UNK N   1      32.764  17.577   6.893  0.00  0.00     0.048 A 
HETATM   18  C   UNK N   1      33.665  17.344   5.848  0.00  0.00     0.026 A 
HETATM   19 Cl   UNK N   1      33.382  18.441   8.295  0.00  0.00    -0.083 Cl
HETATM   20  C   UNK N   1      33.262  16.677   4.692  0.00  0.00     0.025 A 
HETATM   21  C   UNK N   1      31.949  16.230   4.571  0.00  0.00     0.035 A 
HETATM   22  C   UNK N   1      31.038  16.458   5.600  0.00  0.00     0.041 A 
HETATM   23 Cl   UNK N   1      31.437  15.397   3.119  0.00  0.00    -0.084 Cl
ENDBRANCH   1  16
TORSDOF 1
ENDMDL
MODEL 9
REMARK VINA RESULT:      -5.8      3.067      4.224
REMARK  1 active torsions:
REMARK  status: ('A' for Active; 'I' for Inactive)
REMARK    1  A    between atoms: C_4  and  C_8 
REMARK       I    between atoms: C_11  and  N_18 
REMARK       I    between atoms: C_14  and  N_17 
ROOT
HETATM    1  C   UNK N   1      35.300  12.285  15.893  0.00  0.00     0.148 A 
HETATM    2  N   UNK N   1      34.649  11.544  14.958  0.00  0.00    -0.175 N 
ATOM      3  HN  UNK N   1      34.130  10.714  15.242  1.00  0.00     0.186 HD
HETATM    4  C   UNK N   1      34.687  11.900  13.650  0.00  0.00     0.692 A 
HETATM    5  N   UNK N   1      35.371  13.007  13.267  0.00  0.00    -0.023 N 
ATOM      6  HN  UNK N   1      35.393  13.280  12.285  1.00  0.00     0.203 HD
HETATM    7  C   UNK N   1      36.026  13.750  14.192  0.00  0.00     0.692 A 
HETATM    8  N   UNK N   1      35.991  13.389  15.499  0.00  0.00    -0.175 N 
ATOM      9  HN  UNK N   1      36.485  13.951  16.193  1.00  0.00     0.186 HD
HETATM   10  N   UNK N   1      36.724  14.908  13.801  0.00  0.00    -0.234 N 
HETATM   11  N   UNK N   1      33.996  11.134  12.692  0.00  0.00    -0.234 N 
HETATM   12  H   UNK N   1      37.135  15.492  14.480  0.00  0.00     0.174 HD
HETATM   13  H   UNK N   1      36.802  15.135  12.846  0.00  0.00     0.174 HD
HETATM   14  H   UNK N   1      34.059  11.365  11.737  0.00  0.00     0.174 HD
HETATM   15  H   UNK N   1      33.451  10.366  12.976  0.00  0.00     0.174 HD
ENDROOT
BRANCH   1  16
HETATM   16  C   UNK N   1      35.223  11.950  17.342  0.00  0.00     0.032 A 
HETATM   17  C   UNK N   1      35.259  12.917  18.386  0.00  0.00     0.048 A 
HETATM   18  C   UNK N   1      35.228  12.496  19.720  0.00  0.00     0.026 A 
HETATM   19 Cl   UNK N   1      35.362  14.651  18.104  0.00  0.00    -0.083 Cl
HETATM   20  C   UNK N   1      35.159  11.141  20.041  0.00  0.00     0.025 A 
HETATM   21  C   UNK N   1      35.115  10.189  19.025  0.00  0.00     0.035 A 
HETATM   22  C   UNK N   1      35.148  10.591  17.692  0.00  0.00     0.041 A 
HETATM   23 Cl   UNK N   1      35.033   8.486  19.422  0.00  0.00    -0.084 Cl
ENDBRANCH   1  16
TORSDOF 1
ENDMDL
