MODEL 1
REMARK VINA RESULT:      -7.8      0.000      0.000
REMARK  6 active torsions:
REMARK  status: ('A' for Active; 'I' for Inactive)
REMARK    1  A    between atoms: C_18  and  C_2 
REMARK    2  A    between atoms: C_22  and  C_15 
REMARK    3  A    between atoms: N_32  and  C_20 
REMARK    4  A    between atoms: C_23  and  C_21 
REMARK    5  A    between atoms: O_33  and  C_23 
REMARK    6  A    between atoms: N_29  and  N_31 
ROOT
HETATM    1  C   UNK N   1      36.845  12.838  11.716  0.00  0.00     0.004 A 
HETATM    2  C   UNK N   1      36.253  14.073  11.798  0.00  0.00     0.109 A 
HETATM    3  C   UNK N   1      36.810  12.312  13.013  0.00  0.00     0.075 A 
HETATM    4  N   UNK N   1      35.851  14.284  13.058  0.00  0.00    -0.288 N 
ATOM      5  HN  UNK N   1      35.370  15.122  13.386  1.00  0.00     0.188 HD
HETATM    6  N   UNK N   1      36.172  13.245  13.819  0.00  0.00    -0.253 N 
ENDROOT
BRANCH   2   7
HETATM    7  C   UNK N   1      36.138  15.087  10.733  0.00  0.00     0.184 C 
HETATM    8  N   UNK N   1      35.196  14.978   9.853  0.00  0.00    -0.280 N 
ATOM      9  HN  UNK N   1      34.623  14.134   9.866  1.00  0.00     0.189 HD
BRANCH   8  10
HETATM   10  N   UNK N   1      34.918  15.936   8.895  0.00  0.00    -0.326 N 
HETATM   11  C   UNK N   1      34.423  17.227   9.302  0.00  0.00     0.142 C 
HETATM   12  C   UNK N   1      33.150  17.532   8.515  0.00  0.00     0.021 C 
HETATM   13  C   UNK N   1      33.417  17.401   7.013  0.00  0.00     0.003 C 
HETATM   14  C   UNK N   1      33.955  16.009   6.675  0.00  0.00     0.021 C 
HETATM   15  C   UNK N   1      35.212  15.734   7.490  0.00  0.00     0.142 C 
ENDBRANCH   8  10
BRANCH   7  16
HETATM   16  O   UNK N   1      36.997  16.126  10.708  0.00  0.00    -0.343 OA
HETATM   17  H   UNK N   1      37.897  15.989  10.485  0.00  0.00     0.219 HD
ENDBRANCH   7  16
ENDBRANCH   2   7
BRANCH   1  18
HETATM   18  C   UNK N   1      37.474  12.261  10.482  0.00  0.00     0.039 C 
HETATM   19  C   UNK N   1      38.869  12.823  10.289  0.00  0.00     0.010 C 
ENDBRANCH   1  18
BRANCH   3  20
HETATM   20  C   UNK N   1      37.451  10.979  13.356  0.00  0.00    -0.007 A 
HETATM   21  C   UNK N   1      37.036   9.760  12.811  0.00  0.00     0.015 A 
HETATM   22  C   UNK N   1      37.619   8.548  13.191  0.00  0.00     0.020 A 
HETATM   23  C   UNK N   1      38.634   8.534  14.145  0.00  0.00     0.011 A 
HETATM   24  C   UNK N   1      39.063   9.730  14.713  0.00  0.00     0.020 A 
HETATM   25 Br   UNK N   1      39.424   6.885  14.679  0.00  0.00    -0.051 Br
HETATM   26  C   UNK N   1      38.473  10.933  14.324  0.00  0.00     0.015 A 
ENDBRANCH   3  20
BRANCH   6  27
HETATM   27  C   UNK N   1      35.845  13.276  15.249  0.00  0.00     0.078 A 
HETATM   28  C   UNK N   1      35.016  12.305  15.820  0.00  0.00     0.035 A 
HETATM   29  C   UNK N   1      34.719  12.283  17.182  0.00  0.00     0.026 A 
HETATM   30  C   UNK N   1      35.248  13.253  18.021  0.00  0.00     0.035 A 
HETATM   31  C   UNK N   1      36.055  14.255  17.493  0.00  0.00     0.050 A 
HETATM   32 Cl   UNK N   1      34.911  13.211  19.738  0.00  0.00    -0.084 Cl
HETATM   33  C   UNK N   1      36.360  14.289  16.129  0.00  0.00     0.064 A 
HETATM   34 Cl   UNK N   1      37.401  15.620  15.625  0.00  0.00    -0.082 Cl
ENDBRANCH   6  27
TORSDOF 6
ENDMDL
MODEL 2
REMARK VINA RESULT:      -7.4      1.787      2.372
REMARK  6 active torsions:
REMARK  status: ('A' for Active; 'I' for Inactive)
REMARK    1  A    between atoms: C_18  and  C_2 
REMARK    2  A    between atoms: C_22  and  C_15 
REMARK    3  A    between atoms: N_32  and  C_20 
REMARK    4  A    between atoms: C_23  and  C_21 
REMARK    5  A    between atoms: O_33  and  C_23 
REMARK    6  A    between atoms: N_29  and  N_31 
ROOT
HETATM    1  C   UNK N   1      35.526  12.094  10.527  0.00  0.00     0.004 A 
HETATM    2  C   UNK N   1      35.094  13.393  10.636  0.00  0.00     0.109 A 
HETATM    3  C   UNK N   1      35.716  11.644  11.839  0.00  0.00     0.075 A 
HETATM    4  N   UNK N   1      34.996  13.714  11.932  0.00  0.00    -0.288 N 
ATOM      5  HN  UNK N   1      34.684  14.618  12.289  1.00  0.00     0.188 HD
HETATM    6  N   UNK N   1      35.364  12.686  12.686  0.00  0.00    -0.253 N 
ENDROOT
BRANCH   2   7
HETATM    7  C   UNK N   1      34.858  14.356   9.544  0.00  0.00     0.184 C 
HETATM    8  N   UNK N   1      33.644  14.673   9.229  0.00  0.00    -0.280 N 
ATOM      9  HN  UNK N   1      32.884  14.165   9.682  1.00  0.00     0.189 HD
BRANCH   8  10
HETATM   10  N   UNK N   1      33.313  15.656   8.316  0.00  0.00    -0.326 N 
HETATM   11  C   UNK N   1      32.999  15.289   6.958  0.00  0.00     0.142 C 
HETATM   12  C   UNK N   1      33.862  16.125   6.014  0.00  0.00     0.021 C 
HETATM   13  C   UNK N   1      33.688  17.615   6.324  0.00  0.00     0.003 C 
HETATM   14  C   UNK N   1      34.025  17.909   7.787  0.00  0.00     0.021 C 
HETATM   15  C   UNK N   1      33.159  17.046   8.696  0.00  0.00     0.142 C 
ENDBRANCH   8  10
BRANCH   7  16
HETATM   16  O   UNK N   1      35.910  14.913   8.910  0.00  0.00    -0.343 OA
HETATM   17  H   UNK N   1      36.605  14.374   8.587  0.00  0.00     0.219 HD
ENDBRANCH   7  16
ENDBRANCH   2   7
BRANCH   1  18
HETATM   18  C   UNK N   1      35.813  11.385   9.237  0.00  0.00     0.039 C 
HETATM   19  C   UNK N   1      37.274  11.543   8.862  0.00  0.00     0.010 C 
ENDBRANCH   1  18
BRANCH   3  20
HETATM   20  C   UNK N   1      36.276  10.266  12.142  0.00  0.00    -0.007 A 
HETATM   21  C   UNK N   1      35.517   9.093  12.075  0.00  0.00     0.015 A 
HETATM   22  C   UNK N   1      36.056   7.848  12.411  0.00  0.00     0.020 A 
HETATM   23  C   UNK N   1      37.380   7.756  12.836  0.00  0.00     0.011 A 
HETATM   24  C   UNK N   1      38.159   8.907  12.921  0.00  0.00     0.020 A 
HETATM   25 Br   UNK N   1      38.119   6.065  13.308  0.00  0.00    -0.051 Br
HETATM   26  C   UNK N   1      37.608  10.143  12.582  0.00  0.00     0.015 A 
ENDBRANCH   3  20
BRANCH   6  27
HETATM   27  C   UNK N   1      35.356  12.829  14.147  0.00  0.00     0.078 A 
HETATM   28  C   UNK N   1      36.179  13.763  14.784  0.00  0.00     0.035 A 
HETATM   29  C   UNK N   1      36.166  13.952  16.165  0.00  0.00     0.026 A 
HETATM   30  C   UNK N   1      35.317  13.193  16.959  0.00  0.00     0.035 A 
HETATM   31  C   UNK N   1      34.501  12.233  16.372  0.00  0.00     0.050 A 
HETATM   32 Cl   UNK N   1      35.267  13.449  18.690  0.00  0.00    -0.084 Cl
HETATM   33  C   UNK N   1      34.505  12.032  14.988  0.00  0.00     0.064 A 
HETATM   34 Cl   UNK N   1      33.407  10.783  14.407  0.00  0.00    -0.082 Cl
ENDBRANCH   6  27
TORSDOF 6
ENDMDL
MODEL 3
REMARK VINA RESULT:      -7.4      7.833     11.516
REMARK  6 active torsions:
REMARK  status: ('A' for Active; 'I' for Inactive)
REMARK    1  A    between atoms: C_18  and  C_2 
REMARK    2  A    between atoms: C_22  and  C_15 
REMARK    3  A    between atoms: N_32  and  C_20 
REMARK    4  A    between atoms: C_23  and  C_21 
REMARK    5  A    between atoms: O_33  and  C_23 
REMARK    6  A    between atoms: N_29  and  N_31 
ROOT
HETATM    1  C   UNK N   1      29.892  17.906   7.197  0.00  0.00     0.004 A 
HETATM    2  C   UNK N   1      29.042  17.932   6.120  0.00  0.00     0.109 A 
HETATM    3  C   UNK N   1      30.997  17.147   6.792  0.00  0.00     0.075 A 
HETATM    4  N   UNK N   1      29.599  17.259   5.105  0.00  0.00    -0.288 N 
ATOM      5  HN  UNK N   1      29.180  17.139   4.183  1.00  0.00     0.188 HD
HETATM    6  N   UNK N   1      30.777  16.771   5.474  0.00  0.00    -0.253 N 
ENDROOT
BRANCH   2   7
HETATM    7  C   UNK N   1      27.684  18.505   6.060  0.00  0.00     0.184 C 
HETATM    8  N   UNK N   1      27.028  18.469   4.945  0.00  0.00    -0.280 N 
ATOM      9  HN  UNK N   1      27.516  18.135   4.114  1.00  0.00     0.189 HD
BRANCH   8  10
HETATM   10  N   UNK N   1      25.708  18.857   4.812  0.00  0.00    -0.326 N 
HETATM   11  C   UNK N   1      24.657  17.917   5.112  0.00  0.00     0.142 C 
HETATM   12  C   UNK N   1      23.700  17.859   3.922  0.00  0.00     0.021 C 
HETATM   13  C   UNK N   1      23.211  19.267   3.572  0.00  0.00     0.003 C 
HETATM   14  C   UNK N   1      24.391  20.199   3.287  0.00  0.00     0.021 C 
HETATM   15  C   UNK N   1      25.330  20.217   4.486  0.00  0.00     0.142 C 
ENDBRANCH   8  10
BRANCH   7  16
HETATM   16  O   UNK N   1      27.135  19.030   7.174  0.00  0.00    -0.343 OA
HETATM   17  H   UNK N   1      27.624  19.630   7.703  0.00  0.00     0.219 HD
ENDBRANCH   7  16
ENDBRANCH   2   7
BRANCH   1  18
HETATM   18  C   UNK N   1      29.600  18.500   8.543  0.00  0.00     0.039 C 
HETATM   19  C   UNK N   1      29.051  17.442   9.480  0.00  0.00     0.010 C 
ENDBRANCH   1  18
BRANCH   3  20
HETATM   20  C   UNK N   1      32.133  16.813   7.742  0.00  0.00    -0.007 A 
HETATM   21  C   UNK N   1      32.178  15.646   8.511  0.00  0.00     0.015 A 
HETATM   22  C   UNK N   1      33.217  15.399   9.413  0.00  0.00     0.020 A 
HETATM   23  C   UNK N   1      34.237  16.336   9.571  0.00  0.00     0.011 A 
HETATM   24  C   UNK N   1      34.216  17.512   8.827  0.00  0.00     0.020 A 
HETATM   25 Br   UNK N   1      35.650  16.014  10.808  0.00  0.00    -0.051 Br
HETATM   26  C   UNK N   1      33.173  17.744   7.929  0.00  0.00     0.015 A 
ENDBRANCH   3  20
BRANCH   6  27
HETATM   27  C   UNK N   1      31.554  15.973   4.518  0.00  0.00     0.078 A 
HETATM   28  C   UNK N   1      32.646  16.524   3.839  0.00  0.00     0.035 A 
HETATM   29  C   UNK N   1      33.429  15.783   2.956  0.00  0.00     0.026 A 
HETATM   30  C   UNK N   1      33.128  14.448   2.719  0.00  0.00     0.035 A 
HETATM   31  C   UNK N   1      32.035  13.866   3.349  0.00  0.00     0.050 A 
HETATM   32 Cl   UNK N   1      34.128  13.500   1.640  0.00  0.00    -0.084 Cl
HETATM   33  C   UNK N   1      31.241  14.599   4.237  0.00  0.00     0.064 A 
HETATM   34 Cl   UNK N   1      29.899  13.709   4.955  0.00  0.00    -0.082 Cl
ENDBRANCH   6  27
TORSDOF 6
ENDMDL
MODEL 4
REMARK VINA RESULT:      -7.3      2.111      2.619
REMARK  6 active torsions:
REMARK  status: ('A' for Active; 'I' for Inactive)
REMARK    1  A    between atoms: C_18  and  C_2 
REMARK    2  A    between atoms: C_22  and  C_15 
REMARK    3  A    between atoms: N_32  and  C_20 
REMARK    4  A    between atoms: C_23  and  C_21 
REMARK    5  A    between atoms: O_33  and  C_23 
REMARK    6  A    between atoms: N_29  and  N_31 
ROOT
HETATM    1  C   UNK N   1      35.123  12.241  10.268  0.00  0.00     0.004 A 
HETATM    2  C   UNK N   1      34.624  13.506  10.452  0.00  0.00     0.109 A 
HETATM    3  C   UNK N   1      35.484  11.785  11.543  0.00  0.00     0.075 A 
HETATM    4  N   UNK N   1      34.646  13.801  11.757  0.00  0.00    -0.288 N 
ATOM      5  HN  UNK N   1      34.318  14.677  12.165  1.00  0.00     0.188 HD
HETATM    6  N   UNK N   1      35.160  12.789  12.445  0.00  0.00    -0.253 N 
ENDROOT
BRANCH   2   7
HETATM    7  C   UNK N   1      34.209  14.467   9.413  0.00  0.00     0.184 C 
HETATM    8  N   UNK N   1      35.075  15.303   8.939  0.00  0.00    -0.280 N 
ATOM      9  HN  UNK N   1      35.996  15.336   9.375  1.00  0.00     0.189 HD
BRANCH   8  10
HETATM   10  N   UNK N   1      34.829  16.154   7.877  0.00  0.00    -0.326 N 
HETATM   11  C   UNK N   1      34.562  17.548   8.131  0.00  0.00     0.142 C 
HETATM   12  C   UNK N   1      33.265  17.933   7.423  0.00  0.00     0.021 C 
HETATM   13  C   UNK N   1      33.346  17.563   5.939  0.00  0.00     0.003 C 
HETATM   14  C   UNK N   1      33.648  16.073   5.765  0.00  0.00     0.021 C 
HETATM   15  C   UNK N   1      34.937  15.723   6.498  0.00  0.00     0.142 C 
ENDBRANCH   8  10
BRANCH   7  16
HETATM   16  O   UNK N   1      32.941  14.442   8.952  0.00  0.00    -0.343 OA
HETATM   17  H   UNK N   1      32.369  15.168   9.107  0.00  0.00     0.219 HD
ENDBRANCH   7  16
ENDBRANCH   2   7
BRANCH   1  18
HETATM   18  C   UNK N   1      35.314  11.571   8.940  0.00  0.00     0.039 C 
HETATM   19  C   UNK N   1      36.686  11.891   8.379  0.00  0.00     0.010 C 
ENDBRANCH   1  18
BRANCH   3  20
HETATM   20  C   UNK N   1      36.161  10.443  11.753  0.00  0.00    -0.007 A 
HETATM   21  C   UNK N   1      37.548  10.274  11.783  0.00  0.00     0.015 A 
HETATM   22  C   UNK N   1      38.133   9.013  11.928  0.00  0.00     0.020 A 
HETATM   23  C   UNK N   1      37.328   7.882  12.036  0.00  0.00     0.011 A 
HETATM   24  C   UNK N   1      35.942   8.015  12.001  0.00  0.00     0.020 A 
HETATM   25 Br   UNK N   1      38.116   6.158  12.221  0.00  0.00    -0.051 Br
HETATM   26  C   UNK N   1      35.372   9.281  11.857  0.00  0.00     0.015 A 
ENDBRANCH   3  20
BRANCH   6  27
HETATM   27  C   UNK N   1      35.302  12.910  13.901  0.00  0.00     0.078 A 
HETATM   28  C   UNK N   1      36.166  13.853  14.465  0.00  0.00     0.035 A 
HETATM   29  C   UNK N   1      36.293  14.022  15.843  0.00  0.00     0.026 A 
HETATM   30  C   UNK N   1      35.550  13.230  16.707  0.00  0.00     0.035 A 
HETATM   31  C   UNK N   1      34.698  12.259  16.193  0.00  0.00     0.050 A 
HETATM   32 Cl   UNK N   1      35.676  13.459  18.438  0.00  0.00    -0.084 Cl
HETATM   33  C   UNK N   1      34.562  12.080  14.812  0.00  0.00     0.064 A 
HETATM   34 Cl   UNK N   1      33.437  10.812  14.327  0.00  0.00    -0.082 Cl
ENDBRANCH   6  27
TORSDOF 6
ENDMDL
MODEL 5
REMARK VINA RESULT:      -7.3      7.420     12.442
REMARK  6 active torsions:
REMARK  status: ('A' for Active; 'I' for Inactive)
REMARK    1  A    between atoms: C_18  and  C_2 
REMARK    2  A    between atoms: C_22  and  C_15 
REMARK    3  A    between atoms: N_32  and  C_20 
REMARK    4  A    between atoms: C_23  and  C_21 
REMARK    5  A    between atoms: O_33  and  C_23 
REMARK    6  A    between atoms: N_29  and  N_31 
ROOT
HETATM    1  C   UNK N   1      30.268  16.667   7.206  0.00  0.00     0.004 A 
HETATM    2  C   UNK N   1      31.197  15.663   7.323  0.00  0.00     0.109 A 
HETATM    3  C   UNK N   1      29.489  16.337   6.090  0.00  0.00     0.075 A 
HETATM    4  N   UNK N   1      30.986  14.757   6.360  0.00  0.00    -0.288 N 
ATOM      5  HN  UNK N   1      31.531  13.903   6.231  1.00  0.00     0.188 HD
HETATM    6  N   UNK N   1      29.966  15.130   5.598  0.00  0.00    -0.253 N 
ENDROOT
BRANCH   2   7
HETATM    7  C   UNK N   1      32.326  15.590   8.269  0.00  0.00     0.184 C 
HETATM    8  N   UNK N   1      33.534  15.737   7.828  0.00  0.00    -0.280 N 
ATOM      9  HN  UNK N   1      33.671  15.797   6.819  1.00  0.00     0.189 HD
BRANCH   8  10
HETATM   10  N   UNK N   1      34.649  15.815   8.641  0.00  0.00    -0.326 N 
HETATM   11  C   UNK N   1      35.595  14.727   8.658  0.00  0.00     0.142 C 
HETATM   12  C   UNK N   1      35.823  14.303  10.108  0.00  0.00     0.021 C 
HETATM   13  C   UNK N   1      36.234  15.513  10.951  0.00  0.00     0.003 C 
HETATM   14  C   UNK N   1      35.185  16.623  10.859  0.00  0.00     0.021 C 
HETATM   15  C   UNK N   1      34.971  17.006   9.401  0.00  0.00     0.142 C 
ENDBRANCH   8  10
BRANCH   7  16
HETATM   16  O   UNK N   1      32.082  15.399   9.582  0.00  0.00    -0.343 OA
HETATM   17  H   UNK N   1      31.783  16.111  10.113  0.00  0.00     0.219 HD
ENDBRANCH   7  16
ENDBRANCH   2   7
BRANCH   1  18
HETATM   18  C   UNK N   1      30.209  17.894   8.066  0.00  0.00     0.039 C 
HETATM   19  C   UNK N   1      29.187  17.716   9.173  0.00  0.00     0.010 C 
ENDBRANCH   1  18
BRANCH   3  20
HETATM   20  C   UNK N   1      28.393  17.253   5.577  0.00  0.00    -0.007 A 
HETATM   21  C   UNK N   1      27.034  16.929   5.616  0.00  0.00     0.015 A 
HETATM   22  C   UNK N   1      26.059  17.779   5.086  0.00  0.00     0.020 A 
HETATM   23  C   UNK N   1      26.434  18.981   4.491  0.00  0.00     0.011 A 
HETATM   24  C   UNK N   1      27.781  19.329   4.429  0.00  0.00     0.020 A 
HETATM   25 Br   UNK N   1      25.113  20.140   3.755  0.00  0.00    -0.051 Br
HETATM   26  C   UNK N   1      28.744  18.471   4.963  0.00  0.00     0.015 A 
ENDBRANCH   3  20
BRANCH   6  27
HETATM   27  C   UNK N   1      29.576  14.289   4.459  0.00  0.00     0.078 A 
HETATM   28  C   UNK N   1      29.089  12.993   4.655  0.00  0.00     0.035 A 
HETATM   29  C   UNK N   1      28.672  12.184   3.599  0.00  0.00     0.026 A 
HETATM   30  C   UNK N   1      28.741  12.658   2.296  0.00  0.00     0.035 A 
HETATM   31  C   UNK N   1      29.245  13.930   2.051  0.00  0.00     0.050 A 
HETATM   32 Cl   UNK N   1      28.186  11.662   0.967  0.00  0.00    -0.084 Cl
HETATM   33  C   UNK N   1      29.668  14.751   3.101  0.00  0.00     0.064 A 
HETATM   34 Cl   UNK N   1      30.274  16.335   2.620  0.00  0.00    -0.082 Cl
ENDBRANCH   6  27
TORSDOF 6
ENDMDL
MODEL 6
REMARK VINA RESULT:      -7.3     13.025     15.175
REMARK  6 active torsions:
REMARK  status: ('A' for Active; 'I' for Inactive)
REMARK    1  A    between atoms: C_18  and  C_2 
REMARK    2  A    between atoms: C_22  and  C_15 
REMARK    3  A    between atoms: N_32  and  C_20 
REMARK    4  A    between atoms: C_23  and  C_21 
REMARK    5  A    between atoms: O_33  and  C_23 
REMARK    6  A    between atoms: N_29  and  N_31 
ROOT
HETATM    1  C   UNK N   1      23.203  14.473   4.887  0.00  0.00     0.004 A 
HETATM    2  C   UNK N   1      23.939  15.426   5.546  0.00  0.00     0.109 A 
HETATM    3  C   UNK N   1      22.843  13.531   5.860  0.00  0.00     0.075 A 
HETATM    4  N   UNK N   1      24.004  15.110   6.845  0.00  0.00    -0.288 N 
ATOM      5  HN  UNK N   1      24.483  15.662   7.558  1.00  0.00     0.188 HD
HETATM    6  N   UNK N   1      23.356  13.974   7.071  0.00  0.00    -0.253 N 
ENDROOT
BRANCH   2   7
HETATM    7  C   UNK N   1      24.650  16.577   4.957  0.00  0.00     0.184 C 
HETATM    8  N   UNK N   1      24.271  17.777   5.255  0.00  0.00    -0.280 N 
ATOM      9  HN  UNK N   1      23.423  17.887   5.811  1.00  0.00     0.189 HD
BRANCH   8  10
HETATM   10  N   UNK N   1      24.944  18.920   4.866  0.00  0.00    -0.326 N 
HETATM   11  C   UNK N   1      24.361  19.784   3.870  0.00  0.00     0.142 C 
HETATM   12  C   UNK N   1      25.393  20.026   2.769  0.00  0.00     0.021 C 
HETATM   13  C   UNK N   1      26.697  20.550   3.378  0.00  0.00     0.003 C 
HETATM   14  C   UNK N   1      27.233  19.581   4.434  0.00  0.00     0.021 C 
HETATM   15  C   UNK N   1      26.172  19.351   5.503  0.00  0.00     0.142 C 
ENDBRANCH   8  10
BRANCH   7  16
HETATM   16  O   UNK N   1      25.702  16.362   4.141  0.00  0.00    -0.343 OA
HETATM   17  H   UNK N   1      26.517  16.798   4.296  0.00  0.00     0.219 HD
ENDBRANCH   7  16
ENDBRANCH   2   7
BRANCH   1  18
HETATM   18  C   UNK N   1      22.952  14.444   3.409  0.00  0.00     0.039 C 
HETATM   19  C   UNK N   1      21.657  15.161   3.079  0.00  0.00     0.010 C 
ENDBRANCH   1  18
BRANCH   3  20
HETATM   20  C   UNK N   1      22.084  12.265   5.508  0.00  0.00    -0.007 A 
HETATM   21  C   UNK N   1      22.688  11.132   4.953  0.00  0.00     0.015 A 
HETATM   22  C   UNK N   1      21.945  10.004   4.595  0.00  0.00     0.020 A 
HETATM   23  C   UNK N   1      20.564   9.993   4.779  0.00  0.00     0.011 A 
HETATM   24  C   UNK N   1      19.932  11.109   5.321  0.00  0.00     0.020 A 
HETATM   25 Br   UNK N   1      19.543   8.464   4.282  0.00  0.00    -0.051 Br
HETATM   26  C   UNK N   1      20.686  12.229   5.675  0.00  0.00     0.015 A 
ENDBRANCH   3  20
BRANCH   6  27
HETATM   27  C   UNK N   1      23.322  13.427   8.433  0.00  0.00     0.078 A 
HETATM   28  C   UNK N   1      24.449  12.817   8.993  0.00  0.00     0.035 A 
HETATM   29  C   UNK N   1      24.462  12.325  10.297  0.00  0.00     0.026 A 
HETATM   30  C   UNK N   1      23.324  12.425  11.085  0.00  0.00     0.035 A 
HETATM   31  C   UNK N   1      22.171  12.998  10.561  0.00  0.00     0.050 A 
HETATM   32 Cl   UNK N   1      23.343  11.842  12.735  0.00  0.00    -0.084 Cl
HETATM   33  C   UNK N   1      22.144  13.495   9.254  0.00  0.00     0.064 A 
HETATM   34 Cl   UNK N   1      20.608  14.196   8.748  0.00  0.00    -0.082 Cl
ENDBRANCH   6  27
TORSDOF 6
ENDMDL
MODEL 7
REMARK VINA RESULT:      -7.2      3.107      4.531
REMARK  6 active torsions:
REMARK  status: ('A' for Active; 'I' for Inactive)
REMARK    1  A    between atoms: C_18  and  C_2 
REMARK    2  A    between atoms: C_22  and  C_15 
REMARK    3  A    between atoms: N_32  and  C_20 
REMARK    4  A    between atoms: C_23  and  C_21 
REMARK    5  A    between atoms: O_33  and  C_23 
REMARK    6  A    between atoms: N_29  and  N_31 
ROOT
HETATM    1  C   UNK N   1      34.866  14.486   8.979  0.00  0.00     0.004 A 
HETATM    2  C   UNK N   1      33.873  15.129   9.674  0.00  0.00     0.109 A 
HETATM    3  C   UNK N   1      35.522  13.675   9.914  0.00  0.00     0.075 A 
HETATM    4  N   UNK N   1      33.893  14.719  10.949  0.00  0.00    -0.288 N 
ATOM      5  HN  UNK N   1      33.249  15.033  11.675  1.00  0.00     0.188 HD
HETATM    6  N   UNK N   1      34.875  13.844  11.130  0.00  0.00    -0.253 N 
ENDROOT
BRANCH   2   7
HETATM    7  C   UNK N   1      32.965  16.181   9.178  0.00  0.00     0.184 C 
HETATM    8  N   UNK N   1      31.762  15.864   8.821  0.00  0.00    -0.280 N 
ATOM      9  HN  UNK N   1      31.514  14.875   8.799  1.00  0.00     0.189 HD
BRANCH   8  10
HETATM   10  N   UNK N   1      30.794  16.785   8.467  0.00  0.00    -0.326 N 
HETATM   11  C   UNK N   1      30.080  17.498   9.497  0.00  0.00     0.142 C 
HETATM   12  C   UNK N   1      28.580  17.344   9.247  0.00  0.00     0.021 C 
HETATM   13  C   UNK N   1      28.238  17.781   7.819  0.00  0.00     0.003 C 
HETATM   14  C   UNK N   1      29.053  16.987   6.797  0.00  0.00     0.021 C 
HETATM   15  C   UNK N   1      30.539  17.150   7.088  0.00  0.00     0.142 C 
ENDBRANCH   8  10
BRANCH   7  16
HETATM   16  O   UNK N   1      33.392  17.459   9.131  0.00  0.00    -0.343 OA
HETATM   17  H   UNK N   1      32.936  18.126   9.606  0.00  0.00     0.219 HD
ENDBRANCH   7  16
ENDBRANCH   2   7
BRANCH   1  18
HETATM   18  C   UNK N   1      35.201  14.719   7.536  0.00  0.00     0.039 C 
HETATM   19  C   UNK N   1      34.442  13.746   6.654  0.00  0.00     0.010 C 
ENDBRANCH   1  18
BRANCH   3  20
HETATM   20  C   UNK N   1      36.748  12.859   9.548  0.00  0.00    -0.007 A 
HETATM   21  C   UNK N   1      36.688  11.540   9.087  0.00  0.00     0.015 A 
HETATM   22  C   UNK N   1      37.844  10.805   8.809  0.00  0.00     0.020 A 
HETATM   23  C   UNK N   1      39.097  11.382   9.000  0.00  0.00     0.011 A 
HETATM   24  C   UNK N   1      39.191  12.690   9.466  0.00  0.00     0.020 A 
HETATM   25 Br   UNK N   1      40.678  10.382   8.636  0.00  0.00    -0.051 Br
HETATM   26  C   UNK N   1      38.029  13.413   9.739  0.00  0.00     0.015 A 
ENDBRANCH   3  20
BRANCH   6  27
HETATM   27  C   UNK N   1      35.095  13.282  12.468  0.00  0.00     0.078 A 
HETATM   28  C   UNK N   1      35.656  14.053  13.491  0.00  0.00     0.035 A 
HETATM   29  C   UNK N   1      35.840  13.562  14.782  0.00  0.00     0.026 A 
HETATM   30  C   UNK N   1      35.469  12.259  15.086  0.00  0.00     0.035 A 
HETATM   31  C   UNK N   1      34.933  11.446  14.094  0.00  0.00     0.050 A 
HETATM   32 Cl   UNK N   1      35.663  11.646  16.714  0.00  0.00    -0.084 Cl
HETATM   33  C   UNK N   1      34.744  11.927  12.794  0.00  0.00     0.064 A 
HETATM   34 Cl   UNK N   1      34.049  10.770  11.660  0.00  0.00    -0.082 Cl
ENDBRANCH   6  27
TORSDOF 6
ENDMDL
MODEL 8
REMARK VINA RESULT:      -7.1      3.985      8.280
REMARK  6 active torsions:
REMARK  status: ('A' for Active; 'I' for Inactive)
REMARK    1  A    between atoms: C_18  and  C_2 
REMARK    2  A    between atoms: C_22  and  C_15 
REMARK    3  A    between atoms: N_32  and  C_20 
REMARK    4  A    between atoms: C_23  and  C_21 
REMARK    5  A    between atoms: O_33  and  C_23 
REMARK    6  A    between atoms: N_29  and  N_31 
ROOT
HETATM    1  C   UNK N   1      35.819  14.032  10.095  0.00  0.00     0.004 A 
HETATM    2  C   UNK N   1      35.368  14.559  11.279  0.00  0.00     0.109 A 
HETATM    3  C   UNK N   1      34.956  14.524   9.107  0.00  0.00     0.075 A 
HETATM    4  N   UNK N   1      34.315  15.349  11.036  0.00  0.00    -0.288 N 
ATOM      5  HN  UNK N   1      33.800  15.872  11.745  1.00  0.00     0.188 HD
HETATM    6  N   UNK N   1      34.037  15.351   9.738  0.00  0.00    -0.253 N 
ENDROOT
BRANCH   2   7
HETATM    7  C   UNK N   1      35.860  14.263  12.638  0.00  0.00     0.184 C 
HETATM    8  N   UNK N   1      35.417  13.218  13.260  0.00  0.00    -0.280 N 
ATOM      9  HN  UNK N   1      34.662  12.687  12.825  1.00  0.00     0.189 HD
BRANCH   8  10
HETATM   10  N   UNK N   1      35.904  12.778  14.476  0.00  0.00    -0.326 N 
HETATM   11  C   UNK N   1      37.037  11.888  14.509  0.00  0.00     0.142 C 
HETATM   12  C   UNK N   1      36.680  10.673  15.362  0.00  0.00     0.021 C 
HETATM   13  C   UNK N   1      36.189  11.124  16.741  0.00  0.00     0.003 C 
HETATM   14  C   UNK N   1      34.999  12.077  16.610  0.00  0.00     0.021 C 
HETATM   15  C   UNK N   1      35.387  13.265  15.739  0.00  0.00     0.142 C 
ENDBRANCH   8  10
BRANCH   7  16
HETATM   16  O   UNK N   1      36.783  15.069  13.202  0.00  0.00    -0.343 OA
HETATM   17  H   UNK N   1      36.613  15.985  13.298  0.00  0.00     0.219 HD
ENDBRANCH   7  16
ENDBRANCH   2   7
BRANCH   1  18
HETATM   18  C   UNK N   1      36.948  13.055   9.957  0.00  0.00     0.039 C 
HETATM   19  C   UNK N   1      38.264  13.788   9.784  0.00  0.00     0.010 C 
ENDBRANCH   1  18
BRANCH   3  20
HETATM   20  C   UNK N   1      35.074  14.098   7.655  0.00  0.00    -0.007 A 
HETATM   21  C   UNK N   1      34.561  12.895   7.159  0.00  0.00     0.015 A 
HETATM   22  C   UNK N   1      34.735  12.516   5.826  0.00  0.00     0.020 A 
HETATM   23  C   UNK N   1      35.444  13.341   4.955  0.00  0.00     0.011 A 
HETATM   24  C   UNK N   1      35.975  14.541   5.420  0.00  0.00     0.020 A 
HETATM   25 Br   UNK N   1      35.697  12.825   3.139  0.00  0.00    -0.051 Br
HETATM   26  C   UNK N   1      35.793  14.908   6.754  0.00  0.00     0.015 A 
ENDBRANCH   3  20
BRANCH   6  27
HETATM   27  C   UNK N   1      32.897  16.136   9.251  0.00  0.00     0.078 A 
HETATM   28  C   UNK N   1      31.585  15.676   9.407  0.00  0.00     0.035 A 
HETATM   29  C   UNK N   1      30.479  16.417   8.993  0.00  0.00     0.026 A 
HETATM   30  C   UNK N   1      30.661  17.655   8.393  0.00  0.00     0.035 A 
HETATM   31  C   UNK N   1      31.948  18.140   8.191  0.00  0.00     0.050 A 
HETATM   32 Cl   UNK N   1      29.277  18.607   7.902  0.00  0.00    -0.084 Cl
HETATM   33  C   UNK N   1      33.067  17.407   8.601  0.00  0.00     0.064 A 
HETATM   34 Cl   UNK N   1      34.623  18.167   8.276  0.00  0.00    -0.082 Cl
ENDBRANCH   6  27
TORSDOF 6
ENDMDL
MODEL 9
REMARK VINA RESULT:      -7.1      6.716     11.683
REMARK  6 active torsions:
REMARK  status: ('A' for Active; 'I' for Inactive)
REMARK    1  A    between atoms: C_18  and  C_2 
REMARK    2  A    between atoms: C_22  and  C_15 
REMARK    3  A    between atoms: N_32  and  C_20 
REMARK    4  A    between atoms: C_23  and  C_21 
REMARK    5  A    between atoms: O_33  and  C_23 
REMARK    6  A    between atoms: N_29  and  N_31 
ROOT
HETATM    1  C   UNK N   1      31.504  16.189   7.681  0.00  0.00     0.004 A 
HETATM    2  C   UNK N   1      32.246  15.036   7.640  0.00  0.00     0.109 A 
HETATM    3  C   UNK N   1      30.573  16.081   6.640  0.00  0.00     0.075 A 
HETATM    4  N   UNK N   1      31.786  14.252   6.657  0.00  0.00    -0.288 N 
ATOM      5  HN  UNK N   1      32.155  13.331   6.422  1.00  0.00     0.188 HD
HETATM    6  N   UNK N   1      30.779  14.850   6.032  0.00  0.00    -0.253 N 
ENDROOT
BRANCH   2   7
HETATM    7  C   UNK N   1      33.431  14.701   8.452  0.00  0.00     0.184 C 
HETATM    8  N   UNK N   1      33.270  14.150   9.612  0.00  0.00    -0.280 N 
ATOM      9  HN  UNK N   1      32.320  14.058   9.971  1.00  0.00     0.189 HD
BRANCH   8  10
HETATM   10  N   UNK N   1      34.308  13.679  10.395  0.00  0.00    -0.326 N 
HETATM   11  C   UNK N   1      34.819  14.498  11.465  0.00  0.00     0.142 C 
HETATM   12  C   UNK N   1      36.335  14.610  11.312  0.00  0.00     0.021 C 
HETATM   13  C   UNK N   1      36.960  13.214  11.227  0.00  0.00     0.003 C 
HETATM   14  C   UNK N   1      36.346  12.412  10.078  0.00  0.00     0.021 C 
HETATM   15  C   UNK N   1      34.835  12.336  10.256  0.00  0.00     0.142 C 
ENDBRANCH   8  10
BRANCH   7  16
HETATM   16  O   UNK N   1      34.664  14.947   7.963  0.00  0.00    -0.343 OA
HETATM   17  H   UNK N   1      34.766  15.364   7.130  0.00  0.00     0.219 HD
ENDBRANCH   7  16
ENDBRANCH   2   7
BRANCH   1  18
HETATM   18  C   UNK N   1      31.748  17.342   8.609  0.00  0.00     0.039 C 
HETATM   19  C   UNK N   1      32.877  18.210   8.088  0.00  0.00     0.010 C 
ENDBRANCH   1  18
BRANCH   3  20
HETATM   20  C   UNK N   1      29.614  17.206   6.300  0.00  0.00    -0.007 A 
HETATM   21  C   UNK N   1      29.473  17.740   5.016  0.00  0.00     0.015 A 
HETATM   22  C   UNK N   1      28.615  18.812   4.754  0.00  0.00     0.020 A 
HETATM   23  C   UNK N   1      27.880  19.383   5.791  0.00  0.00     0.011 A 
HETATM   24  C   UNK N   1      28.005  18.880   7.083  0.00  0.00     0.020 A 
HETATM   25 Br   UNK N   1      26.718  20.852   5.446  0.00  0.00    -0.051 Br
HETATM   26  C   UNK N   1      28.865  17.809   7.330  0.00  0.00     0.015 A 
ENDBRANCH   3  20
BRANCH   6  27
HETATM   27  C   UNK N   1      30.137  14.174   4.897  0.00  0.00     0.078 A 
HETATM   28  C   UNK N   1      28.849  13.643   5.010  0.00  0.00     0.035 A 
HETATM   29  C   UNK N   1      28.196  13.032   3.941  0.00  0.00     0.026 A 
HETATM   30  C   UNK N   1      28.831  12.928   2.711  0.00  0.00     0.035 A 
HETATM   31  C   UNK N   1      30.123  13.417   2.560  0.00  0.00     0.050 A 
HETATM   32 Cl   UNK N   1      28.005  12.195   1.353  0.00  0.00    -0.084 Cl
HETATM   33  C   UNK N   1      30.790  14.031   3.625  0.00  0.00     0.064 A 
HETATM   34 Cl   UNK N   1      32.418  14.601   3.263  0.00  0.00    -0.082 Cl
ENDBRANCH   6  27
TORSDOF 6
ENDMDL
