MODEL 1
REMARK VINA RESULT:      -8.0      0.000      0.000
REMARK  7 active torsions:
REMARK  status: ('A' for Active; 'I' for Inactive)
REMARK    1  A    between atoms: C_12  and  C_11 
REMARK    2  A    between atoms: C_21  and  C_11 
REMARK    3  A    between atoms: N_24  and  C_12 
REMARK    4  A    between atoms: C_15  and  N_23 
REMARK    5  A    between atoms: S_29  and  C_16 
REMARK    6  A    between atoms: O_26  and  C_21 
REMARK    7  A    between atoms: S_29  and  N_23 
ROOT
HETATM    1  C   UNK N   1      20.489  14.423   0.777  0.00  0.00     0.001 A 
HETATM    2  C   UNK N   1      19.627  15.514   0.518  0.00  0.00     0.002 A 
HETATM    3  C   UNK N   1      21.499  14.525   1.754  0.00  0.00     0.014 A 
HETATM    4  C   UNK N   1      19.762  16.717   1.234  0.00  0.00     0.030 A 
HETATM    5  C   UNK N   1      24.163  17.599   5.209  0.00  0.00     0.032 C 
HETATM    6  C   UNK N   1      22.836  18.255   4.788  0.00  0.00     0.060 C 
HETATM    7  C   UNK N   1      23.616  15.397   4.054  0.00  0.00     0.067 C 
HETATM    8  C   UNK N   1      24.088  16.070   5.365  0.00  0.00     0.098 C 
HETATM    9  C   UNK N   1      21.605  15.726   2.449  0.00  0.00    -0.001 A 
HETATM   10  C   UNK N   1      22.477  16.134   3.436  0.00  0.00    -0.021 A 
HETATM   11  C   UNK N   1      20.767  16.785   2.202  0.00  0.00     0.045 A 
HETATM   12  C   UNK N   1      22.130  17.431   3.754  0.00  0.00     0.019 A 
HETATM   13  N   UNK N   1      21.085  17.832   2.989  0.00  0.00    -0.349 N 
ENDROOT
BRANCH   8  14
HETATM   14  N   UNK N   1      23.235  15.712   6.535  0.00  0.00    -0.310 N 
HETATM   15  H   UNK N   1      22.802  16.467   7.067  0.00  0.00     0.172 HD
BRANCH  14  16
HETATM   16  S   UNK N   1      22.928  13.990   7.063  0.00  0.00     0.259 S 
HETATM   17  O   UNK N   1      22.104  14.723   8.130  0.00  0.00    -0.201 OA
HETATM   18  O   UNK N   1      24.407  14.218   7.408  0.00  0.00    -0.201 OA
BRANCH  16  19
HETATM   19  C   UNK N   1      23.050  13.177   8.752  0.00  0.00     0.079 A 
HETATM   20  C   UNK N   1      21.845  12.926   9.447  0.00  0.00     0.028 A 
HETATM   21  C   UNK N   1      21.857  12.401  10.743  0.00  0.00     0.044 A 
HETATM   22  C   UNK N   1      23.067  12.094  11.369  0.00  0.00     0.116 A 
HETATM   23  C   UNK N   1      24.270  12.304  10.701  0.00  0.00     0.044 A 
HETATM   24  F   UNK N   1      23.074  11.596  12.628  0.00  0.00    -0.206 F 
HETATM   25  C   UNK N   1      24.268  12.846   9.418  0.00  0.00     0.028 A 
ENDBRANCH  16  19
ENDBRANCH  14  16
ENDBRANCH   8  14
BRANCH  13  26
HETATM   26  C   UNK N   1      20.462  19.147   2.973  0.00  0.00     0.139 C 
BRANCH  26  27
HETATM   27  C   UNK N   1      21.430  20.141   2.347  0.00  0.00     0.130 C 
BRANCH  27  28
HETATM   28  C   UNK N   1      20.888  20.691   1.073  0.00  0.00     0.140 C 
HETATM   29  O   UNK N   1      20.806  19.982   0.083  0.00  0.00    -0.650 OA
BRANCH  28  30
HETATM   30  O   UNK N   1      20.526  21.985   1.004  0.00  0.00    -0.776 OA
HETATM   31  H   UNK N   1      20.734  22.571   1.704  0.00  0.00     0.167 HD
ENDBRANCH  28  30
ENDBRANCH  27  28
ENDBRANCH  26  27
ENDBRANCH  13  26
TORSDOF 7
ENDMDL
MODEL 2
REMARK VINA RESULT:      -7.7      5.329      8.028
REMARK  7 active torsions:
REMARK  status: ('A' for Active; 'I' for Inactive)
REMARK    1  A    between atoms: C_12  and  C_11 
REMARK    2  A    between atoms: C_21  and  C_11 
REMARK    3  A    between atoms: N_24  and  C_12 
REMARK    4  A    between atoms: C_15  and  N_23 
REMARK    5  A    between atoms: S_29  and  C_16 
REMARK    6  A    between atoms: O_26  and  C_21 
REMARK    7  A    between atoms: S_29  and  N_23 
ROOT
HETATM    1  C   UNK N   1      22.808  11.871  11.136  0.00  0.00     0.001 A 
HETATM    2  C   UNK N   1      21.484  12.369  11.124  0.00  0.00     0.002 A 
HETATM    3  C   UNK N   1      23.725  12.253  10.138  0.00  0.00     0.014 A 
HETATM    4  C   UNK N   1      21.065  13.257  10.116  0.00  0.00     0.030 A 
HETATM    5  C   UNK N   1      24.608  14.809   5.537  0.00  0.00     0.032 C 
HETATM    6  C   UNK N   1      23.285  15.261   6.180  0.00  0.00     0.060 C 
HETATM    7  C   UNK N   1      25.312  13.455   7.574  0.00  0.00     0.067 C 
HETATM    8  C   UNK N   1      25.736  14.531   6.547  0.00  0.00     0.098 C 
HETATM    9  C   UNK N   1      23.282  13.135   9.158  0.00  0.00    -0.001 A 
HETATM   10  C   UNK N   1      23.921  13.677   8.063  0.00  0.00    -0.021 A 
HETATM   11  C   UNK N   1      21.999  13.623   9.145  0.00  0.00     0.045 A 
HETATM   12  C   UNK N   1      22.997  14.481   7.428  0.00  0.00     0.019 A 
HETATM   13  N   UNK N   1      21.814  14.439   8.089  0.00  0.00    -0.349 N 
ENDROOT
BRANCH   8  14
HETATM   14  N   UNK N   1      26.177  15.801   7.192  0.00  0.00    -0.310 N 
HETATM   15  H   UNK N   1      25.802  16.032   8.112  0.00  0.00     0.172 HD
BRANCH  14  16
HETATM   16  S   UNK N   1      27.352  16.965   6.415  0.00  0.00     0.259 S 
HETATM   17  O   UNK N   1      27.988  15.643   5.968  0.00  0.00    -0.201 OA
HETATM   18  O   UNK N   1      27.635  17.111   7.917  0.00  0.00    -0.201 OA
BRANCH  16  19
HETATM   19  C   UNK N   1      29.229  17.024   6.440  0.00  0.00     0.079 A 
HETATM   20  C   UNK N   1      29.864  17.175   7.693  0.00  0.00     0.028 A 
HETATM   21  C   UNK N   1      31.252  17.311   7.787  0.00  0.00     0.044 A 
HETATM   22  C   UNK N   1      32.043  17.279   6.636  0.00  0.00     0.116 A 
HETATM   23  C   UNK N   1      31.451  17.105   5.388  0.00  0.00     0.044 A 
HETATM   24  F   UNK N   1      33.386  17.422   6.729  0.00  0.00    -0.206 F 
HETATM   25  C   UNK N   1      30.067  16.989   5.285  0.00  0.00     0.028 A 
ENDBRANCH  16  19
ENDBRANCH  14  16
ENDBRANCH   8  14
BRANCH  13  26
HETATM   26  C   UNK N   1      20.573  15.096   7.710  0.00  0.00     0.139 C 
BRANCH  26  27
HETATM   27  C   UNK N   1      20.497  16.444   8.414  0.00  0.00     0.130 C 
BRANCH  27  28
HETATM   28  C   UNK N   1      19.131  16.696   8.952  0.00  0.00     0.140 C 
HETATM   29  O   UNK N   1      18.439  15.766   9.335  0.00  0.00    -0.650 OA
BRANCH  28  30
HETATM   30  O   UNK N   1      18.643  17.950   8.978  0.00  0.00    -0.776 OA
HETATM   31  H   UNK N   1      17.727  18.102   8.854  0.00  0.00     0.167 HD
ENDBRANCH  28  30
ENDBRANCH  27  28
ENDBRANCH  26  27
ENDBRANCH  13  26
TORSDOF 7
ENDMDL
MODEL 3
REMARK VINA RESULT:      -7.7      7.056     10.549
REMARK  7 active torsions:
REMARK  status: ('A' for Active; 'I' for Inactive)
REMARK    1  A    between atoms: C_12  and  C_11 
REMARK    2  A    between atoms: C_21  and  C_11 
REMARK    3  A    between atoms: N_24  and  C_12 
REMARK    4  A    between atoms: C_15  and  N_23 
REMARK    5  A    between atoms: S_29  and  C_16 
REMARK    6  A    between atoms: O_26  and  C_21 
REMARK    7  A    between atoms: S_29  and  N_23 
ROOT
HETATM    1  C   UNK N   1      28.249  18.700   8.708  0.00  0.00     0.001 A 
HETATM    2  C   UNK N   1      29.393  18.390   9.478  0.00  0.00     0.002 A 
HETATM    3  C   UNK N   1      28.205  18.387   7.335  0.00  0.00     0.014 A 
HETATM    4  C   UNK N   1      30.505  17.762   8.886  0.00  0.00     0.030 A 
HETATM    5  C   UNK N   1      30.778  16.612   3.009  0.00  0.00     0.032 C 
HETATM    6  C   UNK N   1      31.526  16.229   4.298  0.00  0.00     0.060 C 
HETATM    7  C   UNK N   1      28.738  17.471   4.267  0.00  0.00     0.067 C 
HETATM    8  C   UNK N   1      29.244  16.553   3.130  0.00  0.00     0.098 C 
HETATM    9  C   UNK N   1      29.316  17.763   6.779  0.00  0.00    -0.001 A 
HETATM   10  C   UNK N   1      29.581  17.348   5.491  0.00  0.00    -0.021 A 
HETATM   11  C   UNK N   1      30.428  17.458   7.526  0.00  0.00     0.045 A 
HETATM   12  C   UNK N   1      30.847  16.801   5.507  0.00  0.00     0.019 A 
HETATM   13  N   UNK N   1      31.369  16.878   6.755  0.00  0.00    -0.349 N 
ENDROOT
BRANCH   8  14
HETATM   14  N   UNK N   1      28.793  15.140   3.287  0.00  0.00    -0.310 N 
HETATM   15  H   UNK N   1      29.502  14.409   3.344  0.00  0.00     0.172 HD
BRANCH  14  16
HETATM   16  S   UNK N   1      27.034  14.653   3.381  0.00  0.00     0.259 S 
HETATM   17  O   UNK N   1      27.632  13.319   2.916  0.00  0.00    -0.201 OA
HETATM   18  O   UNK N   1      27.083  15.607   2.179  0.00  0.00    -0.201 OA
BRANCH  16  19
HETATM   19  C   UNK N   1      25.933  13.761   2.149  0.00  0.00     0.079 A 
HETATM   20  C   UNK N   1      24.899  14.505   1.536  0.00  0.00     0.028 A 
HETATM   21  C   UNK N   1      23.986  13.893   0.672  0.00  0.00     0.044 A 
HETATM   22  C   UNK N   1      24.093  12.531   0.382  0.00  0.00     0.116 A 
HETATM   23  C   UNK N   1      25.116  11.775   0.949  0.00  0.00     0.044 A 
HETATM   24  F   UNK N   1      23.200  11.940  -0.446  0.00  0.00    -0.206 F 
HETATM   25  C   UNK N   1      26.017  12.373   1.826  0.00  0.00     0.028 A 
ENDBRANCH  16  19
ENDBRANCH  14  16
ENDBRANCH   8  14
BRANCH  13  26
HETATM   26  C   UNK N   1      32.701  16.469   7.177  0.00  0.00     0.139 C 
BRANCH  26  27
HETATM   27  C   UNK N   1      33.659  17.633   6.972  0.00  0.00     0.130 C 
BRANCH  27  28
HETATM   28  C   UNK N   1      34.234  18.094   8.267  0.00  0.00     0.140 C 
HETATM   29  O   UNK N   1      34.977  19.062   8.301  0.00  0.00    -0.650 OA
BRANCH  28  30
HETATM   30  O   UNK N   1      33.964  17.415   9.397  0.00  0.00    -0.776 OA
HETATM   31  H   UNK N   1      33.414  17.794  10.054  0.00  0.00     0.167 HD
ENDBRANCH  28  30
ENDBRANCH  27  28
ENDBRANCH  26  27
ENDBRANCH  13  26
TORSDOF 7
ENDMDL
MODEL 4
REMARK VINA RESULT:      -7.4      5.873      9.664
REMARK  7 active torsions:
REMARK  status: ('A' for Active; 'I' for Inactive)
REMARK    1  A    between atoms: C_12  and  C_11 
REMARK    2  A    between atoms: C_21  and  C_11 
REMARK    3  A    between atoms: N_24  and  C_12 
REMARK    4  A    between atoms: C_15  and  N_23 
REMARK    5  A    between atoms: S_29  and  C_16 
REMARK    6  A    between atoms: O_26  and  C_21 
REMARK    7  A    between atoms: S_29  and  N_23 
ROOT
HETATM    1  C   UNK N   1      29.804  18.237   9.642  0.00  0.00     0.001 A 
HETATM    2  C   UNK N   1      30.615  17.209   9.107  0.00  0.00     0.002 A 
HETATM    3  C   UNK N   1      28.886  18.922   8.823  0.00  0.00     0.014 A 
HETATM    4  C   UNK N   1      30.516  16.853   7.750  0.00  0.00     0.030 A 
HETATM    5  C   UNK N   1      26.964  19.797   3.921  0.00  0.00     0.032 C 
HETATM    6  C   UNK N   1      27.766  18.485   3.979  0.00  0.00     0.060 C 
HETATM    7  C   UNK N   1      27.038  20.131   6.444  0.00  0.00     0.067 C 
HETATM    8  C   UNK N   1      26.137  20.086   5.187  0.00  0.00     0.098 C 
HETATM    9  C   UNK N   1      28.807  18.545   7.486  0.00  0.00    -0.001 A 
HETATM   10  C   UNK N   1      28.033  19.021   6.449  0.00  0.00    -0.021 A 
HETATM   11  C   UNK N   1      29.591  17.545   6.965  0.00  0.00     0.045 A 
HETATM   12  C   UNK N   1      28.376  18.284   5.334  0.00  0.00     0.019 A 
HETATM   13  N   UNK N   1      29.340  17.385   5.651  0.00  0.00    -0.349 N 
ENDROOT
BRANCH   8  14
HETATM   14  N   UNK N   1      25.024  19.101   5.311  0.00  0.00    -0.310 N 
HETATM   15  H   UNK N   1      24.814  18.722   6.234  0.00  0.00     0.172 HD
BRANCH  14  16
HETATM   16  S   UNK N   1      24.018  18.540   3.892  0.00  0.00     0.259 S 
HETATM   17  O   UNK N   1      23.607  20.018   3.912  0.00  0.00    -0.201 OA
HETATM   18  O   UNK N   1      23.345  17.874   5.100  0.00  0.00    -0.201 OA
BRANCH  16  19
HETATM   19  C   UNK N   1      22.200  18.788   3.493  0.00  0.00     0.079 A 
HETATM   20  C   UNK N   1      21.365  17.648   3.507  0.00  0.00     0.028 A 
HETATM   21  C   UNK N   1      20.019  17.736   3.139  0.00  0.00     0.044 A 
HETATM   22  C   UNK N   1      19.467  18.965   2.770  0.00  0.00     0.116 A 
HETATM   23  C   UNK N   1      20.257  20.112   2.771  0.00  0.00     0.044 A 
HETATM   24  F   UNK N   1      18.166  19.044   2.404  0.00  0.00    -0.206 F 
HETATM   25  C   UNK N   1      21.603  20.029   3.116  0.00  0.00     0.028 A 
ENDBRANCH  16  19
ENDBRANCH  14  16
ENDBRANCH   8  14
BRANCH  13  26
HETATM   26  C   UNK N   1      30.014  16.464   4.748  0.00  0.00     0.139 C 
BRANCH  26  27
HETATM   27  C   UNK N   1      31.330  17.088   4.305  0.00  0.00     0.130 C 
BRANCH  27  28
HETATM   28  C   UNK N   1      32.133  16.131   3.492  0.00  0.00     0.140 C 
HETATM   29  O   UNK N   1      32.128  14.941   3.760  0.00  0.00    -0.650 OA
BRANCH  28  30
HETATM   30  O   UNK N   1      32.896  16.589   2.483  0.00  0.00    -0.776 OA
HETATM   31  H   UNK N   1      32.637  17.352   2.004  0.00  0.00     0.167 HD
ENDBRANCH  28  30
ENDBRANCH  27  28
ENDBRANCH  26  27
ENDBRANCH  13  26
TORSDOF 7
ENDMDL
MODEL 5
REMARK VINA RESULT:      -7.3      9.839     11.934
REMARK  7 active torsions:
REMARK  status: ('A' for Active; 'I' for Inactive)
REMARK    1  A    between atoms: C_12  and  C_11 
REMARK    2  A    between atoms: C_21  and  C_11 
REMARK    3  A    between atoms: N_24  and  C_12 
REMARK    4  A    between atoms: C_15  and  N_23 
REMARK    5  A    between atoms: S_29  and  C_16 
REMARK    6  A    between atoms: O_26  and  C_21 
REMARK    7  A    between atoms: S_29  and  N_23 
ROOT
HETATM    1  C   UNK N   1      29.950  14.190   4.864  0.00  0.00     0.001 A 
HETATM    2  C   UNK N   1      28.867  14.990   5.297  0.00  0.00     0.002 A 
HETATM    3  C   UNK N   1      31.260  14.457   5.309  0.00  0.00     0.014 A 
HETATM    4  C   UNK N   1      29.081  16.062   6.182  0.00  0.00     0.030 A 
HETATM    5  C   UNK N   1      34.563  17.677   7.992  0.00  0.00     0.032 C 
HETATM    6  C   UNK N   1      33.095  17.948   8.366  0.00  0.00     0.060 C 
HETATM    7  C   UNK N   1      33.993  15.600   6.635  0.00  0.00     0.067 C 
HETATM    8  C   UNK N   1      34.887  16.192   7.749  0.00  0.00     0.098 C 
HETATM    9  C   UNK N   1      31.439  15.521   6.186  0.00  0.00    -0.001 A 
HETATM   10  C   UNK N   1      32.573  16.032   6.780  0.00  0.00    -0.021 A 
HETATM   11  C   UNK N   1      30.389  16.297   6.612  0.00  0.00     0.045 A 
HETATM   12  C   UNK N   1      32.165  17.102   7.549  0.00  0.00     0.019 A 
HETATM   13  N   UNK N   1      30.824  17.269   7.437  0.00  0.00    -0.349 N 
ENDROOT
BRANCH   8  14
HETATM   14  N   UNK N   1      34.796  15.429   9.028  0.00  0.00    -0.310 N 
HETATM   15  H   UNK N   1      33.885  15.349   9.479  0.00  0.00     0.172 HD
BRANCH  14  16
HETATM   16  S   UNK N   1      36.234  14.633   9.825  0.00  0.00     0.259 S 
HETATM   17  O   UNK N   1      35.171  13.565  10.118  0.00  0.00    -0.201 OA
HETATM   18  O   UNK N   1      35.928  15.828  10.739  0.00  0.00    -0.201 OA
BRANCH  16  19
HETATM   19  C   UNK N   1      36.433  13.865  11.528  0.00  0.00     0.079 A 
HETATM   20  C   UNK N   1      36.029  14.632  12.644  0.00  0.00     0.028 A 
HETATM   21  C   UNK N   1      36.222  14.166  13.948  0.00  0.00     0.044 A 
HETATM   22  C   UNK N   1      36.803  12.915  14.170  0.00  0.00     0.116 A 
HETATM   23  C   UNK N   1      37.188  12.123  13.092  0.00  0.00     0.044 A 
HETATM   24  F   UNK N   1      36.998  12.472  15.434  0.00  0.00    -0.206 F 
HETATM   25  C   UNK N   1      37.018  12.590  11.791  0.00  0.00     0.028 A 
ENDBRANCH  16  19
ENDBRANCH  14  16
ENDBRANCH   8  14
BRANCH  13  26
HETATM   26  C   UNK N   1      30.016  18.318   8.040  0.00  0.00     0.139 C 
BRANCH  26  27
HETATM   27  C   UNK N   1      29.592  17.871   9.432  0.00  0.00     0.130 C 
BRANCH  27  28
HETATM   28  C   UNK N   1      28.116  17.679   9.511  0.00  0.00     0.140 C 
HETATM   29  O   UNK N   1      27.654  16.611   9.879  0.00  0.00    -0.650 OA
BRANCH  28  30
HETATM   30  O   UNK N   1      27.292  18.674   9.136  0.00  0.00    -0.776 OA
HETATM   31  H   UNK N   1      26.669  18.538   8.450  0.00  0.00     0.167 HD
ENDBRANCH  28  30
ENDBRANCH  27  28
ENDBRANCH  26  27
ENDBRANCH  13  26
TORSDOF 7
ENDMDL
MODEL 6
REMARK VINA RESULT:      -7.3      4.441      6.383
REMARK  7 active torsions:
REMARK  status: ('A' for Active; 'I' for Inactive)
REMARK    1  A    between atoms: C_12  and  C_11 
REMARK    2  A    between atoms: C_21  and  C_11 
REMARK    3  A    between atoms: N_24  and  C_12 
REMARK    4  A    between atoms: C_15  and  N_23 
REMARK    5  A    between atoms: S_29  and  C_16 
REMARK    6  A    between atoms: O_26  and  C_21 
REMARK    7  A    between atoms: S_29  and  N_23 
ROOT
HETATM    1  C   UNK N   1      25.527  20.204   3.271  0.00  0.00     0.001 A 
HETATM    2  C   UNK N   1      26.482  20.860   4.082  0.00  0.00     0.002 A 
HETATM    3  C   UNK N   1      25.345  18.811   3.364  0.00  0.00     0.014 A 
HETATM    4  C   UNK N   1      27.263  20.130   4.997  0.00  0.00     0.030 A 
HETATM    5  C   UNK N   1      26.981  14.155   5.397  0.00  0.00     0.032 C 
HETATM    6  C   UNK N   1      27.550  15.342   6.194  0.00  0.00     0.060 C 
HETATM    7  C   UNK N   1      25.440  15.631   4.008  0.00  0.00     0.067 C 
HETATM    8  C   UNK N   1      25.542  14.367   4.894  0.00  0.00     0.098 C 
HETATM    9  C   UNK N   1      26.128  18.117   4.281  0.00  0.00    -0.001 A 
HETATM   10  C   UNK N   1      26.194  16.776   4.594  0.00  0.00    -0.021 A 
HETATM   11  C   UNK N   1      27.054  18.751   5.072  0.00  0.00     0.045 A 
HETATM   12  C   UNK N   1      27.159  16.649   5.571  0.00  0.00     0.019 A 
HETATM   13  N   UNK N   1      27.693  17.862   5.857  0.00  0.00    -0.349 N 
ENDROOT
BRANCH   8  14
HETATM   14  N   UNK N   1      24.592  14.392   6.044  0.00  0.00    -0.310 N 
HETATM   15  H   UNK N   1      23.962  15.189   6.135  0.00  0.00     0.172 HD
BRANCH  14  16
HETATM   16  S   UNK N   1      24.503  13.067   7.300  0.00  0.00     0.259 S 
HETATM   17  O   UNK N   1      23.018  13.143   6.920  0.00  0.00    -0.201 OA
HETATM   18  O   UNK N   1      24.818  14.324   8.121  0.00  0.00    -0.201 OA
BRANCH  16  19
HETATM   19  C   UNK N   1      23.368  12.843   8.779  0.00  0.00     0.079 A 
HETATM   20  C   UNK N   1      23.765  11.924   9.776  0.00  0.00     0.028 A 
HETATM   21  C   UNK N   1      22.936  11.639  10.866  0.00  0.00     0.044 A 
HETATM   22  C   UNK N   1      21.701  12.279  10.999  0.00  0.00     0.116 A 
HETATM   23  C   UNK N   1      21.292  13.210  10.048  0.00  0.00     0.044 A 
HETATM   24  F   UNK N   1      20.897  11.993  12.050  0.00  0.00    -0.206 F 
HETATM   25  C   UNK N   1      22.103  13.483   8.949  0.00  0.00     0.028 A 
ENDBRANCH  16  19
ENDBRANCH  14  16
ENDBRANCH   8  14
BRANCH  13  26
HETATM   26  C   UNK N   1      28.777  18.148   6.784  0.00  0.00     0.139 C 
BRANCH  26  27
HETATM   27  C   UNK N   1      28.186  18.705   8.072  0.00  0.00     0.130 C 
BRANCH  27  28
HETATM   28  C   UNK N   1      28.601  17.893   9.251  0.00  0.00     0.140 C 
HETATM   29  O   UNK N   1      27.835  17.076   9.735  0.00  0.00    -0.650 OA
BRANCH  28  30
HETATM   30  O   UNK N   1      29.810  18.091   9.807  0.00  0.00    -0.776 OA
HETATM   31  H   UNK N   1      30.440  18.640   9.382  0.00  0.00     0.167 HD
ENDBRANCH  28  30
ENDBRANCH  27  28
ENDBRANCH  26  27
ENDBRANCH  13  26
TORSDOF 7
ENDMDL
MODEL 7
REMARK VINA RESULT:      -7.2     10.551     15.187
REMARK  7 active torsions:
REMARK  status: ('A' for Active; 'I' for Inactive)
REMARK    1  A    between atoms: C_12  and  C_11 
REMARK    2  A    between atoms: C_21  and  C_11 
REMARK    3  A    between atoms: N_24  and  C_12 
REMARK    4  A    between atoms: C_15  and  N_23 
REMARK    5  A    between atoms: S_29  and  C_16 
REMARK    6  A    between atoms: O_26  and  C_21 
REMARK    7  A    between atoms: S_29  and  N_23 
ROOT
HETATM    1  C   UNK N   1      34.465  12.015  15.691  0.00  0.00     0.001 A 
HETATM    2  C   UNK N   1      34.162  10.738  15.163  0.00  0.00     0.002 A 
HETATM    3  C   UNK N   1      34.922  13.047  14.848  0.00  0.00     0.014 A 
HETATM    4  C   UNK N   1      34.311  10.480  13.788  0.00  0.00     0.030 A 
HETATM    5  C   UNK N   1      36.555  14.540   9.992  0.00  0.00     0.032 C 
HETATM    6  C   UNK N   1      35.803  13.199   9.938  0.00  0.00     0.060 C 
HETATM    7  C   UNK N   1      35.961  14.950  12.433  0.00  0.00     0.067 C 
HETATM    8  C   UNK N   1      35.979  15.545  11.005  0.00  0.00     0.098 C 
HETATM    9  C   UNK N   1      35.054  12.763  13.493  0.00  0.00    -0.001 A 
HETATM   10  C   UNK N   1      35.478  13.539  12.436  0.00  0.00    -0.021 A 
HETATM   11  C   UNK N   1      34.758  11.525  12.977  0.00  0.00     0.045 A 
HETATM   12  C   UNK N   1      35.420  12.740  11.313  0.00  0.00     0.019 A 
HETATM   13  N   UNK N   1      34.986  11.500  11.649  0.00  0.00    -0.349 N 
ENDROOT
BRANCH   8  14
HETATM   14  N   UNK N   1      34.635  16.014  10.559  0.00  0.00    -0.310 N 
HETATM   15  H   UNK N   1      33.974  16.332  11.268  0.00  0.00     0.172 HD
BRANCH  14  16
HETATM   16  S   UNK N   1      34.114  16.046   8.808  0.00  0.00     0.259 S 
HETATM   17  O   UNK N   1      33.779  17.494   9.188  0.00  0.00    -0.201 OA
HETATM   18  O   UNK N   1      33.064  15.153   9.483  0.00  0.00    -0.201 OA
BRANCH  16  19
HETATM   19  C   UNK N   1      32.530  16.653   8.002  0.00  0.00     0.079 A 
HETATM   20  C   UNK N   1      31.459  17.012   8.851  0.00  0.00     0.028 A 
HETATM   21  C   UNK N   1      30.220  17.393   8.327  0.00  0.00     0.044 A 
HETATM   22  C   UNK N   1      30.026  17.447   6.944  0.00  0.00     0.116 A 
HETATM   23  C   UNK N   1      31.069  17.126   6.080  0.00  0.00     0.044 A 
HETATM   24  F   UNK N   1      28.822  17.806   6.441  0.00  0.00    -0.206 F 
HETATM   25  C   UNK N   1      32.300  16.725   6.595  0.00  0.00     0.028 A 
ENDBRANCH  16  19
ENDBRANCH  14  16
ENDBRANCH   8  14
BRANCH  13  26
HETATM   26  C   UNK N   1      34.844  10.350  10.769  0.00  0.00     0.139 C 
BRANCH  26  27
HETATM   27  C   UNK N   1      33.367  10.150  10.458  0.00  0.00     0.130 C 
BRANCH  27  28
HETATM   28  C   UNK N   1      32.966  10.907   9.239  0.00  0.00     0.140 C 
HETATM   29  O   UNK N   1      33.131  10.422   8.131  0.00  0.00    -0.650 OA
BRANCH  28  30
HETATM   30  O   UNK N   1      32.455  12.147   9.360  0.00  0.00    -0.776 OA
HETATM   31  H   UNK N   1      32.323  12.521  10.208  0.00  0.00     0.167 HD
ENDBRANCH  28  30
ENDBRANCH  27  28
ENDBRANCH  26  27
ENDBRANCH  13  26
TORSDOF 7
ENDMDL
MODEL 8
REMARK VINA RESULT:      -7.1     14.490     16.678
REMARK  7 active torsions:
REMARK  status: ('A' for Active; 'I' for Inactive)
REMARK    1  A    between atoms: C_12  and  C_11 
REMARK    2  A    between atoms: C_21  and  C_11 
REMARK    3  A    between atoms: N_24  and  C_12 
REMARK    4  A    between atoms: C_15  and  N_23 
REMARK    5  A    between atoms: S_29  and  C_16 
REMARK    6  A    between atoms: O_26  and  C_21 
REMARK    7  A    between atoms: S_29  and  N_23 
ROOT
HETATM    1  C   UNK N   1      30.029  19.049  -8.789  0.00  0.00     0.001 A 
HETATM    2  C   UNK N   1      31.180  19.189  -7.979  0.00  0.00     0.002 A 
HETATM    3  C   UNK N   1      28.920  19.899  -8.610  0.00  0.00     0.014 A 
HETATM    4  C   UNK N   1      31.236  20.180  -6.982  0.00  0.00     0.030 A 
HETATM    5  C   UNK N   1      26.568  23.727  -5.730  0.00  0.00     0.032 C 
HETATM    6  C   UNK N   1      28.074  23.648  -5.427  0.00  0.00     0.060 C 
HETATM    7  C   UNK N   1      26.720  22.096  -7.679  0.00  0.00     0.067 C 
HETATM    8  C   UNK N   1      26.209  23.477  -7.206  0.00  0.00     0.098 C 
HETATM    9  C   UNK N   1      29.007  20.872  -7.620  0.00  0.00    -0.001 A 
HETATM   10  C   UNK N   1      28.107  21.828  -7.200  0.00  0.00    -0.021 A 
HETATM   11  C   UNK N   1      30.124  21.012  -6.834  0.00  0.00     0.045 A 
HETATM   12  C   UNK N   1      28.717  22.517  -6.172  0.00  0.00     0.019 A 
HETATM   13  N   UNK N   1      29.952  22.009  -5.943  0.00  0.00    -0.349 N 
ENDROOT
BRANCH   8  14
HETATM   14  N   UNK N   1      26.708  24.597  -8.055  0.00  0.00    -0.310 N 
HETATM   15  H   UNK N   1      27.363  24.381  -8.806  0.00  0.00     0.172 HD
BRANCH  14  16
HETATM   16  S   UNK N   1      26.206  26.338  -7.816  0.00  0.00     0.259 S 
HETATM   17  O   UNK N   1      27.647  26.427  -7.296  0.00  0.00    -0.201 OA
HETATM   18  O   UNK N   1      25.396  25.578  -6.756  0.00  0.00    -0.201 OA
BRANCH  16  19
HETATM   19  C   UNK N   1      26.368  27.476  -6.330  0.00  0.00     0.079 A 
HETATM   20  C   UNK N   1      25.437  27.317  -5.279  0.00  0.00     0.028 A 
HETATM   21  C   UNK N   1      25.439  28.180  -4.178  0.00  0.00     0.044 A 
HETATM   22  C   UNK N   1      26.381  29.207  -4.089  0.00  0.00     0.116 A 
HETATM   23  C   UNK N   1      27.328  29.374  -5.095  0.00  0.00     0.044 A 
HETATM   24  F   UNK N   1      26.372  30.047  -3.027  0.00  0.00    -0.206 F 
HETATM   25  C   UNK N   1      27.319  28.532  -6.205  0.00  0.00     0.028 A 
ENDBRANCH  16  19
ENDBRANCH  14  16
ENDBRANCH   8  14
BRANCH  13  26
HETATM   26  C   UNK N   1      30.891  22.414  -4.907  0.00  0.00     0.139 C 
BRANCH  26  27
HETATM   27  C   UNK N   1      30.304  22.060  -3.548  0.00  0.00     0.130 C 
BRANCH  27  28
HETATM   28  C   UNK N   1      30.493  23.171  -2.573  0.00  0.00     0.140 C 
HETATM   29  O   UNK N   1      30.578  22.933  -1.379  0.00  0.00    -0.650 OA
BRANCH  28  30
HETATM   30  O   UNK N   1      30.531  24.443  -3.009  0.00  0.00    -0.776 OA
HETATM   31  H   UNK N   1      29.806  24.801  -3.482  0.00  0.00     0.167 HD
ENDBRANCH  28  30
ENDBRANCH  27  28
ENDBRANCH  26  27
ENDBRANCH  13  26
TORSDOF 7
ENDMDL
MODEL 9
REMARK VINA RESULT:      -7.0      4.485      7.629
REMARK  7 active torsions:
REMARK  status: ('A' for Active; 'I' for Inactive)
REMARK    1  A    between atoms: C_12  and  C_11 
REMARK    2  A    between atoms: C_21  and  C_11 
REMARK    3  A    between atoms: N_24  and  C_12 
REMARK    4  A    between atoms: C_15  and  N_23 
REMARK    5  A    between atoms: S_29  and  C_16 
REMARK    6  A    between atoms: O_26  and  C_21 
REMARK    7  A    between atoms: S_29  and  N_23 
ROOT
HETATM    1  C   UNK N   1      26.645  21.175   5.191  0.00  0.00     0.001 A 
HETATM    2  C   UNK N   1      27.333  21.199   6.427  0.00  0.00     0.002 A 
HETATM    3  C   UNK N   1      26.411  19.956   4.526  0.00  0.00     0.014 A 
HETATM    4  C   UNK N   1      27.792  20.004   7.011  0.00  0.00     0.030 A 
HETATM    5  C   UNK N   1      27.266  14.694   4.280  0.00  0.00     0.032 C 
HETATM    6  C   UNK N   1      27.602  15.248   5.676  0.00  0.00     0.060 C 
HETATM    7  C   UNK N   1      26.238  16.885   3.490  0.00  0.00     0.067 C 
HETATM    8  C   UNK N   1      26.044  15.355   3.617  0.00  0.00     0.098 C 
HETATM    9  C   UNK N   1      26.873  18.792   5.131  0.00  0.00    -0.001 A 
HETATM   10  C   UNK N   1      26.812  17.472   4.735  0.00  0.00    -0.021 A 
HETATM   11  C   UNK N   1      27.538  18.811   6.332  0.00  0.00     0.045 A 
HETATM   12  C   UNK N   1      27.442  16.738   5.718  0.00  0.00     0.019 A 
HETATM   13  N   UNK N   1      27.896  17.563   6.693  0.00  0.00    -0.349 N 
ENDROOT
BRANCH   8  14
HETATM   14  N   UNK N   1      24.799  14.991   4.352  0.00  0.00    -0.310 N 
HETATM   15  H   UNK N   1      24.592  14.003   4.494  0.00  0.00     0.172 HD
BRANCH  14  16
HETATM   16  S   UNK N   1      23.625  16.228   5.009  0.00  0.00     0.259 S 
HETATM   17  O   UNK N   1      24.166  15.678   6.335  0.00  0.00    -0.201 OA
HETATM   18  O   UNK N   1      22.715  15.144   4.415  0.00  0.00    -0.201 OA
BRANCH  16  19
HETATM   19  C   UNK N   1      22.295  16.089   6.328  0.00  0.00     0.079 A 
HETATM   20  C   UNK N   1      21.410  17.179   6.484  0.00  0.00     0.028 A 
HETATM   21  C   UNK N   1      20.448  17.188   7.498  0.00  0.00     0.044 A 
HETATM   22  C   UNK N   1      20.330  16.101   8.368  0.00  0.00     0.116 A 
HETATM   23  C   UNK N   1      21.170  14.999   8.225  0.00  0.00     0.044 A 
HETATM   24  F   UNK N   1      19.404  16.117   9.356  0.00  0.00    -0.206 F 
HETATM   25  C   UNK N   1      22.144  14.993   7.230  0.00  0.00     0.028 A 
ENDBRANCH  16  19
ENDBRANCH  14  16
ENDBRANCH   8  14
BRANCH  13  26
HETATM   26  C   UNK N   1      28.665  17.191   7.872  0.00  0.00     0.139 C 
BRANCH  26  27
HETATM   27  C   UNK N   1      30.147  17.314   7.548  0.00  0.00     0.130 C 
BRANCH  27  28
HETATM   28  C   UNK N   1      30.882  18.007   8.644  0.00  0.00     0.140 C 
HETATM   29  O   UNK N   1      30.382  18.966   9.209  0.00  0.00    -0.650 OA
BRANCH  28  30
HETATM   30  O   UNK N   1      32.118  17.598   8.983  0.00  0.00    -0.776 OA
HETATM   31  H   UNK N   1      32.804  18.223   9.107  0.00  0.00     0.167 HD
ENDBRANCH  28  30
ENDBRANCH  27  28
ENDBRANCH  26  27
ENDBRANCH  13  26
TORSDOF 7
ENDMDL
