MODEL 1
REMARK VINA RESULT:      -9.2      0.000      0.000
REMARK  3 active torsions:
REMARK  status: ('A' for Active; 'I' for Inactive)
REMARK    1  A    between atoms: C_3  and  N_30 
REMARK    2  A    between atoms: C_6  and  C_7 
REMARK       I    between atoms: C_10  and  N_24 
REMARK       I    between atoms: C_13  and  N_16 
REMARK       I    between atoms: N_30  and  C_31 
REMARK       I    between atoms: C_31  and  N_33 
REMARK    3  A    between atoms: N_33  and  C_34 
ROOT
HETATM    1  C   UNK N   1      33.174  14.773   8.623  0.00  0.00     0.146 A 
HETATM    2  N   UNK N   1      32.162  15.624   8.926  0.00  0.00    -0.175 N 
ATOM      3  HN  UNK N   1      32.112  16.045   9.854  1.00  0.00     0.186 HD
HETATM    4  C   UNK N   1      31.217  15.914   8.000  0.00  0.00     0.696 A 
HETATM    5  N   UNK N   1      31.359  15.433   6.733  0.00  0.00    -0.022 N 
ATOM      6  HN  UNK N   1      30.697  15.704   6.005  1.00  0.00     0.203 HD
HETATM    7  C   UNK N   1      32.393  14.588   6.439  0.00  0.00     0.697 A 
HETATM    8  N   UNK N   1      33.254  14.234   7.404  0.00  0.00    -0.175 N 
ATOM      9  HN  UNK N   1      33.978  13.543   7.205  1.00  0.00     0.186 HD
HETATM   10  N   UNK N   1      32.829  14.428   5.098  0.00  0.00    -0.204 N 
HETATM   11  C   UNK N   1      34.174  13.968   4.871  0.00  0.00     0.126 C 
HETATM   12  C   UNK N   1      34.228  13.896   3.357  0.00  0.00     0.030 C 
HETATM   13  C   UNK N   1      33.163  14.898   2.885  0.00  0.00     0.030 C 
HETATM   14  C   UNK N   1      32.556  15.469   4.161  0.00  0.00     0.126 C 
HETATM   15  C   UNK N   1      33.474  16.664   4.563  0.00  0.00     0.193 C 
HETATM   16  O   UNK N   1      34.405  16.331   5.594  0.00  0.00    -0.387 OA
HETATM   17  C   UNK N   1      35.119  15.141   5.267  0.00  0.00     0.193 C 
HETATM   18  N   UNK N   1      30.152  16.799   8.328  0.00  0.00    -0.213 N 
HETATM   19  C   UNK N   1      29.997  17.268   9.697  0.00  0.00     0.167 C 
HETATM   20  C   UNK N   1      29.434  18.689   9.700  0.00  0.00     0.188 C 
HETATM   21  O   UNK N   1      28.270  18.725   8.916  0.00  0.00    -0.388 OA
HETATM   22  C   UNK N   1      28.706  18.612   7.585  0.00  0.00     0.188 C 
HETATM   23  C   UNK N   1      29.173  17.177   7.328  0.00  0.00     0.167 C 
ENDROOT
BRANCH   1  24
HETATM   24  C   UNK N   1      34.333  14.667   9.473  0.00  0.00     0.009 C 
HETATM   25  C   UNK N   1      34.197  15.025  10.804  0.00  0.00     0.017 C 
HETATM   26  C   UNK N   1      35.283  14.957  11.641  0.00  0.00     0.030 C 
HETATM   27  C   UNK N   1      36.526  14.509  11.167  0.00  0.00     0.036 C 
HETATM   28  C   UNK N   1      36.688  14.214   9.811  0.00  0.00     0.030 C 
HETATM   29  C   UNK N   1      35.599  14.346   8.950  0.00  0.00     0.017 C 
BRANCH  27  30
HETATM   30  N   UNK N   1      37.327  13.847  12.116  0.00  0.00    -0.309 N 
HETATM   31  C   UNK N   1      36.638  13.092  13.017  0.00  0.00     0.325 C 
HETATM   32  O   UNK N   1      35.466  12.800  12.784  0.00  0.00    -0.247 OA
HETATM   33  N   UNK N   1      37.176  12.806  14.225  0.00  0.00    -0.309 N 
HETATM   34  H   UNK N   1      38.152  12.866  14.335  0.00  0.00     0.170 HD
HETATM   35  H   UNK N   1      38.308  13.925  12.130  0.00  0.00     0.170 HD
BRANCH  33  36
HETATM   36  C   UNK N   1      36.377  12.420  15.346  0.00  0.00     0.038 A 
HETATM   37  C   UNK N   1      36.406  11.096  15.772  0.00  0.00     0.046 A 
HETATM   38  C   UNK N   1      35.748  10.738  16.953  0.00  0.00     0.090 A 
HETATM   39  N   UNK N   1      35.095  11.678  17.691  0.00  0.00    -0.375 N 
HETATM   40  C   UNK N   1      35.053  12.977  17.304  0.00  0.00     0.090 A 
ATOM     41  HN  UNK N   1      34.628  11.398  18.554  1.00  0.00     0.164 HD
HETATM   42  C   UNK N   1      35.697  13.369  16.136  0.00  0.00     0.046 A 
ENDBRANCH  33  36
ENDBRANCH  27  30
ENDBRANCH   1  24
TORSDOF 3
ENDMDL
MODEL 2
REMARK VINA RESULT:      -9.1      2.720      4.205
REMARK  3 active torsions:
REMARK  status: ('A' for Active; 'I' for Inactive)
REMARK    1  A    between atoms: C_3  and  N_30 
REMARK    2  A    between atoms: C_6  and  C_7 
REMARK       I    between atoms: C_10  and  N_24 
REMARK       I    between atoms: C_13  and  N_16 
REMARK       I    between atoms: N_30  and  C_31 
REMARK       I    between atoms: C_31  and  N_33 
REMARK    3  A    between atoms: N_33  and  C_34 
ROOT
HETATM    1  C   UNK N   1      30.126  16.581   7.027  0.00  0.00     0.146 A 
HETATM    2  N   UNK N   1      29.366  17.703   6.964  0.00  0.00    -0.175 N 
ATOM      3  HN  UNK N   1      29.575  18.494   7.574  1.00  0.00     0.186 HD
HETATM    4  C   UNK N   1      28.330  17.776   6.095  0.00  0.00     0.696 A 
HETATM    5  N   UNK N   1      28.133  16.758   5.210  0.00  0.00    -0.022 N 
ATOM      6  HN  UNK N   1      27.405  16.832   4.499  1.00  0.00     0.203 HD
HETATM    7  C   UNK N   1      28.916  15.640   5.275  0.00  0.00     0.697 A 
HETATM    8  N   UNK N   1      29.868  15.551   6.217  0.00  0.00    -0.175 N 
ATOM      9  HN  UNK N   1      30.399  14.686   6.317  1.00  0.00     0.186 HD
HETATM   10  N   UNK N   1      29.048  14.789   4.147  0.00  0.00    -0.204 N 
HETATM   11  C   UNK N   1      30.215  13.951   4.060  0.00  0.00     0.126 C 
HETATM   12  C   UNK N   1      29.961  13.195   2.770  0.00  0.00     0.030 C 
HETATM   13  C   UNK N   1      29.028  14.112   1.963  0.00  0.00     0.030 C 
HETATM   14  C   UNK N   1      28.796  15.329   2.850  0.00  0.00     0.126 C 
HETATM   15  C   UNK N   1      29.978  16.299   2.550  0.00  0.00     0.193 C 
HETATM   16  O   UNK N   1      31.013  16.241   3.532  0.00  0.00    -0.387 OA
HETATM   17  C   UNK N   1      31.418  14.893   3.762  0.00  0.00     0.193 C 
HETATM   18  N   UNK N   1      27.531  18.952   6.042  0.00  0.00    -0.213 N 
HETATM   19  C   UNK N   1      27.733  20.008   7.022  0.00  0.00     0.167 C 
HETATM   20  C   UNK N   1      27.453  21.369   6.386  0.00  0.00     0.188 C 
HETATM   21  O   UNK N   1      26.186  21.344   5.781  0.00  0.00    -0.388 OA
HETATM   22  C   UNK N   1      26.328  20.539   4.639  0.00  0.00     0.188 C 
HETATM   23  C   UNK N   1      26.463  19.076   5.069  0.00  0.00     0.167 C 
ENDROOT
BRANCH   1  24
HETATM   24  C   UNK N   1      31.387  16.577   7.724  0.00  0.00     0.009 C 
HETATM   25  C   UNK N   1      32.108  17.759   7.767  0.00  0.00     0.017 C 
HETATM   26  C   UNK N   1      33.323  17.791   8.404  0.00  0.00     0.030 C 
HETATM   27  C   UNK N   1      33.835  16.642   9.029  0.00  0.00     0.036 C 
HETATM   28  C   UNK N   1      33.148  15.430   8.928  0.00  0.00     0.030 C 
HETATM   29  C   UNK N   1      31.944  15.387   8.225  0.00  0.00     0.017 C 
BRANCH  27  30
HETATM   30  N   UNK N   1      34.646  16.883  10.154  0.00  0.00    -0.309 N 
HETATM   31  C   UNK N   1      35.496  15.867  10.473  0.00  0.00     0.325 C 
HETATM   32  O   UNK N   1      35.717  14.986   9.644  0.00  0.00    -0.247 OA
HETATM   33  N   UNK N   1      35.962  15.735  11.736  0.00  0.00    -0.309 N 
HETATM   34  H   UNK N   1      35.947  16.519  12.331  0.00  0.00     0.170 HD
HETATM   35  H   UNK N   1      34.601  17.719  10.672  0.00  0.00     0.170 HD
BRANCH  33  36
HETATM   36  C   UNK N   1      36.474  14.498  12.237  0.00  0.00     0.038 A 
HETATM   37  C   UNK N   1      36.105  14.080  13.511  0.00  0.00     0.046 A 
HETATM   38  C   UNK N   1      36.477  12.807  13.954  0.00  0.00     0.090 A 
HETATM   39  N   UNK N   1      37.182  11.973  13.141  0.00  0.00    -0.375 N 
HETATM   40  C   UNK N   1      37.553  12.350  11.892  0.00  0.00     0.090 A 
ATOM     41  HN  UNK N   1      37.438  11.045  13.480  1.00  0.00     0.164 HD
HETATM   42  C   UNK N   1      37.199  13.608  11.419  0.00  0.00     0.046 A 
ENDBRANCH  33  36
ENDBRANCH  27  30
ENDBRANCH   1  24
TORSDOF 3
ENDMDL
MODEL 3
REMARK VINA RESULT:      -9.0      3.804      6.811
REMARK  3 active torsions:
REMARK  status: ('A' for Active; 'I' for Inactive)
REMARK    1  A    between atoms: C_3  and  N_30 
REMARK    2  A    between atoms: C_6  and  C_7 
REMARK       I    between atoms: C_10  and  N_24 
REMARK       I    between atoms: C_13  and  N_16 
REMARK       I    between atoms: N_30  and  C_31 
REMARK       I    between atoms: C_31  and  N_33 
REMARK    3  A    between atoms: N_33  and  C_34 
ROOT
HETATM    1  C   UNK N   1      30.208  16.757   4.572  0.00  0.00     0.146 A 
HETATM    2  N   UNK N   1      29.722  15.625   4.003  0.00  0.00    -0.175 N 
ATOM      3  HN  UNK N   1      30.205  14.737   4.144  1.00  0.00     0.186 HD
HETATM    4  C   UNK N   1      28.600  15.672   3.248  0.00  0.00     0.696 A 
HETATM    5  N   UNK N   1      27.904  16.841   3.161  0.00  0.00    -0.022 N 
ATOM      6  HN  UNK N   1      27.017  16.873   2.658  1.00  0.00     0.203 HD
HETATM    7  C   UNK N   1      28.399  17.970   3.752  0.00  0.00     0.697 A 
HETATM    8  N   UNK N   1      29.570  17.918   4.406  0.00  0.00    -0.175 N 
ATOM      9  HN  UNK N   1      29.977  18.775   4.779  1.00  0.00     0.186 HD
HETATM   10  N   UNK N   1      27.536  19.053   4.064  0.00  0.00    -0.204 N 
HETATM   11  C   UNK N   1      27.942  19.969   5.098  0.00  0.00     0.126 C 
HETATM   12  C   UNK N   1      26.801  20.967   5.096  0.00  0.00     0.030 C 
HETATM   13  C   UNK N   1      25.605  20.186   4.529  0.00  0.00     0.030 C 
HETATM   14  C   UNK N   1      26.143  18.792   4.230  0.00  0.00     0.126 C 
HETATM   15  C   UNK N   1      26.009  17.994   5.563  0.00  0.00     0.193 C 
HETATM   16  O   UNK N   1      27.236  17.910   6.290  0.00  0.00    -0.387 OA
HETATM   17  C   UNK N   1      27.822  19.200   6.447  0.00  0.00     0.193 C 
HETATM   18  N   UNK N   1      28.102  14.482   2.645  0.00  0.00    -0.213 N 
HETATM   19  C   UNK N   1      28.880  13.255   2.716  0.00  0.00     0.167 C 
HETATM   20  C   UNK N   1      27.944  12.049   2.787  0.00  0.00     0.188 C 
HETATM   21  O   UNK N   1      27.023  12.117   1.729  0.00  0.00    -0.388 OA
HETATM   22  C   UNK N   1      26.142  13.159   2.061  0.00  0.00     0.188 C 
HETATM   23  C   UNK N   1      26.862  14.499   1.893  0.00  0.00     0.167 C 
ENDROOT
BRANCH   1  24
HETATM   24  C   UNK N   1      31.219  16.697   5.597  0.00  0.00     0.009 C 
HETATM   25  C   UNK N   1      32.477  17.195   5.297  0.00  0.00     0.017 C 
HETATM   26  C   UNK N   1      33.472  17.137   6.241  0.00  0.00     0.030 C 
HETATM   27  C   UNK N   1      33.225  16.596   7.512  0.00  0.00     0.036 C 
HETATM   28  C   UNK N   1      31.980  16.029   7.797  0.00  0.00     0.030 C 
HETATM   29  C   UNK N   1      30.990  16.031   6.814  0.00  0.00     0.017 C 
BRANCH  27  30
HETATM   30  N   UNK N   1      33.983  17.154   8.559  0.00  0.00    -0.309 N 
HETATM   31  C   UNK N   1      34.978  16.354   9.033  0.00  0.00     0.325 C 
HETATM   32  O   UNK N   1      35.336  15.383   8.368  0.00  0.00    -0.247 OA
HETATM   33  N   UNK N   1      35.452  16.521  10.289  0.00  0.00    -0.309 N 
HETATM   34  H   UNK N   1      35.314  17.387  10.736  0.00  0.00     0.170 HD
HETATM   35  H   UNK N   1      33.807  18.053   8.922  0.00  0.00     0.170 HD
BRANCH  33  36
HETATM   36  C   UNK N   1      36.145  15.486  10.989  0.00  0.00     0.038 A 
HETATM   37  C   UNK N   1      35.779  15.192  12.298  0.00  0.00     0.046 A 
HETATM   38  C   UNK N   1      36.345  14.087  12.942  0.00  0.00     0.090 A 
HETATM   39  N   UNK N   1      37.238  13.293  12.290  0.00  0.00    -0.375 N 
HETATM   40  C   UNK N   1      37.613  13.551  11.011  0.00  0.00     0.090 A 
ATOM     41  HN  UNK N   1      37.635  12.487  12.773  1.00  0.00     0.164 HD
HETATM   42  C   UNK N   1      37.069  14.640  10.341  0.00  0.00     0.046 A 
ENDBRANCH  33  36
ENDBRANCH  27  30
ENDBRANCH   1  24
TORSDOF 3
ENDMDL
MODEL 4
REMARK VINA RESULT:      -8.9      4.885     13.626
REMARK  3 active torsions:
REMARK  status: ('A' for Active; 'I' for Inactive)
REMARK    1  A    between atoms: C_3  and  N_30 
REMARK    2  A    between atoms: C_6  and  C_7 
REMARK       I    between atoms: C_10  and  N_24 
REMARK       I    between atoms: C_13  and  N_16 
REMARK       I    between atoms: N_30  and  C_31 
REMARK       I    between atoms: C_31  and  N_33 
REMARK    3  A    between atoms: N_33  and  C_34 
ROOT
HETATM    1  C   UNK N   1      35.027  10.677  19.910  0.00  0.00     0.146 A 
HETATM    2  N   UNK N   1      33.986   9.813  20.011  0.00  0.00    -0.175 N 
ATOM      3  HN  UNK N   1      33.283   9.774  19.272  1.00  0.00     0.186 HD
HETATM    4  C   UNK N   1      33.877   9.002  21.090  0.00  0.00     0.696 A 
HETATM    5  N   UNK N   1      34.881   8.984  22.012  0.00  0.00    -0.022 N 
ATOM      6  HN  UNK N   1      34.850   8.326  22.790  1.00  0.00     0.203 HD
HETATM    7  C   UNK N   1      35.931   9.851  21.889  0.00  0.00     0.697 A 
HETATM    8  N   UNK N   1      35.959  10.718  20.865  0.00  0.00    -0.175 N 
ATOM      9  HN  UNK N   1      36.701  11.416  20.816  1.00  0.00     0.186 HD
HETATM   10  N   UNK N   1      37.166   9.579  22.534  0.00  0.00    -0.204 N 
HETATM   11  C   UNK N   1      38.358  10.189  22.007  0.00  0.00     0.126 C 
HETATM   12  C   UNK N   1      39.416   9.692  22.971  0.00  0.00     0.030 C 
HETATM   13  C   UNK N   1      38.838   8.387  23.540  0.00  0.00     0.030 C 
HETATM   14  C   UNK N   1      37.477   8.228  22.873  0.00  0.00     0.126 C 
HETATM   15  C   UNK N   1      37.752   7.497  21.524  0.00  0.00     0.193 C 
HETATM   16  O   UNK N   1      37.785   8.383  20.404  0.00  0.00    -0.387 OA
HETATM   17  C   UNK N   1      38.660   9.481  20.653  0.00  0.00     0.193 C 
HETATM   18  N   UNK N   1      32.777   8.106  21.194  0.00  0.00    -0.213 N 
HETATM   19  C   UNK N   1      31.698   8.169  20.221  0.00  0.00     0.167 C 
HETATM   20  C   UNK N   1      31.126   6.772  19.986  0.00  0.00     0.188 C 
HETATM   21  O   UNK N   1      30.788   6.197  21.222  0.00  0.00    -0.388 OA
HETATM   22  C   UNK N   1      32.010   5.886  21.840  0.00  0.00     0.188 C 
HETATM   23  C   UNK N   1      32.683   7.180  22.306  0.00  0.00     0.167 C 
ENDROOT
BRANCH   1  24
HETATM   24  C   UNK N   1      35.324  11.339  18.664  0.00  0.00     0.009 C 
HETATM   25  C   UNK N   1      35.036  12.690  18.563  0.00  0.00     0.017 C 
HETATM   26  C   UNK N   1      35.286  13.351  17.386  0.00  0.00     0.030 C 
HETATM   27  C   UNK N   1      35.848  12.677  16.290  0.00  0.00     0.036 C 
HETATM   28  C   UNK N   1      36.075  11.300  16.362  0.00  0.00     0.030 C 
HETATM   29  C   UNK N   1      35.760  10.618  17.538  0.00  0.00     0.017 C 
BRANCH  27  30
HETATM   30  N   UNK N   1      36.658  13.465  15.453  0.00  0.00    -0.309 N 
HETATM   31  C   UNK N   1      36.120  13.741  14.232  0.00  0.00     0.325 C 
HETATM   32  O   UNK N   1      34.917  13.561  14.052  0.00  0.00    -0.247 OA
HETATM   33  N   UNK N   1      36.920  14.047  13.184  0.00  0.00    -0.309 N 
HETATM   34  H   UNK N   1      37.831  14.374  13.363  0.00  0.00     0.170 HD
HETATM   35  H   UNK N   1      37.546  13.792  15.727  0.00  0.00     0.170 HD
BRANCH  33  36
HETATM   36  C   UNK N   1      36.488  13.914  11.828  0.00  0.00     0.038 A 
HETATM   37  C   UNK N   1      36.126  15.053  11.118  0.00  0.00     0.046 A 
HETATM   38  C   UNK N   1      35.846  14.955   9.752  0.00  0.00     0.090 A 
HETATM   39  N   UNK N   1      35.940  13.756   9.114  0.00  0.00    -0.375 N 
HETATM   40  C   UNK N   1      36.294  12.627   9.777  0.00  0.00     0.090 A 
ATOM     41  HN  UNK N   1      35.738  13.706   8.115  1.00  0.00     0.164 HD
HETATM   42  C   UNK N   1      36.581  12.689  11.136  0.00  0.00     0.046 A 
ENDBRANCH  33  36
ENDBRANCH  27  30
ENDBRANCH   1  24
TORSDOF 3
ENDMDL
MODEL 5
REMARK VINA RESULT:      -8.9      2.758      9.301
REMARK  3 active torsions:
REMARK  status: ('A' for Active; 'I' for Inactive)
REMARK    1  A    between atoms: C_3  and  N_30 
REMARK    2  A    between atoms: C_6  and  C_7 
REMARK       I    between atoms: C_10  and  N_24 
REMARK       I    between atoms: C_13  and  N_16 
REMARK       I    between atoms: N_30  and  C_31 
REMARK       I    between atoms: C_31  and  N_33 
REMARK    3  A    between atoms: N_33  and  C_34 
ROOT
HETATM    1  C   UNK N   1      36.072  14.765  10.347  0.00  0.00     0.146 A 
HETATM    2  N   UNK N   1      35.832  14.186  11.551  0.00  0.00    -0.175 N 
ATOM      3  HN  UNK N   1      34.935  14.330  12.015  1.00  0.00     0.186 HD
HETATM    4  C   UNK N   1      36.780  13.417  12.137  0.00  0.00     0.696 A 
HETATM    5  N   UNK N   1      37.927  13.141  11.454  0.00  0.00    -0.022 N 
ATOM      6  HN  UNK N   1      38.618  12.503  11.851  1.00  0.00     0.203 HD
HETATM    7  C   UNK N   1      38.149  13.720  10.237  0.00  0.00     0.697 A 
HETATM    8  N   UNK N   1      37.236  14.563   9.727  0.00  0.00    -0.175 N 
ATOM      9  HN  UNK N   1      37.436  15.055   8.856  1.00  0.00     0.186 HD
HETATM   10  N   UNK N   1      39.070  13.143   9.324  0.00  0.00    -0.204 N 
HETATM   11  C   UNK N   1      38.919  13.443   7.924  0.00  0.00     0.126 C 
HETATM   12  C   UNK N   1      40.085  12.688   7.316  0.00  0.00     0.030 C 
HETATM   13  C   UNK N   1      40.381  11.562   8.319  0.00  0.00     0.030 C 
HETATM   14  C   UNK N   1      39.374  11.754   9.446  0.00  0.00     0.126 C 
HETATM   15  C   UNK N   1      38.091  10.990   8.997  0.00  0.00     0.193 C 
HETATM   16  O   UNK N   1      37.090  11.851   8.452  0.00  0.00    -0.387 OA
HETATM   17  C   UNK N   1      37.641  12.695   7.444  0.00  0.00     0.193 C 
HETATM   18  N   UNK N   1      36.525  12.822  13.404  0.00  0.00    -0.213 N 
HETATM   19  C   UNK N   1      35.313  13.161  14.132  0.00  0.00     0.167 C 
HETATM   20  C   UNK N   1      34.830  11.953  14.933  0.00  0.00     0.188 C 
HETATM   21  O   UNK N   1      35.888  11.468  15.719  0.00  0.00    -0.388 OA
HETATM   22  C   UNK N   1      36.778  10.856  14.821  0.00  0.00     0.188 C 
HETATM   23  C   UNK N   1      37.500  11.938  14.013  0.00  0.00     0.167 C 
ENDROOT
BRANCH   1  24
HETATM   24  C   UNK N   1      35.001  15.344   9.576  0.00  0.00     0.009 C 
HETATM   25  C   UNK N   1      34.938  16.725   9.488  0.00  0.00     0.017 C 
HETATM   26  C   UNK N   1      33.921  17.314   8.780  0.00  0.00     0.030 C 
HETATM   27  C   UNK N   1      32.955  16.532   8.126  0.00  0.00     0.036 C 
HETATM   28  C   UNK N   1      32.972  15.142   8.269  0.00  0.00     0.030 C 
HETATM   29  C   UNK N   1      33.970  14.550   9.043  0.00  0.00     0.017 C 
BRANCH  27  30
HETATM   30  N   UNK N   1      32.419  17.097   6.954  0.00  0.00    -0.309 N 
HETATM   31  C   UNK N   1      31.110  17.465   7.045  0.00  0.00     0.325 C 
HETATM   32  O   UNK N   1      30.588  17.562   8.154  0.00  0.00    -0.247 OA
HETATM   33  N   UNK N   1      30.347  17.559   5.931  0.00  0.00    -0.309 N 
HETATM   34  H   UNK N   1      30.791  17.672   5.061  0.00  0.00     0.170 HD
HETATM   35  H   UNK N   1      32.947  17.217   6.132  0.00  0.00     0.170 HD
BRANCH  33  36
HETATM   36  C   UNK N   1      28.919  17.501   5.976  0.00  0.00     0.038 A 
HETATM   37  C   UNK N   1      28.188  18.664   5.760  0.00  0.00     0.046 A 
HETATM   38  C   UNK N   1      26.795  18.594   5.653  0.00  0.00     0.090 A 
HETATM   39  N   UNK N   1      26.157  17.395   5.745  0.00  0.00    -0.375 N 
HETATM   40  C   UNK N   1      26.842  16.242   5.951  0.00  0.00     0.090 A 
ATOM     41  HN  UNK N   1      25.141  17.363   5.657  1.00  0.00     0.164 HD
HETATM   42  C   UNK N   1      28.227  16.275   6.060  0.00  0.00     0.046 A 
ENDBRANCH  33  36
ENDBRANCH  27  30
ENDBRANCH   1  24
TORSDOF 3
ENDMDL
MODEL 6
REMARK VINA RESULT:      -8.7      6.379     10.651
REMARK  3 active torsions:
REMARK  status: ('A' for Active; 'I' for Inactive)
REMARK    1  A    between atoms: C_3  and  N_30 
REMARK    2  A    between atoms: C_6  and  C_7 
REMARK       I    between atoms: C_10  and  N_24 
REMARK       I    between atoms: C_13  and  N_16 
REMARK       I    between atoms: N_30  and  C_31 
REMARK       I    between atoms: C_31  and  N_33 
REMARK    3  A    between atoms: N_33  and  C_34 
ROOT
HETATM    1  C   UNK N   1      24.742  17.383   5.290  0.00  0.00     0.146 A 
HETATM    2  N   UNK N   1      23.962  18.198   4.534  0.00  0.00    -0.175 N 
ATOM      3  HN  UNK N   1      24.393  18.901   3.934  1.00  0.00     0.186 HD
HETATM    4  C   UNK N   1      22.614  18.079   4.577  0.00  0.00     0.696 A 
HETATM    5  N   UNK N   1      22.059  17.063   5.296  0.00  0.00    -0.022 N 
ATOM      6  HN  UNK N   1      21.049  16.915   5.277  1.00  0.00     0.203 HD
HETATM    7  C   UNK N   1      22.858  16.242   6.040  0.00  0.00     0.697 A 
HETATM    8  N   UNK N   1      24.184  16.449   6.062  0.00  0.00    -0.175 N 
ATOM      9  HN  UNK N   1      24.772  15.887   6.678  1.00  0.00     0.186 HD
HETATM   10  N   UNK N   1      22.403  14.954   6.426  0.00  0.00    -0.204 N 
HETATM   11  C   UNK N   1      23.386  13.952   6.743  0.00  0.00     0.126 C 
HETATM   12  C   UNK N   1      22.517  12.772   7.130  0.00  0.00     0.030 C 
HETATM   13  C   UNK N   1      21.185  13.019   6.403  0.00  0.00     0.030 C 
HETATM   14  C   UNK N   1      21.375  14.333   5.656  0.00  0.00     0.126 C 
HETATM   15  C   UNK N   1      22.028  13.951   4.292  0.00  0.00     0.193 C 
HETATM   16  O   UNK N   1      23.440  14.162   4.271  0.00  0.00    -0.387 OA
HETATM   17  C   UNK N   1      24.061  13.549   5.399  0.00  0.00     0.193 C 
HETATM   18  N   UNK N   1      21.802  18.943   3.790  0.00  0.00    -0.213 N 
HETATM   19  C   UNK N   1      22.413  20.045   3.062  0.00  0.00     0.167 C 
HETATM   20  C   UNK N   1      21.652  20.295   1.761  0.00  0.00     0.188 C 
HETATM   21  O   UNK N   1      20.285  20.447   2.048  0.00  0.00    -0.388 OA
HETATM   22  C   UNK N   1      19.825  19.164   2.385  0.00  0.00     0.188 C 
HETATM   23  C   UNK N   1      20.361  18.784   3.768  0.00  0.00     0.167 C 
ENDROOT
BRANCH   1  24
HETATM   24  C   UNK N   1      26.162  17.291   5.058  0.00  0.00     0.009 C 
HETATM   25  C   UNK N   1      26.597  17.144   3.751  0.00  0.00     0.017 C 
HETATM   26  C   UNK N   1      27.940  17.033   3.491  0.00  0.00     0.030 C 
HETATM   27  C   UNK N   1      28.879  17.085   4.534  0.00  0.00     0.036 C 
HETATM   28  C   UNK N   1      28.443  17.162   5.859  0.00  0.00     0.030 C 
HETATM   29  C   UNK N   1      27.074  17.210   6.124  0.00  0.00     0.017 C 
BRANCH  27  30
HETATM   30  N   UNK N   1      30.130  17.630   4.187  0.00  0.00    -0.309 N 
HETATM   31  C   UNK N   1      31.204  16.927   4.644  0.00  0.00     0.325 C 
HETATM   32  O   UNK N   1      31.044  15.775   5.041  0.00  0.00    -0.247 OA
HETATM   33  N   UNK N   1      32.399  17.539   4.817  0.00  0.00    -0.309 N 
HETATM   34  H   UNK N   1      32.576  18.377   4.333  0.00  0.00     0.170 HD
HETATM   35  H   UNK N   1      30.221  18.454   3.658  0.00  0.00     0.170 HD
BRANCH  33  36
HETATM   36  C   UNK N   1      33.411  17.011   5.677  0.00  0.00     0.038 A 
HETATM   37  C   UNK N   1      33.520  17.502   6.974  0.00  0.00     0.046 A 
HETATM   38  C   UNK N   1      34.403  16.893   7.870  0.00  0.00     0.090 A 
HETATM   39  N   UNK N   1      35.143  15.818   7.485  0.00  0.00    -0.375 N 
HETATM   40  C   UNK N   1      35.057  15.313   6.229  0.00  0.00     0.090 A 
ATOM     41  HN  UNK N   1      35.778  15.382   8.156  1.00  0.00     0.164 HD
HETATM   42  C   UNK N   1      34.188  15.892   5.312  0.00  0.00     0.046 A 
ENDBRANCH  33  36
ENDBRANCH  27  30
ENDBRANCH   1  24
TORSDOF 3
ENDMDL
MODEL 7
REMARK VINA RESULT:      -8.7      4.523     12.848
REMARK  3 active torsions:
REMARK  status: ('A' for Active; 'I' for Inactive)
REMARK    1  A    between atoms: C_3  and  N_30 
REMARK    2  A    between atoms: C_6  and  C_7 
REMARK       I    between atoms: C_10  and  N_24 
REMARK       I    between atoms: C_13  and  N_16 
REMARK       I    between atoms: N_30  and  C_31 
REMARK       I    between atoms: C_31  and  N_33 
REMARK    3  A    between atoms: N_33  and  C_34 
ROOT
HETATM    1  C   UNK N   1      35.799   9.723  18.771  0.00  0.00     0.146 A 
HETATM    2  N   UNK N   1      34.584   9.290  19.193  0.00  0.00    -0.175 N 
ATOM      3  HN  UNK N   1      33.739   9.776  18.893  1.00  0.00     0.186 HD
HETATM    4  C   UNK N   1      34.492   8.216  20.012  0.00  0.00     0.696 A 
HETATM    5  N   UNK N   1      35.618   7.510  20.313  0.00  0.00    -0.022 N 
ATOM      6  HN  UNK N   1      35.555   6.656  20.867  1.00  0.00     0.203 HD
HETATM    7  C   UNK N   1      36.834   7.950  19.869  0.00  0.00     0.697 A 
HETATM    8  N   UNK N   1      36.907   9.079  19.147  0.00  0.00    -0.175 N 
ATOM      9  HN  UNK N   1      37.819   9.450  18.882  1.00  0.00     0.186 HD
HETATM   10  N   UNK N   1      37.930   7.054  19.774  0.00  0.00    -0.204 N 
HETATM   11  C   UNK N   1      38.998   7.381  18.866  0.00  0.00     0.126 C 
HETATM   12  C   UNK N   1      39.958   6.228  19.085  0.00  0.00     0.030 C 
HETATM   13  C   UNK N   1      39.073   5.082  19.599  0.00  0.00     0.030 C 
HETATM   14  C   UNK N   1      37.663   5.658  19.654  0.00  0.00     0.126 C 
HETATM   15  C   UNK N   1      37.069   5.452  18.228  0.00  0.00     0.193 C 
HETATM   16  O   UNK N   1      37.122   6.632  17.425  0.00  0.00    -0.387 OA
HETATM   17  C   UNK N   1      38.435   7.189  17.427  0.00  0.00     0.193 C 
HETATM   18  N   UNK N   1      33.215   7.774  20.459  0.00  0.00    -0.213 N 
HETATM   19  C   UNK N   1      32.030   8.564  20.159  0.00  0.00     0.167 C 
HETATM   20  C   UNK N   1      30.826   7.644  19.965  0.00  0.00     0.188 C 
HETATM   21  O   UNK N   1      30.715   6.789  21.074  0.00  0.00    -0.388 OA
HETATM   22  C   UNK N   1      31.773   5.874  20.955  0.00  0.00     0.188 C 
HETATM   23  C   UNK N   1      33.091   6.583  21.277  0.00  0.00     0.167 C 
ENDROOT
BRANCH   1  24
HETATM   24  C   UNK N   1      35.916  10.669  17.690  0.00  0.00     0.009 C 
HETATM   25  C   UNK N   1      35.292  11.898  17.834  0.00  0.00     0.017 C 
HETATM   26  C   UNK N   1      35.363  12.818  16.818  0.00  0.00     0.030 C 
HETATM   27  C   UNK N   1      36.077  12.535  15.643  0.00  0.00     0.036 C 
HETATM   28  C   UNK N   1      36.648  11.273  15.462  0.00  0.00     0.030 C 
HETATM   29  C   UNK N   1      36.519  10.317  16.470  0.00  0.00     0.017 C 
BRANCH  27  30
HETATM   30  N   UNK N   1      36.658  13.650  15.011  0.00  0.00    -0.309 N 
HETATM   31  C   UNK N   1      36.000  14.084  13.900  0.00  0.00     0.325 C 
HETATM   32  O   UNK N   1      34.850  13.702  13.696  0.00  0.00    -0.247 OA
HETATM   33  N   UNK N   1      36.655  14.789  12.948  0.00  0.00    -0.309 N 
HETATM   34  H   UNK N   1      37.491  15.248  13.190  0.00  0.00     0.170 HD
HETATM   35  H   UNK N   1      37.477  14.083  15.346  0.00  0.00     0.170 HD
BRANCH  33  36
HETATM   36  C   UNK N   1      36.176  14.888  11.605  0.00  0.00     0.038 A 
HETATM   37  C   UNK N   1      35.471  16.023  11.221  0.00  0.00     0.046 A 
HETATM   38  C   UNK N   1      35.127  16.200   9.877  0.00  0.00     0.090 A 
HETATM   39  N   UNK N   1      35.490  15.277   8.946  0.00  0.00    -0.375 N 
HETATM   40  C   UNK N   1      36.181  14.160   9.288  0.00  0.00     0.090 A 
ATOM     41  HN  UNK N   1      35.236  15.427   7.968  1.00  0.00     0.164 HD
HETATM   42  C   UNK N   1      36.542  13.954  10.614  0.00  0.00     0.046 A 
ENDBRANCH  33  36
ENDBRANCH  27  30
ENDBRANCH   1  24
TORSDOF 3
ENDMDL
MODEL 8
REMARK VINA RESULT:      -8.6      6.849     11.375
REMARK  3 active torsions:
REMARK  status: ('A' for Active; 'I' for Inactive)
REMARK    1  A    between atoms: C_3  and  N_30 
REMARK    2  A    between atoms: C_6  and  C_7 
REMARK       I    between atoms: C_10  and  N_24 
REMARK       I    between atoms: C_13  and  N_16 
REMARK       I    between atoms: N_30  and  C_31 
REMARK       I    between atoms: C_31  and  N_33 
REMARK    3  A    between atoms: N_33  and  C_34 
ROOT
HETATM    1  C   UNK N   1      24.603  15.345   5.828  0.00  0.00     0.146 A 
HETATM    2  N   UNK N   1      24.622  14.556   6.932  0.00  0.00    -0.175 N 
ATOM      3  HN  UNK N   1      25.461  14.510   7.510  1.00  0.00     0.186 HD
HETATM    4  C   UNK N   1      23.531  13.828   7.267  0.00  0.00     0.696 A 
HETATM    5  N   UNK N   1      22.382  13.985   6.550  0.00  0.00    -0.022 N 
ATOM      6  HN  UNK N   1      21.530  13.501   6.836  1.00  0.00     0.203 HD
HETATM    7  C   UNK N   1      22.373  14.794   5.449  0.00  0.00     0.697 A 
HETATM    8  N   UNK N   1      23.501  15.422   5.079  0.00  0.00    -0.175 N 
ATOM      9  HN  UNK N   1      23.516  15.963   4.215  1.00  0.00     0.186 HD
HETATM   10  N   UNK N   1      21.152  15.324   4.957  0.00  0.00    -0.204 N 
HETATM   11  C   UNK N   1      21.202  16.524   4.163  0.00  0.00     0.126 C 
HETATM   12  C   UNK N   1      19.741  16.729   3.815  0.00  0.00     0.030 C 
HETATM   13  C   UNK N   1      18.973  16.015   4.938  0.00  0.00     0.030 C 
HETATM   14  C   UNK N   1      20.045  15.435   5.851  0.00  0.00     0.126 C 
HETATM   15  C   UNK N   1      20.409  16.575   6.850  0.00  0.00     0.193 C 
HETATM   16  O   UNK N   1      21.607  17.267   6.496  0.00  0.00    -0.387 OA
HETATM   17  C   UNK N   1      21.567  17.686   5.133  0.00  0.00     0.193 C 
HETATM   18  N   UNK N   1      23.562  12.994   8.419  0.00  0.00    -0.213 N 
HETATM   19  C   UNK N   1      24.809  12.810   9.146  0.00  0.00     0.167 C 
HETATM   20  C   UNK N   1      24.522  12.633  10.636  0.00  0.00     0.188 C 
HETATM   21  O   UNK N   1      23.571  11.613  10.805  0.00  0.00    -0.388 OA
HETATM   22  C   UNK N   1      22.354  12.153  10.361  0.00  0.00     0.188 C 
HETATM   23  C   UNK N   1      22.379  12.264   8.834  0.00  0.00     0.167 C 
ENDROOT
BRANCH   1  24
HETATM   24  C   UNK N   1      25.627  16.334   5.606  0.00  0.00     0.009 C 
HETATM   25  C   UNK N   1      26.688  16.381   6.496  0.00  0.00     0.017 C 
HETATM   26  C   UNK N   1      27.672  17.323   6.329  0.00  0.00     0.030 C 
HETATM   27  C   UNK N   1      27.627  18.226   5.255  0.00  0.00     0.036 C 
HETATM   28  C   UNK N   1      26.525  18.230   4.395  0.00  0.00     0.030 C 
HETATM   29  C   UNK N   1      25.494  17.314   4.606  0.00  0.00     0.017 C 
BRANCH  27  30
HETATM   30  N   UNK N   1      28.880  18.645   4.770  0.00  0.00    -0.309 N 
HETATM   31  C   UNK N   1      29.669  17.644   4.289  0.00  0.00     0.325 C 
HETATM   32  O   UNK N   1      29.166  16.551   4.036  0.00  0.00    -0.247 OA
HETATM   33  N   UNK N   1      31.013  17.792   4.246  0.00  0.00    -0.309 N 
HETATM   34  H   UNK N   1      31.390  18.701   4.260  0.00  0.00     0.170 HD
HETATM   35  H   UNK N   1      29.165  19.587   4.779  0.00  0.00     0.170 HD
BRANCH  33  36
HETATM   36  C   UNK N   1      31.904  16.676   4.181  0.00  0.00     0.038 A 
HETATM   37  C   UNK N   1      32.537  16.385   2.978  0.00  0.00     0.046 A 
HETATM   38  C   UNK N   1      33.521  15.392   2.938  0.00  0.00     0.090 A 
HETATM   39  N   UNK N   1      33.869  14.722   4.071  0.00  0.00    -0.375 N 
HETATM   40  C   UNK N   1      33.274  14.985   5.261  0.00  0.00     0.090 A 
ATOM     41  HN  UNK N   1      34.595  14.006   4.023  1.00  0.00     0.164 HD
HETATM   42  C   UNK N   1      32.294  15.968   5.337  0.00  0.00     0.046 A 
ENDBRANCH  33  36
ENDBRANCH  27  30
ENDBRANCH   1  24
TORSDOF 3
ENDMDL
MODEL 9
REMARK VINA RESULT:      -8.6      5.368      8.765
REMARK  3 active torsions:
REMARK  status: ('A' for Active; 'I' for Inactive)
REMARK    1  A    between atoms: C_3  and  N_30 
REMARK    2  A    between atoms: C_6  and  C_7 
REMARK       I    between atoms: C_10  and  N_24 
REMARK       I    between atoms: C_13  and  N_16 
REMARK       I    between atoms: N_30  and  C_31 
REMARK       I    between atoms: C_31  and  N_33 
REMARK    3  A    between atoms: N_33  and  C_34 
ROOT
HETATM    1  C   UNK N   1      26.030  16.765   6.067  0.00  0.00     0.146 A 
HETATM    2  N   UNK N   1      25.538  17.825   5.378  0.00  0.00    -0.175 N 
ATOM      3  HN  UNK N   1      26.155  18.596   5.123  1.00  0.00     0.186 HD
HETATM    4  C   UNK N   1      24.230  17.862   5.029  0.00  0.00     0.696 A 
HETATM    5  N   UNK N   1      23.445  16.775   5.278  0.00  0.00    -0.022 N 
ATOM      6  HN  UNK N   1      22.478  16.758   4.954  1.00  0.00     0.203 HD
HETATM    7  C   UNK N   1      23.958  15.709   5.961  0.00  0.00     0.697 A 
HETATM    8  N   UNK N   1      25.230  15.745   6.387  0.00  0.00    -0.175 N 
ATOM      9  HN  UNK N   1      25.590  14.984   6.964  1.00  0.00     0.186 HD
HETATM   10  N   UNK N   1      23.352  14.430   5.855  0.00  0.00    -0.204 N 
HETATM   11  C   UNK N   1      24.156  13.271   6.142  0.00  0.00     0.126 C 
HETATM   12  C   UNK N   1      23.157  12.145   5.956  0.00  0.00     0.030 C 
HETATM   13  C   UNK N   1      22.104  12.718   4.996  0.00  0.00     0.030 C 
HETATM   14  C   UNK N   1      22.560  14.142   4.703  0.00  0.00     0.126 C 
HETATM   15  C   UNK N   1      23.558  14.027   3.511  0.00  0.00     0.193 C 
HETATM   16  O   UNK N   1      24.925  14.066   3.920  0.00  0.00    -0.387 OA
HETATM   17  C   UNK N   1      25.168  13.128   4.967  0.00  0.00     0.193 C 
HETATM   18  N   UNK N   1      23.719  18.982   4.316  0.00  0.00    -0.213 N 
HETATM   19  C   UNK N   1      24.563  20.146   4.096  0.00  0.00     0.167 C 
HETATM   20  C   UNK N   1      24.219  20.793   2.755  0.00  0.00     0.188 C 
HETATM   21  O   UNK N   1      22.837  21.033   2.700  0.00  0.00    -0.388 OA
HETATM   22  C   UNK N   1      22.239  19.771   2.549  0.00  0.00     0.188 C 
HETATM   23  C   UNK N   1      22.339  19.006   3.871  0.00  0.00     0.167 C 
ENDROOT
BRANCH   1  24
HETATM   24  C   UNK N   1      27.450  16.562   6.203  0.00  0.00     0.009 C 
HETATM   25  C   UNK N   1      28.043  15.579   5.428  0.00  0.00     0.017 C 
HETATM   26  C   UNK N   1      29.390  15.343   5.544  0.00  0.00     0.030 C 
HETATM   27  C   UNK N   1      30.177  16.100   6.425  0.00  0.00     0.036 C 
HETATM   28  C   UNK N   1      29.575  17.044   7.261  0.00  0.00     0.030 C 
HETATM   29  C   UNK N   1      28.195  17.237   7.186  0.00  0.00     0.017 C 
BRANCH  27  30
HETATM   30  N   UNK N   1      31.513  16.287   6.025  0.00  0.00    -0.309 N 
HETATM   31  C   UNK N   1      32.442  15.745   6.862  0.00  0.00     0.325 C 
HETATM   32  O   UNK N   1      32.086  14.917   7.698  0.00  0.00    -0.247 OA
HETATM   33  N   UNK N   1      33.705  16.230   6.890  0.00  0.00    -0.309 N 
HETATM   34  H   UNK N   1      34.034  16.739   6.114  0.00  0.00     0.170 HD
HETATM   35  H   UNK N   1      31.759  16.774   5.205  0.00  0.00     0.170 HD
BRANCH  33  36
HETATM   36  C   UNK N   1      34.576  16.030   8.005  0.00  0.00     0.038 A 
HETATM   37  C   UNK N   1      34.507  16.905   9.083  0.00  0.00     0.046 A 
HETATM   38  C   UNK N   1      35.245  16.635  10.240  0.00  0.00     0.090 A 
HETATM   39  N   UNK N   1      36.017  15.517  10.319  0.00  0.00    -0.375 N 
HETATM   40  C   UNK N   1      36.103  14.641   9.286  0.00  0.00     0.090 A 
ATOM     41  HN  UNK N   1      36.543  15.333  11.174  1.00  0.00     0.164 HD
HETATM   42  C   UNK N   1      35.381  14.878   8.122  0.00  0.00     0.046 A 
ENDBRANCH  33  36
ENDBRANCH  27  30
ENDBRANCH   1  24
TORSDOF 3
ENDMDL
