REMARK  11 active torsions:
REMARK  status: ('A' for Active; 'I' for Inactive)
REMARK    1  A    between atoms: C_15  and  C_12 
REMARK    2  A    between atoms: N_38  and  C_12 
REMARK    3  A    between atoms: C_23  and  C_16 
REMARK    4  A    between atoms: C_27  and  C_17 
REMARK    5  A    between atoms: S_51  and  C_18 
REMARK    6  A    between atoms: C_20  and  C_25 
REMARK    7  A    between atoms: O_49  and  C_21 
REMARK    8  A    between atoms: O_46  and  C_25 
REMARK    9  A    between atoms: N_44  and  C_26 
REMARK   10  A    between atoms: O_49  and  C_28 
REMARK   11  A    between atoms: S_51  and  N_45 
ROOT
HETATM    1  C   UNK N   1      -0.207   1.108   0.862  0.00  0.00     0.140 C 
HETATM    2  C   UNK N   1      -0.820   1.335  -0.498  0.00  0.00     0.128 C 
HETATM    3  C   UNK N   1      -0.122  -1.300   0.221  0.00  0.00     0.154 C 
HETATM    4  C   UNK N   1      -1.593  -1.043  -0.214  0.00  0.00     0.166 C 
HETATM    5  N   UNK N   1       0.532  -0.117   0.764  0.00  0.00    -0.358 N 
HETATM    6  N   UNK N   1      -1.834   0.314  -0.793  0.00  0.00    -0.191 NA
ENDROOT
BRANCH   4   7
HETATM    7  C   UNK N   1      -2.518  -1.396   0.940  0.00  0.00     0.132 C 
HETATM    8  N   UNK N   1      -3.540  -2.178   0.790  0.00  0.00    -0.369 N 
ATOM      9  HN  UNK N   1      -4.100  -2.401   1.613  1.00  0.00     0.161 HD
BRANCH   8  10
HETATM   10  C   UNK N   1      -3.934  -2.752  -0.482  0.00  0.00     0.160 C 
BRANCH  10  11
HETATM   11  C   UNK N   1      -3.359  -4.102  -0.591  0.00  0.00    -0.037 A 
HETATM   12  C   UNK N   1      -3.888  -5.143   0.166  0.00  0.00     0.012 A 
HETATM   13  C   UNK N   1      -3.207  -6.353   0.240  0.00  0.00     0.041 A 
HETATM   14  C   UNK N   1      -1.979  -6.515  -0.411  0.00  0.00     0.116 A 
HETATM   15  C   UNK N   1      -1.485  -5.474  -1.232  0.00  0.00     0.150 A 
HETATM   16  C   UNK N   1      -2.181  -4.276  -1.311  0.00  0.00     0.054 A 
HETATM   17  F   UNK N   1      -0.323  -5.584  -1.915  0.00  0.00    -0.203 F 
BRANCH  14  18
HETATM   18  O   UNK N   1      -1.283  -7.648  -0.158  0.00  0.00    -0.252 OA
BRANCH  18  19
HETATM   19  C   UNK N   1       0.074  -7.667   0.111  0.00  0.00     0.530 C 
HETATM   20  F   UNK N   1       0.822  -7.550  -1.043  0.00  0.00    -0.144 F 
HETATM   21  F   UNK N   1       0.386  -8.867   0.714  0.00  0.00    -0.144 F 
HETATM   22  F   UNK N   1       0.394  -6.642   0.990  0.00  0.00    -0.144 F 
ENDBRANCH  18  19
ENDBRANCH  14  18
ENDBRANCH  10  11
ENDBRANCH   8  10
BRANCH   7  23
HETATM   23  O   UNK N   1      -2.262  -0.887   2.161  0.00  0.00    -0.348 OA
HETATM   24  H   UNK N   1      -1.866  -0.864   3.011  0.00  0.00     0.219 HD
ENDBRANCH   7  23
ENDBRANCH   4   7
BRANCH   6  25
HETATM   25  S   UNK N   1      -3.445   1.065  -0.546  0.00  0.00     0.244 S 
HETATM   26  O   UNK N   1      -3.459   2.297  -1.462  0.00  0.00    -0.206 OA
HETATM   27  O   UNK N   1      -3.223   1.791   0.791  0.00  0.00    -0.206 OA
BRANCH  25  28
HETATM   28  C   UNK N   1      -5.108   0.382  -0.375  0.00  0.00     0.074 A 
HETATM   29  C   UNK N   1      -5.667  -0.542  -1.271  0.00  0.00     0.025 A 
HETATM   30  C   UNK N   1      -6.966  -1.038  -1.043  0.00  0.00     0.018 A 
HETATM   31  C   UNK N   1      -7.716  -0.581   0.058  0.00  0.00     0.048 A 
HETATM   32  C   UNK N   1      -7.164   0.378   0.908  0.00  0.00     0.018 A 
HETATM   33  C   UNK N   1      -5.876   0.849   0.693  0.00  0.00     0.025 A 
BRANCH  31  34
HETATM   34  C   UNK N   1      -9.085  -1.129   0.356  0.00  0.00     0.417 C 
HETATM   35  F   UNK N   1      -9.637  -0.501   1.463  0.00  0.00    -0.166 F 
HETATM   36  F   UNK N   1      -9.924  -0.936  -0.724  0.00  0.00    -0.166 F 
HETATM   37  F   UNK N   1      -8.989  -2.482   0.625  0.00  0.00    -0.166 F 
ENDBRANCH  31  34
ENDBRANCH  25  28
ENDBRANCH   6  25
BRANCH   5  38
HETATM   38  C   UNK N   1       1.947  -0.059   0.754  0.00  0.00     0.149 A 
HETATM   39  N   UNK N   1       2.744  -1.148   0.593  0.00  0.00    -0.322 N 
HETATM   40  C   UNK N   1       4.051  -0.776   0.384  0.00  0.00     0.127 A 
ATOM     41  HN  UNK N   1       2.416  -2.113   0.622  1.00  0.00     0.169 HD
HETATM   42  C   UNK N   1       4.295   0.589   0.355  0.00  0.00     0.068 A 
HETATM   43  N   UNK N   1       5.048  -1.655   0.157  0.00  0.00    -0.331 N 
HETATM   44  C   UNK N   1       5.559   1.071   0.065  0.00  0.00     0.112 A 
HETATM   45  S   UNK N   1       2.859   1.338   0.638  0.00  0.00    -0.049 SA
HETATM   46  N   UNK N   1       6.545   0.161  -0.181  0.00  0.00    -0.354 N 
HETATM   47  C   UNK N   1       6.305  -1.191  -0.129  0.00  0.00     0.086 A 
ATOM     48  HN  UNK N   1       7.483   0.491  -0.408  1.00  0.00     0.166 HD
ATOM     49  HN  UNK N   1       4.867  -2.658   0.198  1.00  0.00     0.168 HD
BRANCH  47  50
HETATM   50  C   UNK N   1       7.427  -2.148  -0.398  0.00  0.00     0.053 A 
HETATM   51  C   UNK N   1       7.029  -3.597  -0.158  0.00  0.00     0.013 A 
HETATM   52  C   UNK N   1       7.048  -3.045  -1.566  0.00  0.00     0.013 A 
ENDBRANCH  47  50
ENDBRANCH   5  38
TORSDOF 11
