MODEL 1
REMARK VINA RESULT:      -7.5      0.000      0.000
REMARK  7 active torsions:
REMARK  status: ('A' for Active; 'I' for Inactive)
REMARK    1  A    between atoms: C_2  and  C_3 
REMARK    2  A    between atoms: C_3  and  C_4 
REMARK    3  A    between atoms: C_3  and  C_6 
REMARK    4  A    between atoms: C_6  and  C_7 
REMARK    5  A    between atoms: C_6  and  N_24 
REMARK    6  A    between atoms: C_10  and  N_13 
REMARK    7  A    between atoms: N_13  and  C_14 
ROOT
HETATM    1  C   UNK N   1      32.916  16.645   8.675  0.00  0.00    -0.033 A 
HETATM    2  C   UNK N   1      34.190  17.090   9.034  0.00  0.00     0.011 A 
HETATM    3  C   UNK N   1      35.019  16.286   9.814  0.00  0.00     0.030 A 
HETATM    4  C   UNK N   1      34.570  15.036  10.254  0.00  0.00     0.034 A 
HETATM    5  C   UNK N   1      33.284  14.599   9.914  0.00  0.00     0.030 A 
HETATM    6  C   UNK N   1      32.449  15.408   9.145  0.00  0.00     0.011 A 
ENDROOT
BRANCH   1   7
HETATM    7  C   UNK N   1      32.092  17.478   7.737  0.00  0.00     0.146 C 
BRANCH   7   8
HETATM    8  C   UNK N   1      32.082  16.879   6.302  0.00  0.00     0.014 C 
BRANCH   8   9
HETATM    9  C   UNK N   1      33.175  17.449   5.415  0.00  0.00     0.002 C 
HETATM   10  C   UNK N   1      32.658  17.622   3.999  0.00  0.00     0.005 C 
ENDBRANCH   8   9
BRANCH   8  11
HETATM   11  C   UNK N   1      32.266  15.365   6.324  0.00  0.00     0.002 C 
HETATM   12  C   UNK N   1      31.029  14.671   5.786  0.00  0.00     0.005 C 
ENDBRANCH   8  11
ENDBRANCH   7   8
BRANCH   7  13
HETATM   13  N   UNK N   1      30.751  17.722   8.279  0.00  0.00    -0.277 N 
HETATM   14  C   UNK N   1      29.591  17.537   7.630  0.00  0.00     0.202 A 
HETATM   15  N   UNK N   1      28.566  17.945   8.402  0.00  0.00    -0.346 N 
HETATM   16  C   UNK N   1      29.153  18.396   9.533  0.00  0.00     0.198 A 
ATOM     17  HN  UNK N   1      27.570  17.920   8.183  1.00  0.00     0.167 HD
HETATM   18  N   UNK N   1      30.490  18.267   9.453  0.00  0.00    -0.292 N 
ATOM     19  HN  UNK N   1      31.171  18.539  10.163  1.00  0.00     0.188 HD
ENDBRANCH   7  13
ENDBRANCH   1   7
BRANCH   4  20
HETATM   20  N   UNK N   1      35.504  14.088  10.717  0.00  0.00    -0.337 N 
HETATM   21  H   UNK N   1      36.290  13.836  10.179  0.00  0.00     0.168 HD
BRANCH  20  22
HETATM   22  C   UNK N   1      35.264  13.511  11.990  0.00  0.00     0.150 A 
HETATM   23  N   UNK N   1      34.581  12.351  12.194  0.00  0.00    -0.335 N 
HETATM   24  C   UNK N   1      34.637  11.978  13.524  0.00  0.00     0.051 A 
ATOM     25  HN  UNK N   1      34.092  11.830  11.467  1.00  0.00     0.168 HD
HETATM   26  C   UNK N   1      34.060  10.824  14.049  0.00  0.00     0.031 A 
HETATM   27  C   UNK N   1      35.358  12.835  14.361  0.00  0.00     0.035 A 
HETATM   28  C   UNK N   1      34.224  10.556  15.422  0.00  0.00     0.002 A 
HETATM   29  C   UNK N   1      34.954  11.438  16.250  0.00  0.00     0.002 A 
HETATM   30  C   UNK N   1      35.534  12.597  15.716  0.00  0.00     0.021 A 
HETATM   31  S   UNK N   1      35.922  14.050  13.426  0.00  0.00    -0.052 SA
ENDBRANCH  20  22
ENDBRANCH   4  20
TORSDOF 7
ENDMDL
MODEL 2
REMARK VINA RESULT:      -7.4      2.321      3.942
REMARK  7 active torsions:
REMARK  status: ('A' for Active; 'I' for Inactive)
REMARK    1  A    between atoms: C_2  and  C_3 
REMARK    2  A    between atoms: C_3  and  C_4 
REMARK    3  A    between atoms: C_3  and  C_6 
REMARK    4  A    between atoms: C_6  and  C_7 
REMARK    5  A    between atoms: C_6  and  N_24 
REMARK    6  A    between atoms: C_10  and  N_13 
REMARK    7  A    between atoms: N_13  and  C_14 
ROOT
HETATM    1  C   UNK N   1      31.831  16.647   7.681  0.00  0.00    -0.033 A 
HETATM    2  C   UNK N   1      32.191  15.584   8.514  0.00  0.00     0.011 A 
HETATM    3  C   UNK N   1      33.328  15.676   9.315  0.00  0.00     0.030 A 
HETATM    4  C   UNK N   1      34.122  16.827   9.274  0.00  0.00     0.034 A 
HETATM    5  C   UNK N   1      33.774  17.884   8.423  0.00  0.00     0.030 A 
HETATM    6  C   UNK N   1      32.645  17.787   7.612  0.00  0.00     0.011 A 
ENDROOT
BRANCH   1   7
HETATM    7  C   UNK N   1      30.539  16.569   6.921  0.00  0.00     0.146 C 
BRANCH   7   8
HETATM    8  C   UNK N   1      29.556  17.695   7.351  0.00  0.00     0.014 C 
BRANCH   8   9
HETATM    9  C   UNK N   1      28.320  17.769   6.471  0.00  0.00     0.002 C 
HETATM   10  C   UNK N   1      27.820  19.199   6.398  0.00  0.00     0.005 C 
ENDBRANCH   8   9
BRANCH   8  11
HETATM   11  C   UNK N   1      29.075  17.502   8.786  0.00  0.00     0.002 C 
HETATM   12  C   UNK N   1      29.629  18.593   9.683  0.00  0.00     0.005 C 
ENDBRANCH   8  11
ENDBRANCH   7   8
BRANCH   7  13
HETATM   13  N   UNK N   1      30.775  16.519   5.474  0.00  0.00    -0.277 N 
HETATM   14  C   UNK N   1      31.200  17.536   4.708  0.00  0.00     0.202 A 
HETATM   15  N   UNK N   1      31.220  17.156   3.416  0.00  0.00    -0.346 N 
HETATM   16  C   UNK N   1      30.778  15.879   3.432  0.00  0.00     0.198 A 
ATOM     17  HN  UNK N   1      31.504  17.708   2.607  1.00  0.00     0.167 HD
HETATM   18  N   UNK N   1      30.497  15.494   4.691  0.00  0.00    -0.292 N 
ATOM     19  HN  UNK N   1      30.139  14.584   4.983  1.00  0.00     0.188 HD
ENDBRANCH   7  13
ENDBRANCH   1   7
BRANCH   4  20
HETATM   20  N   UNK N   1      35.036  17.076  10.318  0.00  0.00    -0.337 N 
HETATM   21  H   UNK N   1      35.221  17.991  10.632  0.00  0.00     0.168 HD
BRANCH  20  22
HETATM   22  C   UNK N   1      35.678  15.952  10.896  0.00  0.00     0.150 A 
HETATM   23  N   UNK N   1      35.472  15.516  12.169  0.00  0.00    -0.335 N 
HETATM   24  C   UNK N   1      36.131  14.321  12.390  0.00  0.00     0.051 A 
ATOM     25  HN  UNK N   1      34.910  16.005  12.866  1.00  0.00     0.168 HD
HETATM   26  C   UNK N   1      36.095  13.604  13.584  0.00  0.00     0.031 A 
HETATM   27  C   UNK N   1      36.850  13.818  11.302  0.00  0.00     0.035 A 
HETATM   28  C   UNK N   1      36.793  12.384  13.656  0.00  0.00     0.002 A 
HETATM   29  C   UNK N   1      37.516  11.896  12.545  0.00  0.00     0.002 A 
HETATM   30  C   UNK N   1      37.548  12.621  11.344  0.00  0.00     0.021 A 
HETATM   31  S   UNK N   1      36.651  14.874  10.071  0.00  0.00    -0.052 SA
ENDBRANCH  20  22
ENDBRANCH   4  20
TORSDOF 7
ENDMDL
MODEL 3
REMARK VINA RESULT:      -7.2      1.917      2.651
REMARK  7 active torsions:
REMARK  status: ('A' for Active; 'I' for Inactive)
REMARK    1  A    between atoms: C_2  and  C_3 
REMARK    2  A    between atoms: C_3  and  C_4 
REMARK    3  A    between atoms: C_3  and  C_6 
REMARK    4  A    between atoms: C_6  and  C_7 
REMARK    5  A    between atoms: C_6  and  N_24 
REMARK    6  A    between atoms: C_10  and  N_13 
REMARK    7  A    between atoms: N_13  and  C_14 
ROOT
HETATM    1  C   UNK N   1      32.359  17.246   7.704  0.00  0.00    -0.033 A 
HETATM    2  C   UNK N   1      32.342  16.239   8.672  0.00  0.00     0.011 A 
HETATM    3  C   UNK N   1      33.420  16.087   9.544  0.00  0.00     0.030 A 
HETATM    4  C   UNK N   1      34.529  16.933   9.439  0.00  0.00     0.034 A 
HETATM    5  C   UNK N   1      34.557  17.927   8.454  0.00  0.00     0.030 A 
HETATM    6  C   UNK N   1      33.486  18.072   7.574  0.00  0.00     0.011 A 
ENDROOT
BRANCH   1   7
HETATM    7  C   UNK N   1      31.138  17.463   6.860  0.00  0.00     0.146 C 
BRANCH   7   8
HETATM    8  C   UNK N   1      31.008  16.377   5.755  0.00  0.00     0.014 C 
BRANCH   8   9
HETATM    9  C   UNK N   1      30.887  16.965   4.359  0.00  0.00     0.002 C 
HETATM   10  C   UNK N   1      32.210  17.572   3.934  0.00  0.00     0.005 C 
ENDBRANCH   8   9
BRANCH   8  11
HETATM   11  C   UNK N   1      32.211  15.441   5.743  0.00  0.00     0.002 C 
HETATM   12  C   UNK N   1      31.758  13.993   5.712  0.00  0.00     0.005 C 
ENDBRANCH   8  11
ENDBRANCH   7   8
BRANCH   7  13
HETATM   13  N   UNK N   1      29.935  17.602   7.688  0.00  0.00    -0.277 N 
HETATM   14  C   UNK N   1      28.749  17.017   7.463  0.00  0.00     0.202 A 
HETATM   15  N   UNK N   1      27.852  17.437   8.375  0.00  0.00    -0.346 N 
HETATM   16  C   UNK N   1      28.538  18.307   9.148  0.00  0.00     0.198 A 
ATOM     17  HN  UNK N   1      26.874  17.161   8.463  1.00  0.00     0.167 HD
HETATM   18  N   UNK N   1      29.810  18.414   8.722  0.00  0.00    -0.292 N 
ATOM     19  HN  UNK N   1      30.537  19.008   9.120  1.00  0.00     0.188 HD
ENDBRANCH   7  13
ENDBRANCH   1   7
BRANCH   4  20
HETATM   20  N   UNK N   1      35.433  17.026  10.516  0.00  0.00    -0.337 N 
HETATM   21  H   UNK N   1      35.654  17.893  10.927  0.00  0.00     0.168 HD
BRANCH  20  22
HETATM   22  C   UNK N   1      36.010  15.818  10.983  0.00  0.00     0.150 A 
HETATM   23  N   UNK N   1      35.929  15.370  12.266  0.00  0.00    -0.335 N 
HETATM   24  C   UNK N   1      36.465  14.101  12.376  0.00  0.00     0.051 A 
ATOM     25  HN  UNK N   1      35.529  15.899  13.041  1.00  0.00     0.168 HD
HETATM   26  C   UNK N   1      36.507  13.356  13.552  0.00  0.00     0.031 A 
HETATM   27  C   UNK N   1      36.964  13.551  11.191  0.00  0.00     0.035 A 
HETATM   28  C   UNK N   1      37.059  12.061  13.509  0.00  0.00     0.002 A 
HETATM   29  C   UNK N   1      37.560  11.528  12.301  0.00  0.00     0.002 A 
HETATM   30  C   UNK N   1      37.514  12.280  11.118  0.00  0.00     0.021 A 
HETATM   31  S   UNK N   1      36.726  14.661  10.015  0.00  0.00    -0.052 SA
ENDBRANCH  20  22
ENDBRANCH   4  20
TORSDOF 7
ENDMDL
MODEL 4
REMARK VINA RESULT:      -7.2      1.131      1.712
REMARK  7 active torsions:
REMARK  status: ('A' for Active; 'I' for Inactive)
REMARK    1  A    between atoms: C_2  and  C_3 
REMARK    2  A    between atoms: C_3  and  C_4 
REMARK    3  A    between atoms: C_3  and  C_6 
REMARK    4  A    between atoms: C_6  and  C_7 
REMARK    5  A    between atoms: C_6  and  N_24 
REMARK    6  A    between atoms: C_10  and  N_13 
REMARK    7  A    between atoms: N_13  and  C_14 
ROOT
HETATM    1  C   UNK N   1      32.736  16.557   8.419  0.00  0.00    -0.033 A 
HETATM    2  C   UNK N   1      34.002  17.123   8.587  0.00  0.00     0.011 A 
HETATM    3  C   UNK N   1      34.986  16.438   9.298  0.00  0.00     0.030 A 
HETATM    4  C   UNK N   1      34.702  15.189   9.860  0.00  0.00     0.034 A 
HETATM    5  C   UNK N   1      33.426  14.632   9.711  0.00  0.00     0.030 A 
HETATM    6  C   UNK N   1      32.438  15.322   9.012  0.00  0.00     0.011 A 
ENDROOT
BRANCH   1   7
HETATM    7  C   UNK N   1      31.735  17.261   7.549  0.00  0.00     0.146 C 
BRANCH   7   8
HETATM    8  C   UNK N   1      31.440  16.454   6.253  0.00  0.00     0.014 C 
BRANCH   8   9
HETATM    9  C   UNK N   1      31.621  17.278   4.989  0.00  0.00     0.002 C 
HETATM   10  C   UNK N   1      33.089  17.602   4.787  0.00  0.00     0.005 C 
ENDBRANCH   8   9
BRANCH   8  11
HETATM   11  C   UNK N   1      32.349  15.237   6.129  0.00  0.00     0.002 C 
HETATM   12  C   UNK N   1      31.598  14.073   5.511  0.00  0.00     0.005 C 
ENDBRANCH   8  11
ENDBRANCH   7   8
BRANCH   7  13
HETATM   13  N   UNK N   1      30.530  17.618   8.304  0.00  0.00    -0.277 N 
HETATM   14  C   UNK N   1      29.264  17.389   7.925  0.00  0.00     0.202 A 
HETATM   15  N   UNK N   1      28.414  17.927   8.821  0.00  0.00    -0.346 N 
HETATM   16  C   UNK N   1      29.216  18.501   9.744  0.00  0.00     0.198 A 
ATOM     17  HN  UNK N   1      27.394  17.907   8.805  1.00  0.00     0.167 HD
HETATM   18  N   UNK N   1      30.510  18.319   9.423  0.00  0.00    -0.292 N 
ATOM     19  HN  UNK N   1      31.319  18.658   9.944  1.00  0.00     0.188 HD
ENDBRANCH   7  13
ENDBRANCH   1   7
BRANCH   4  20
HETATM   20  N   UNK N   1      35.763  14.347  10.251  0.00  0.00    -0.337 N 
HETATM   21  H   UNK N   1      36.403  13.990   9.594  0.00  0.00     0.168 HD
BRANCH  20  22
HETATM   22  C   UNK N   1      35.869  14.039  11.631  0.00  0.00     0.150 A 
HETATM   23  N   UNK N   1      36.543  14.794  12.541  0.00  0.00    -0.335 N 
HETATM   24  C   UNK N   1      36.344  14.311  13.821  0.00  0.00     0.051 A 
ATOM     25  HN  UNK N   1      37.117  15.605  12.311  1.00  0.00     0.168 HD
HETATM   26  C   UNK N   1      36.876  14.882  14.975  0.00  0.00     0.031 A 
HETATM   27  C   UNK N   1      35.521  13.186  13.921  0.00  0.00     0.035 A 
HETATM   28  C   UNK N   1      36.565  14.297  16.218  0.00  0.00     0.002 A 
HETATM   29  C   UNK N   1      35.734  13.158  16.295  0.00  0.00     0.002 A 
HETATM   30  C   UNK N   1      35.199  12.589  15.130  0.00  0.00     0.021 A 
HETATM   31  S   UNK N   1      35.046  12.808  12.404  0.00  0.00    -0.052 SA
ENDBRANCH  20  22
ENDBRANCH   4  20
TORSDOF 7
ENDMDL
MODEL 5
REMARK VINA RESULT:      -7.1      3.154      5.398
REMARK  7 active torsions:
REMARK  status: ('A' for Active; 'I' for Inactive)
REMARK    1  A    between atoms: C_2  and  C_3 
REMARK    2  A    between atoms: C_3  and  C_4 
REMARK    3  A    between atoms: C_3  and  C_6 
REMARK    4  A    between atoms: C_6  and  C_7 
REMARK    5  A    between atoms: C_6  and  N_24 
REMARK    6  A    between atoms: C_10  and  N_13 
REMARK    7  A    between atoms: N_13  and  C_14 
ROOT
HETATM    1  C   UNK N   1      29.214  17.491   6.883  0.00  0.00    -0.033 A 
HETATM    2  C   UNK N   1      29.587  17.836   8.184  0.00  0.00     0.011 A 
HETATM    3  C   UNK N   1      30.935  17.885   8.537  0.00  0.00     0.030 A 
HETATM    4  C   UNK N   1      31.917  17.570   7.592  0.00  0.00     0.034 A 
HETATM    5  C   UNK N   1      31.543  17.201   6.294  0.00  0.00     0.030 A 
HETATM    6  C   UNK N   1      30.195  17.141   5.944  0.00  0.00     0.011 A 
ENDROOT
BRANCH   1   7
HETATM    7  C   UNK N   1      27.765  17.564   6.500  0.00  0.00     0.146 C 
BRANCH   7   8
HETATM    8  C   UNK N   1      27.566  18.340   5.167  0.00  0.00     0.014 C 
BRANCH   8   9
HETATM    9  C   UNK N   1      26.112  18.406   4.731  0.00  0.00     0.002 C 
HETATM   10  C   UNK N   1      25.933  17.679   3.411  0.00  0.00     0.005 C 
ENDBRANCH   8   9
BRANCH   8  11
HETATM   11  C   UNK N   1      28.068  19.776   5.273  0.00  0.00     0.002 C 
HETATM   12  C   UNK N   1      27.232  20.559   6.269  0.00  0.00     0.005 C 
ENDBRANCH   8  11
ENDBRANCH   7   8
BRANCH   7  13
HETATM   13  N   UNK N   1      27.146  16.234   6.500  0.00  0.00    -0.277 N 
HETATM   14  C   UNK N   1      27.457  15.218   5.681  0.00  0.00     0.202 A 
HETATM   15  N   UNK N   1      26.629  14.180   5.906  0.00  0.00    -0.346 N 
HETATM   16  C   UNK N   1      25.801  14.614   6.882  0.00  0.00     0.198 A 
ATOM     17  HN  UNK N   1      26.627  13.271   5.445  1.00  0.00     0.167 HD
HETATM   18  N   UNK N   1      26.112  15.874   7.238  0.00  0.00    -0.292 N 
ATOM     19  HN  UNK N   1      25.640  16.441   7.942  1.00  0.00     0.188 HD
ENDBRANCH   7  13
ENDBRANCH   1   7
BRANCH   4  20
HETATM   20  N   UNK N   1      33.252  17.961   7.823  0.00  0.00    -0.337 N 
HETATM   21  H   UNK N   1      33.595  18.827   7.505  0.00  0.00     0.168 HD
BRANCH  20  22
HETATM   22  C   UNK N   1      34.078  17.054   8.533  0.00  0.00     0.150 A 
HETATM   23  N   UNK N   1      34.365  17.150   9.860  0.00  0.00    -0.335 N 
HETATM   24  C   UNK N   1      35.076  16.044  10.288  0.00  0.00     0.051 A 
ATOM     25  HN  UNK N   1      34.096  17.931  10.457  1.00  0.00     0.168 HD
HETATM   26  C   UNK N   1      35.495  15.829  11.599  0.00  0.00     0.031 A 
HETATM   27  C   UNK N   1      35.346  15.083   9.309  0.00  0.00     0.035 A 
HETATM   28  C   UNK N   1      36.187  14.639  11.897  0.00  0.00     0.002 A 
HETATM   29  C   UNK N   1      36.452  13.684  10.890  0.00  0.00     0.002 A 
HETATM   30  C   UNK N   1      36.025  13.904   9.572  0.00  0.00     0.021 A 
HETATM   31  S   UNK N   1      34.689  15.628   7.915  0.00  0.00    -0.052 SA
ENDBRANCH  20  22
ENDBRANCH   4  20
TORSDOF 7
ENDMDL
MODEL 6
REMARK VINA RESULT:      -7.0      2.392      8.424
REMARK  7 active torsions:
REMARK  status: ('A' for Active; 'I' for Inactive)
REMARK    1  A    between atoms: C_2  and  C_3 
REMARK    2  A    between atoms: C_3  and  C_4 
REMARK    3  A    between atoms: C_3  and  C_6 
REMARK    4  A    between atoms: C_6  and  C_7 
REMARK    5  A    between atoms: C_6  and  N_24 
REMARK    6  A    between atoms: C_10  and  N_13 
REMARK    7  A    between atoms: N_13  and  C_14 
ROOT
HETATM    1  C   UNK N   1      35.691  13.291  11.219  0.00  0.00    -0.033 A 
HETATM    2  C   UNK N   1      35.090  14.245  12.044  0.00  0.00     0.011 A 
HETATM    3  C   UNK N   1      34.967  15.565  11.613  0.00  0.00     0.030 A 
HETATM    4  C   UNK N   1      35.462  15.942  10.360  0.00  0.00     0.034 A 
HETATM    5  C   UNK N   1      36.086  14.991   9.543  0.00  0.00     0.030 A 
HETATM    6  C   UNK N   1      36.220  13.674   9.977  0.00  0.00     0.011 A 
ENDROOT
BRANCH   1   7
HETATM    7  C   UNK N   1      35.702  11.855  11.656  0.00  0.00     0.146 C 
BRANCH   7   8
HETATM    8  C   UNK N   1      35.434  11.722  13.182  0.00  0.00     0.014 C 
BRANCH   8   9
HETATM    9  C   UNK N   1      34.594  10.505  13.531  0.00  0.00     0.002 C 
HETATM   10  C   UNK N   1      33.613  10.851  14.635  0.00  0.00     0.005 C 
ENDBRANCH   8   9
BRANCH   8  11
HETATM   11  C   UNK N   1      36.733  11.612  13.973  0.00  0.00     0.002 C 
HETATM   12  C   UNK N   1      36.858  12.764  14.953  0.00  0.00     0.005 C 
ENDBRANCH   8  11
ENDBRANCH   7   8
BRANCH   7  13
HETATM   13  N   UNK N   1      34.805  11.040  10.831  0.00  0.00    -0.277 N 
HETATM   14  C   UNK N   1      35.151   9.949  10.130  0.00  0.00     0.202 A 
HETATM   15  N   UNK N   1      34.094   9.508   9.421  0.00  0.00    -0.346 N 
HETATM   16  C   UNK N   1      33.105  10.381   9.711  0.00  0.00     0.198 A 
ATOM     17  HN  UNK N   1      34.050   8.697   8.804  1.00  0.00     0.167 HD
HETATM   18  N   UNK N   1      33.543  11.323  10.566  0.00  0.00    -0.292 N 
ATOM     19  HN  UNK N   1      33.004  12.105  10.938  1.00  0.00     0.188 HD
ENDBRANCH   7  13
ENDBRANCH   1   7
BRANCH   4  20
HETATM   20  N   UNK N   1      35.028  17.150   9.778  0.00  0.00    -0.337 N 
HETATM   21  H   UNK N   1      35.446  18.011  10.009  0.00  0.00     0.168 HD
BRANCH  20  22
HETATM   22  C   UNK N   1      33.962  17.072   8.846  0.00  0.00     0.150 A 
HETATM   23  N   UNK N   1      32.643  17.078   9.181  0.00  0.00    -0.335 N 
HETATM   24  C   UNK N   1      31.851  17.133   8.049  0.00  0.00     0.051 A 
ATOM     25  HN  UNK N   1      32.286  17.044  10.135  1.00  0.00     0.168 HD
HETATM   26  C   UNK N   1      30.459  17.181   8.056  0.00  0.00     0.031 A 
HETATM   27  C   UNK N   1      32.539  17.172   6.832  0.00  0.00     0.035 A 
HETATM   28  C   UNK N   1      29.783  17.266   6.823  0.00  0.00     0.002 A 
HETATM   29  C   UNK N   1      30.499  17.299   5.606  0.00  0.00     0.002 A 
HETATM   30  C   UNK N   1      31.900  17.253   5.604  0.00  0.00     0.021 A 
HETATM   31  S   UNK N   1      34.134  17.139   7.186  0.00  0.00    -0.052 SA
ENDBRANCH  20  22
ENDBRANCH   4  20
TORSDOF 7
ENDMDL
MODEL 7
REMARK VINA RESULT:      -7.0      2.533      8.732
REMARK  7 active torsions:
REMARK  status: ('A' for Active; 'I' for Inactive)
REMARK    1  A    between atoms: C_2  and  C_3 
REMARK    2  A    between atoms: C_3  and  C_4 
REMARK    3  A    between atoms: C_3  and  C_6 
REMARK    4  A    between atoms: C_6  and  C_7 
REMARK    5  A    between atoms: C_6  and  N_24 
REMARK    6  A    between atoms: C_10  and  N_13 
REMARK    7  A    between atoms: N_13  and  C_14 
ROOT
HETATM    1  C   UNK N   1      35.504  13.769  11.780  0.00  0.00    -0.033 A 
HETATM    2  C   UNK N   1      36.144  14.976  12.069  0.00  0.00     0.011 A 
HETATM    3  C   UNK N   1      35.822  16.128  11.353  0.00  0.00     0.030 A 
HETATM    4  C   UNK N   1      34.868  16.073  10.331  0.00  0.00     0.034 A 
HETATM    5  C   UNK N   1      34.243  14.858  10.026  0.00  0.00     0.030 A 
HETATM    6  C   UNK N   1      34.574  13.704  10.732  0.00  0.00     0.011 A 
ENDROOT
BRANCH   1   7
HETATM    7  C   UNK N   1      35.783  12.574  12.645  0.00  0.00     0.146 C 
BRANCH   7   8
HETATM    8  C   UNK N   1      37.220  12.026  12.415  0.00  0.00     0.014 C 
BRANCH   8   9
HETATM    9  C   UNK N   1      37.443  10.665  13.051  0.00  0.00     0.002 C 
HETATM   10  C   UNK N   1      38.358  10.799  14.254  0.00  0.00     0.005 C 
ENDBRANCH   8   9
BRANCH   8  11
HETATM   11  C   UNK N   1      37.536  11.884  10.930  0.00  0.00     0.002 C 
HETATM   12  C   UNK N   1      38.681  12.799  10.540  0.00  0.00     0.005 C 
ENDBRANCH   8  11
ENDBRANCH   7   8
BRANCH   7  13
HETATM   13  N   UNK N   1      35.481  12.852  14.053  0.00  0.00    -0.277 N 
HETATM   14  C   UNK N   1      36.225  13.592  14.888  0.00  0.00     0.202 A 
HETATM   15  N   UNK N   1      35.692  13.561  16.125  0.00  0.00    -0.346 N 
HETATM   16  C   UNK N   1      34.607  12.764  16.004  0.00  0.00     0.198 A 
ATOM     17  HN  UNK N   1      36.030  14.033  16.963  1.00  0.00     0.167 HD
HETATM   18  N   UNK N   1      34.484  12.324  14.739  0.00  0.00    -0.292 N 
ATOM     19  HN  UNK N   1      33.761  11.701  14.379  1.00  0.00     0.188 HD
ENDBRANCH   7  13
ENDBRANCH   1   7
BRANCH   4  20
HETATM   20  N   UNK N   1      34.283  17.268   9.865  0.00  0.00    -0.337 N 
HETATM   21  H   UNK N   1      34.421  18.124  10.333  0.00  0.00     0.168 HD
BRANCH  20  22
HETATM   22  C   UNK N   1      33.489  17.185   8.693  0.00  0.00     0.150 A 
HETATM   23  N   UNK N   1      32.128  17.163   8.684  0.00  0.00    -0.335 N 
HETATM   24  C   UNK N   1      31.647  17.221   7.390  0.00  0.00     0.051 A 
ATOM     25  HN  UNK N   1      31.543  17.110   9.518  1.00  0.00     0.168 HD
HETATM   26  C   UNK N   1      30.297  17.245   7.046  0.00  0.00     0.031 A 
HETATM   27  C   UNK N   1      32.618  17.289   6.386  0.00  0.00     0.035 A 
HETATM   28  C   UNK N   1      29.952  17.335   5.683  0.00  0.00     0.002 A 
HETATM   29  C   UNK N   1      30.951  17.398   4.686  0.00  0.00     0.002 A 
HETATM   30  C   UNK N   1      32.308  17.376   5.038  0.00  0.00     0.021 A 
HETATM   31  S   UNK N   1      34.072  17.278   7.131  0.00  0.00    -0.052 SA
ENDBRANCH  20  22
ENDBRANCH   4  20
TORSDOF 7
ENDMDL
MODEL 8
REMARK VINA RESULT:      -7.0      1.809      2.448
REMARK  7 active torsions:
REMARK  status: ('A' for Active; 'I' for Inactive)
REMARK    1  A    between atoms: C_2  and  C_3 
REMARK    2  A    between atoms: C_3  and  C_4 
REMARK    3  A    between atoms: C_3  and  C_6 
REMARK    4  A    between atoms: C_6  and  C_7 
REMARK    5  A    between atoms: C_6  and  N_24 
REMARK    6  A    between atoms: C_10  and  N_13 
REMARK    7  A    between atoms: N_13  and  C_14 
ROOT
HETATM    1  C   UNK N   1      34.644  15.591   9.184  0.00  0.00    -0.033 A 
HETATM    2  C   UNK N   1      35.322  16.362  10.131  0.00  0.00     0.011 A 
HETATM    3  C   UNK N   1      36.109  15.745  11.103  0.00  0.00     0.030 A 
HETATM    4  C   UNK N   1      36.206  14.350  11.142  0.00  0.00     0.034 A 
HETATM    5  C   UNK N   1      35.508  13.575  10.207  0.00  0.00     0.030 A 
HETATM    6  C   UNK N   1      34.712  14.191   9.244  0.00  0.00     0.011 A 
ENDROOT
BRANCH   1   7
HETATM    7  C   UNK N   1      33.903  16.284   8.077  0.00  0.00     0.146 C 
BRANCH   7   8
HETATM    8  C   UNK N   1      33.866  15.419   6.786  0.00  0.00     0.014 C 
BRANCH   8   9
HETATM    9  C   UNK N   1      32.804  15.873   5.799  0.00  0.00     0.002 C 
HETATM   10  C   UNK N   1      33.291  17.092   5.038  0.00  0.00     0.005 C 
ENDBRANCH   8   9
BRANCH   8  11
HETATM   11  C   UNK N   1      35.202  15.448   6.052  0.00  0.00     0.002 C 
HETATM   12  C   UNK N   1      35.592  14.053   5.601  0.00  0.00     0.005 C 
ENDBRANCH   8  11
ENDBRANCH   7   8
BRANCH   7  13
HETATM   13  N   UNK N   1      32.578  16.730   8.522  0.00  0.00    -0.277 N 
HETATM   14  C   UNK N   1      32.113  17.988   8.479  0.00  0.00     0.202 A 
HETATM   15  N   UNK N   1      30.894  18.043   9.049  0.00  0.00    -0.346 N 
HETATM   16  C   UNK N   1      30.650  16.776   9.448  0.00  0.00     0.198 A 
ATOM     17  HN  UNK N   1      30.291  18.859   9.155  1.00  0.00     0.167 HD
HETATM   18  N   UNK N   1      31.685  15.975   9.134  0.00  0.00    -0.292 N 
ATOM     19  HN  UNK N   1      31.763  14.977   9.331  1.00  0.00     0.188 HD
ENDBRANCH   7  13
ENDBRANCH   1   7
BRANCH   4  20
HETATM   20  N   UNK N   1      37.257  13.749  11.864  0.00  0.00    -0.337 N 
HETATM   21  H   UNK N   1      38.168  13.694  11.495  0.00  0.00     0.168 HD
BRANCH  20  22
HETATM   22  C   UNK N   1      36.946  13.228  13.146  0.00  0.00     0.150 A 
HETATM   23  N   UNK N   1      36.253  13.901  14.105  0.00  0.00    -0.335 N 
HETATM   24  C   UNK N   1      35.989  13.080  15.185  0.00  0.00     0.051 A 
ATOM     25  HN  UNK N   1      35.969  14.878  14.037  1.00  0.00     0.168 HD
HETATM   26  C   UNK N   1      35.273  13.464  16.316  0.00  0.00     0.031 A 
HETATM   27  C   UNK N   1      36.467  11.771  15.079  0.00  0.00     0.035 A 
HETATM   28  C   UNK N   1      35.054  12.509  17.329  0.00  0.00     0.002 A 
HETATM   29  C   UNK N   1      35.550  11.193  17.202  0.00  0.00     0.002 A 
HETATM   30  C   UNK N   1      36.268  10.811  16.060  0.00  0.00     0.021 A 
HETATM   31  S   UNK N   1      37.215  11.653  13.631  0.00  0.00    -0.052 SA
ENDBRANCH  20  22
ENDBRANCH   4  20
TORSDOF 7
ENDMDL
MODEL 9
REMARK VINA RESULT:      -6.9     15.349     17.960
REMARK  7 active torsions:
REMARK  status: ('A' for Active; 'I' for Inactive)
REMARK    1  A    between atoms: C_2  and  C_3 
REMARK    2  A    between atoms: C_3  and  C_4 
REMARK    3  A    between atoms: C_3  and  C_6 
REMARK    4  A    between atoms: C_6  and  C_7 
REMARK    5  A    between atoms: C_6  and  N_24 
REMARK    6  A    between atoms: C_10  and  N_13 
REMARK    7  A    between atoms: N_13  and  C_14 
ROOT
HETATM    1  C   UNK N   1      28.127  25.311  -4.282  0.00  0.00    -0.033 A 
HETATM    2  C   UNK N   1      29.515  25.448  -4.211  0.00  0.00     0.011 A 
HETATM    3  C   UNK N   1      30.264  24.583  -3.415  0.00  0.00     0.030 A 
HETATM    4  C   UNK N   1      29.625  23.586  -2.670  0.00  0.00     0.034 A 
HETATM    5  C   UNK N   1      28.231  23.463  -2.723  0.00  0.00     0.030 A 
HETATM    6  C   UNK N   1      27.480  24.335  -3.509  0.00  0.00     0.011 A 
ENDROOT
BRANCH   1   7
HETATM    7  C   UNK N   1      27.359  26.176  -5.238  0.00  0.00     0.146 C 
BRANCH   7   8
HETATM    8  C   UNK N   1      26.229  25.378  -5.948  0.00  0.00     0.014 C 
BRANCH   8   9
HETATM    9  C   UNK N   1      25.491  26.199  -6.992  0.00  0.00     0.002 C 
HETATM   10  C   UNK N   1      26.438  26.584  -8.114  0.00  0.00     0.005 C 
ENDBRANCH   8   9
BRANCH   8  11
HETATM   11  C   UNK N   1      26.774  24.141  -6.654  0.00  0.00     0.002 C 
HETATM   12  C   UNK N   1      25.837  22.963  -6.460  0.00  0.00     0.005 C 
ENDBRANCH   8  11
ENDBRANCH   7   8
BRANCH   7  13
HETATM   13  N   UNK N   1      26.888  27.403  -4.585  0.00  0.00    -0.277 N 
HETATM   14  C   UNK N   1      25.933  27.481  -3.646  0.00  0.00     0.202 A 
HETATM   15  N   UNK N   1      25.699  28.771  -3.338  0.00  0.00    -0.346 N 
HETATM   16  C   UNK N   1      26.539  29.466  -4.137  0.00  0.00     0.198 A 
ATOM     17  HN  UNK N   1      25.038  29.141  -2.656  1.00  0.00     0.167 HD
HETATM   18  N   UNK N   1      27.259  28.628  -4.906  0.00  0.00    -0.292 N 
ATOM     19  HN  UNK N   1      27.956  28.891  -5.603  1.00  0.00     0.188 HD
ENDBRANCH   7  13
ENDBRANCH   1   7
BRANCH   4  20
HETATM   20  N   UNK N   1      30.378  22.505  -2.168  0.00  0.00    -0.337 N 
HETATM   21  H   UNK N   1      30.296  22.213  -1.231  0.00  0.00     0.168 HD
BRANCH  20  22
HETATM   22  C   UNK N   1      31.260  21.857  -3.070  0.00  0.00     0.150 A 
HETATM   23  N   UNK N   1      32.517  21.442  -2.755  0.00  0.00    -0.335 N 
HETATM   24  C   UNK N   1      33.069  20.722  -3.798  0.00  0.00     0.051 A 
ATOM     25  HN  UNK N   1      32.988  21.636  -1.872  1.00  0.00     0.168 HD
HETATM   26  C   UNK N   1      34.334  20.137  -3.775  0.00  0.00     0.031 A 
HETATM   27  C   UNK N   1      32.256  20.570  -4.925  0.00  0.00     0.035 A 
HETATM   28  C   UNK N   1      34.756  19.406  -4.902  0.00  0.00     0.002 A 
HETATM   29  C   UNK N   1      33.918  19.268  -6.032  0.00  0.00     0.002 A 
HETATM   30  C   UNK N   1      32.646  19.857  -6.048  0.00  0.00     0.021 A 
HETATM   31  S   UNK N   1      30.850  21.337  -4.603  0.00  0.00    -0.052 SA
ENDBRANCH  20  22
ENDBRANCH   4  20
TORSDOF 7
ENDMDL
