MODEL 1
REMARK VINA RESULT:      -7.6      0.000      0.000
REMARK  8 active torsions:
REMARK  status: ('A' for Active; 'I' for Inactive)
REMARK    1  A    between atoms: C_2  and  C_3 
REMARK    2  A    between atoms: C_2  and  O_12 
REMARK    3  A    between atoms: O_12  and  C_13 
REMARK    4  A    between atoms: C_19  and  C_23 
REMARK    5  A    between atoms: C_24  and  C_25 
REMARK    6  A    between atoms: N_29  and  C_31 
REMARK    7  A    between atoms: C_31  and  C_32 
REMARK    8  A    between atoms: C_32  and  O_33 
ROOT
HETATM    1  C   UNK N   1      30.998  16.667   7.239  0.00  0.00     0.070 A 
HETATM    2  C   UNK N   1      31.004  16.563   8.660  0.00  0.00     0.039 A 
HETATM    3  C   UNK N   1      30.034  17.251   9.434  0.00  0.00     0.034 A 
HETATM    4  C   UNK N   1      29.089  18.024   8.750  0.00  0.00     0.060 A 
HETATM    5  C   UNK N   1      29.098  18.110   7.401  0.00  0.00     0.023 A 
HETATM    6  C   UNK N   1      30.030  17.451   6.616  0.00  0.00     0.053 A 
HETATM    7  C   UNK N   1      28.018  18.894   7.067  0.00  0.00     0.060 A 
HETATM    8  N   UNK N   1      27.388  19.259   8.206  0.00  0.00    -0.299 N 
ATOM      9  HN  UNK N   1      26.550  19.837   8.266  1.00  0.00     0.187 HD
HETATM   10  N   UNK N   1      28.053  18.731   9.242  0.00  0.00    -0.299 N 
HETATM   11  H   UNK N   1      27.826  18.841  10.193  0.00  0.00     0.187 HD
ENDROOT
BRANCH   1  12
HETATM   12  O   UNK N   1      31.896  16.040   6.444  0.00  0.00    -0.342 OA
BRANCH  12  13
HETATM   13  C   UNK N   1      32.813  16.648   5.620  0.00  0.00     0.161 C 
HETATM   14  C   UNK N   1      33.819  17.442   6.445  0.00  0.00     0.045 C 
BRANCH  13  15
HETATM   15  C   UNK N   1      33.546  15.665   4.717  0.00  0.00     0.017 A 
HETATM   16  C   UNK N   1      34.416  14.642   5.196  0.00  0.00     0.059 A 
HETATM   17  C   UNK N   1      35.039  13.791   4.280  0.00  0.00     0.112 A 
HETATM   18 Cl   UNK N   1      34.797  14.383   6.896  0.00  0.00    -0.082 Cl
HETATM   19  N   UNK N   1      34.821  13.926   2.948  0.00  0.00    -0.372 N 
HETATM   20  C   UNK N   1      33.999  14.888   2.460  0.00  0.00     0.112 A 
ATOM     21  HN  UNK N   1      35.286  13.290   2.299  1.00  0.00     0.164 HD
HETATM   22  C   UNK N   1      33.351  15.771   3.323  0.00  0.00     0.059 A 
HETATM   23 Cl   UNK N   1      32.285  16.985   2.626  0.00  0.00    -0.082 Cl
ENDBRANCH  13  15
ENDBRANCH  12  13
ENDBRANCH   1  12
BRANCH   7  24
HETATM   24  C   UNK N   1      27.549  19.136   5.685  0.00  0.00     0.033 C 
HETATM   25  C   UNK N   1      26.375  18.589   5.371  0.00  0.00     0.016 C 
BRANCH  25  26
HETATM   26  C   UNK N   1      25.433  19.057   4.373  0.00  0.00    -0.002 A 
HETATM   27  C   UNK N   1      25.519  20.145   3.530  0.00  0.00     0.120 A 
HETATM   28  N   UNK N   1      24.286  20.358   3.020  0.00  0.00    -0.309 N 
HETATM   29  N   UNK N   1      23.455  19.468   3.539  0.00  0.00    -0.301 N 
ATOM     30  HN  UNK N   1      24.037  21.084   2.349  1.00  0.00     0.186 HD
HETATM   31  C   UNK N   1      24.121  18.658   4.379  0.00  0.00     0.122 A 
BRANCH  29  32
HETATM   32  C   UNK N   1      22.012  19.483   3.308  0.00  0.00     0.174 C 
BRANCH  32  33
HETATM   33  C   UNK N   1      21.596  20.470   2.219  0.00  0.00     0.185 C 
BRANCH  33  34
HETATM   34  O   UNK N   1      21.681  21.775   2.702  0.00  0.00    -0.399 OA
HETATM   35  H   UNK N   1      22.098  22.647   2.771  0.00  0.00     0.209 HD
ENDBRANCH  33  34
ENDBRANCH  32  33
ENDBRANCH  29  32
ENDBRANCH  25  26
ENDBRANCH   7  24
TORSDOF 8
ENDMDL
MODEL 2
REMARK VINA RESULT:      -7.6      5.389      9.282
REMARK  8 active torsions:
REMARK  status: ('A' for Active; 'I' for Inactive)
REMARK    1  A    between atoms: C_2  and  C_3 
REMARK    2  A    between atoms: C_2  and  O_12 
REMARK    3  A    between atoms: O_12  and  C_13 
REMARK    4  A    between atoms: C_19  and  C_23 
REMARK    5  A    between atoms: C_24  and  C_25 
REMARK    6  A    between atoms: N_29  and  C_31 
REMARK    7  A    between atoms: C_31  and  C_32 
REMARK    8  A    between atoms: C_32  and  O_33 
ROOT
HETATM    1  C   UNK N   1      22.802  19.730   3.484  0.00  0.00     0.070 A 
HETATM    2  C   UNK N   1      21.889  20.406   2.623  0.00  0.00     0.039 A 
HETATM    3  C   UNK N   1      20.615  19.845   2.348  0.00  0.00     0.034 A 
HETATM    4  C   UNK N   1      20.302  18.621   2.947  0.00  0.00     0.060 A 
HETATM    5  C   UNK N   1      21.179  17.995   3.762  0.00  0.00     0.023 A 
HETATM    6  C   UNK N   1      22.430  18.515   4.054  0.00  0.00     0.053 A 
HETATM    7  C   UNK N   1      20.536  16.865   4.211  0.00  0.00     0.060 A 
HETATM    8  N   UNK N   1      19.300  16.833   3.665  0.00  0.00    -0.299 N 
ATOM      9  HN  UNK N   1      18.595  16.114   3.824  1.00  0.00     0.187 HD
HETATM   10  N   UNK N   1      19.159  17.909   2.880  0.00  0.00    -0.299 N 
HETATM   11  H   UNK N   1      18.365  18.139   2.348  0.00  0.00     0.187 HD
ENDROOT
BRANCH   1  12
HETATM   12  O   UNK N   1      24.032  20.207   3.786  0.00  0.00    -0.342 OA
BRANCH  12  13
HETATM   13  C   UNK N   1      25.230  19.679   3.372  0.00  0.00     0.161 C 
HETATM   14  C   UNK N   1      26.083  20.755   2.711  0.00  0.00     0.045 C 
BRANCH  13  15
HETATM   15  C   UNK N   1      26.012  19.020   4.501  0.00  0.00     0.017 A 
HETATM   16  C   UNK N   1      26.613  19.739   5.576  0.00  0.00     0.059 A 
HETATM   17  C   UNK N   1      27.309  19.036   6.562  0.00  0.00     0.112 A 
HETATM   18 Cl   UNK N   1      26.568  21.491   5.742  0.00  0.00    -0.082 Cl
HETATM   19  N   UNK N   1      27.414  17.685   6.509  0.00  0.00    -0.372 N 
HETATM   20  C   UNK N   1      26.854  16.972   5.501  0.00  0.00     0.112 A 
ATOM     21  HN  UNK N   1      27.925  17.195   7.243  1.00  0.00     0.164 HD
HETATM   22  C   UNK N   1      26.149  17.615   4.484  0.00  0.00     0.059 A 
HETATM   23 Cl   UNK N   1      25.433  16.630   3.215  0.00  0.00    -0.082 Cl
ENDBRANCH  13  15
ENDBRANCH  12  13
ENDBRANCH   1  12
BRANCH   7  24
HETATM   24  C   UNK N   1      21.065  15.951   5.248  0.00  0.00     0.033 C 
HETATM   25  C   UNK N   1      20.699  16.227   6.500  0.00  0.00     0.016 C 
BRANCH  25  26
HETATM   26  C   UNK N   1      20.581  15.291   7.600  0.00  0.00    -0.002 A 
HETATM   27  C   UNK N   1      20.170  15.512   8.898  0.00  0.00     0.120 A 
HETATM   28  N   UNK N   1      20.527  14.430   9.624  0.00  0.00    -0.309 N 
HETATM   29  N   UNK N   1      21.159  13.580   8.831  0.00  0.00    -0.301 N 
ATOM     30  HN  UNK N   1      20.342  14.292  10.617  1.00  0.00     0.186 HD
HETATM   31  C   UNK N   1      21.218  14.076   7.584  0.00  0.00     0.122 A 
BRANCH  29  32
HETATM   32  C   UNK N   1      21.799  12.356   9.309  0.00  0.00     0.174 C 
BRANCH  32  33
HETATM   33  C   UNK N   1      22.117  12.398  10.803  0.00  0.00     0.185 C 
BRANCH  33  34
HETATM   34  O   UNK N   1      21.032  11.918  11.535  0.00  0.00    -0.399 OA
HETATM   35  H   UNK N   1      20.473  11.874  12.326  0.00  0.00     0.209 HD
ENDBRANCH  33  34
ENDBRANCH  32  33
ENDBRANCH  29  32
ENDBRANCH  25  26
ENDBRANCH   7  24
TORSDOF 8
ENDMDL
MODEL 3
REMARK VINA RESULT:      -7.3      1.572      2.413
REMARK  8 active torsions:
REMARK  status: ('A' for Active; 'I' for Inactive)
REMARK    1  A    between atoms: C_2  and  C_3 
REMARK    2  A    between atoms: C_2  and  O_12 
REMARK    3  A    between atoms: O_12  and  C_13 
REMARK    4  A    between atoms: C_19  and  C_23 
REMARK    5  A    between atoms: C_24  and  C_25 
REMARK    6  A    between atoms: N_29  and  C_31 
REMARK    7  A    between atoms: C_31  and  C_32 
REMARK    8  A    between atoms: C_32  and  O_33 
ROOT
HETATM    1  C   UNK N   1      30.371  16.824   6.683  0.00  0.00     0.070 A 
HETATM    2  C   UNK N   1      30.461  16.781   8.105  0.00  0.00     0.039 A 
HETATM    3  C   UNK N   1      29.615  17.594   8.902  0.00  0.00     0.034 A 
HETATM    4  C   UNK N   1      28.706  18.426   8.241  0.00  0.00     0.060 A 
HETATM    5  C   UNK N   1      28.633  18.453   6.891  0.00  0.00     0.023 A 
HETATM    6  C   UNK N   1      29.443  17.671   6.084  0.00  0.00     0.053 A 
HETATM    7  C   UNK N   1      27.613  19.325   6.586  0.00  0.00     0.060 A 
HETATM    8  N   UNK N   1      27.099  19.799   7.743  0.00  0.00    -0.299 N 
ATOM      9  HN  UNK N   1      26.326  20.459   7.826  1.00  0.00     0.187 HD
HETATM   10  N   UNK N   1      27.777  19.253   8.760  0.00  0.00    -0.299 N 
HETATM   11  H   UNK N   1      27.626  19.426   9.716  0.00  0.00     0.187 HD
ENDROOT
BRANCH   1  12
HETATM   12  O   UNK N   1      31.150  16.077   5.866  0.00  0.00    -0.342 OA
BRANCH  12  13
HETATM   13  C   UNK N   1      31.611  14.809   6.122  0.00  0.00     0.161 C 
HETATM   14  C   UNK N   1      31.189  13.858   5.007  0.00  0.00     0.045 C 
BRANCH  13  15
HETATM   15  C   UNK N   1      33.122  14.750   6.305  0.00  0.00     0.017 A 
HETATM   16  C   UNK N   1      34.060  15.109   5.294  0.00  0.00     0.059 A 
HETATM   17  C   UNK N   1      35.427  15.020   5.567  0.00  0.00     0.112 A 
HETATM   18 Cl   UNK N   1      33.615  15.643   3.676  0.00  0.00    -0.082 Cl
HETATM   19  N   UNK N   1      35.867  14.601   6.781  0.00  0.00    -0.372 N 
HETATM   20  C   UNK N   1      35.000  14.252   7.764  0.00  0.00     0.112 A 
ATOM     21  HN  UNK N   1      36.870  14.546   6.957  1.00  0.00     0.164 HD
HETATM   22  C   UNK N   1      33.623  14.316   7.552  0.00  0.00     0.059 A 
HETATM   23 Cl   UNK N   1      32.555  13.866   8.875  0.00  0.00    -0.082 Cl
ENDBRANCH  13  15
ENDBRANCH  12  13
ENDBRANCH   1  12
BRANCH   7  24
HETATM   24  C   UNK N   1      27.079  19.552   5.225  0.00  0.00     0.033 C 
HETATM   25  C   UNK N   1      25.923  18.949   4.952  0.00  0.00     0.016 C 
BRANCH  25  26
HETATM   26  C   UNK N   1      24.920  19.375   3.996  0.00  0.00    -0.002 A 
HETATM   27  C   UNK N   1      24.955  20.421   3.097  0.00  0.00     0.120 A 
HETATM   28  N   UNK N   1      23.693  20.618   2.659  0.00  0.00    -0.309 N 
HETATM   29  N   UNK N   1      22.894  19.759   3.273  0.00  0.00    -0.301 N 
ATOM     30  HN  UNK N   1      23.404  21.312   1.970  1.00  0.00     0.186 HD
HETATM   31  C   UNK N   1      23.609  18.986   4.105  0.00  0.00     0.122 A 
BRANCH  29  32
HETATM   32  C   UNK N   1      21.439  19.774   3.134  0.00  0.00     0.174 C 
BRANCH  32  33
HETATM   33  C   UNK N   1      20.977  20.299   1.776  0.00  0.00     0.185 C 
BRANCH  33  34
HETATM   34  O   UNK N   1      20.942  21.692   1.791  0.00  0.00    -0.399 OA
HETATM   35  H   UNK N   1      20.735  22.557   1.405  0.00  0.00     0.209 HD
ENDBRANCH  33  34
ENDBRANCH  32  33
ENDBRANCH  29  32
ENDBRANCH  25  26
ENDBRANCH   7  24
TORSDOF 8
ENDMDL
MODEL 4
REMARK VINA RESULT:      -7.1      4.204     10.240
REMARK  8 active torsions:
REMARK  status: ('A' for Active; 'I' for Inactive)
REMARK    1  A    between atoms: C_2  and  C_3 
REMARK    2  A    between atoms: C_2  and  O_12 
REMARK    3  A    between atoms: O_12  and  C_13 
REMARK    4  A    between atoms: C_19  and  C_23 
REMARK    5  A    between atoms: C_24  and  C_25 
REMARK    6  A    between atoms: N_29  and  C_31 
REMARK    7  A    between atoms: C_31  and  C_32 
REMARK    8  A    between atoms: C_32  and  O_33 
ROOT
HETATM    1  C   UNK N   1      23.677  19.144   4.150  0.00  0.00     0.070 A 
HETATM    2  C   UNK N   1      23.815  20.074   3.079  0.00  0.00     0.039 A 
HETATM    3  C   UNK N   1      25.094  20.576   2.725  0.00  0.00     0.034 A 
HETATM    4  C   UNK N   1      26.194  20.126   3.463  0.00  0.00     0.060 A 
HETATM    5  C   UNK N   1      26.045  19.242   4.475  0.00  0.00     0.023 A 
HETATM    6  C   UNK N   1      24.812  18.731   4.845  0.00  0.00     0.053 A 
HETATM    7  C   UNK N   1      27.314  18.981   4.937  0.00  0.00     0.060 A 
HETATM    8  N   UNK N   1      28.191  19.704   4.204  0.00  0.00    -0.299 N 
ATOM      9  HN  UNK N   1      29.204  19.706   4.317  1.00  0.00     0.187 HD
HETATM   10  N   UNK N   1      27.501  20.415   3.303  0.00  0.00    -0.299 N 
HETATM   11  H   UNK N   1      27.879  21.038   2.643  0.00  0.00     0.187 HD
ENDROOT
BRANCH   1  12
HETATM   12  O   UNK N   1      22.488  18.629   4.540  0.00  0.00    -0.342 OA
BRANCH  12  13
HETATM   13  C   UNK N   1      22.128  17.304   4.506  0.00  0.00     0.161 C 
HETATM   14  C   UNK N   1      21.165  16.989   5.645  0.00  0.00     0.045 C 
BRANCH  13  15
HETATM   15  C   UNK N   1      21.510  16.888   3.178  0.00  0.00     0.017 A 
HETATM   16  C   UNK N   1      20.574  17.682   2.454  0.00  0.00     0.059 A 
HETATM   17  C   UNK N   1      20.068  17.206   1.241  0.00  0.00     0.112 A 
HETATM   18 Cl   UNK N   1      19.968  19.243   3.000  0.00  0.00    -0.082 Cl
HETATM   19  N   UNK N   1      20.461  16.005   0.748  0.00  0.00    -0.372 N 
HETATM   20  C   UNK N   1      21.351  15.226   1.412  0.00  0.00     0.112 A 
ATOM     21  HN  UNK N   1      20.080  15.681  -0.140  1.00  0.00     0.164 HD
HETATM   22  C   UNK N   1      21.889  15.643   2.629  0.00  0.00     0.059 A 
HETATM   23 Cl   UNK N   1      23.051  14.593   3.430  0.00  0.00    -0.082 Cl
ENDBRANCH  13  15
ENDBRANCH  12  13
ENDBRANCH   1  12
BRANCH   7  24
HETATM   24  C   UNK N   1      27.647  17.953   5.948  0.00  0.00     0.033 C 
HETATM   25  C   UNK N   1      28.948  17.731   6.136  0.00  0.00     0.016 C 
BRANCH  25  26
HETATM   26  C   UNK N   1      29.584  17.243   7.344  0.00  0.00    -0.002 A 
HETATM   27  C   UNK N   1      29.445  17.680   8.645  0.00  0.00     0.120 A 
HETATM   28  N   UNK N   1      30.458  17.145   9.360  0.00  0.00    -0.309 N 
HETATM   29  N   UNK N   1      31.218  16.430   8.545  0.00  0.00    -0.301 N 
ATOM     30  HN  UNK N   1      30.613  17.272  10.360  1.00  0.00     0.186 HD
HETATM   31  C   UNK N   1      30.717  16.472   7.300  0.00  0.00     0.122 A 
BRANCH  29  32
HETATM   32  C   UNK N   1      32.478  15.812   8.955  0.00  0.00     0.174 C 
BRANCH  32  33
HETATM   33  C   UNK N   1      33.692  16.695   8.669  0.00  0.00     0.185 C 
BRANCH  33  34
HETATM   34  O   UNK N   1      34.196  17.209   9.862  0.00  0.00    -0.399 OA
HETATM   35  H   UNK N   1      34.253  17.880  10.561  0.00  0.00     0.209 HD
ENDBRANCH  33  34
ENDBRANCH  32  33
ENDBRANCH  29  32
ENDBRANCH  25  26
ENDBRANCH   7  24
TORSDOF 8
ENDMDL
MODEL 5
REMARK VINA RESULT:      -7.0     11.566     15.876
REMARK  8 active torsions:
REMARK  status: ('A' for Active; 'I' for Inactive)
REMARK    1  A    between atoms: C_2  and  C_3 
REMARK    2  A    between atoms: C_2  and  O_12 
REMARK    3  A    between atoms: O_12  and  C_13 
REMARK    4  A    between atoms: C_19  and  C_23 
REMARK    5  A    between atoms: C_24  and  C_25 
REMARK    6  A    between atoms: N_29  and  C_31 
REMARK    7  A    between atoms: C_31  and  C_32 
REMARK    8  A    between atoms: C_32  and  O_33 
ROOT
HETATM    1  C   UNK N   1      25.821  24.345  -7.920  0.00  0.00     0.070 A 
HETATM    2  C   UNK N   1      25.410  24.694  -9.239  0.00  0.00     0.039 A 
HETATM    3  C   UNK N   1      25.865  23.943 -10.353  0.00  0.00     0.034 A 
HETATM    4  C   UNK N   1      26.721  22.865 -10.103  0.00  0.00     0.060 A 
HETATM    5  C   UNK N   1      27.099  22.548  -8.845  0.00  0.00     0.023 A 
HETATM    6  C   UNK N   1      26.673  23.259  -7.735  0.00  0.00     0.053 A 
HETATM    7  C   UNK N   1      27.883  21.423  -8.959  0.00  0.00     0.060 A 
HETATM    8  N   UNK N   1      27.960  21.089 -10.267  0.00  0.00    -0.299 N 
ATOM      9  HN  UNK N   1      28.469  20.294 -10.651  1.00  0.00     0.187 HD
HETATM   10  N   UNK N   1      27.252  21.982 -10.971  0.00  0.00    -0.299 N 
HETATM   11  H   UNK N   1      27.141  21.992 -11.948  0.00  0.00     0.187 HD
ENDROOT
BRANCH   1  12
HETATM   12  O   UNK N   1      25.428  25.021  -6.815  0.00  0.00    -0.342 OA
BRANCH  12  13
HETATM   13  C   UNK N   1      25.832  26.282  -6.449  0.00  0.00     0.161 C 
HETATM   14  C   UNK N   1      24.738  26.976  -5.647  0.00  0.00     0.045 C 
BRANCH  13  15
HETATM   15  C   UNK N   1      27.133  26.284  -5.657  0.00  0.00     0.017 A 
HETATM   16  C   UNK N   1      27.420  25.374  -4.598  0.00  0.00     0.059 A 
HETATM   17  C   UNK N   1      28.647  25.461  -3.936  0.00  0.00     0.112 A 
HETATM   18 Cl   UNK N   1      26.304  24.137  -4.027  0.00  0.00    -0.082 Cl
HETATM   19  N   UNK N   1      29.564  26.396  -4.293  0.00  0.00    -0.372 N 
HETATM   20  C   UNK N   1      29.322  27.275  -5.297  0.00  0.00     0.112 A 
ATOM     21  HN  UNK N   1      30.453  26.437  -3.796  1.00  0.00     0.164 HD
HETATM   22  C   UNK N   1      28.114  27.241  -5.994  0.00  0.00     0.059 A 
HETATM   23 Cl   UNK N   1      27.872  28.399  -7.295  0.00  0.00    -0.082 Cl
ENDBRANCH  13  15
ENDBRANCH  12  13
ENDBRANCH   1  12
BRANCH   7  24
HETATM   24  C   UNK N   1      28.397  20.635  -7.817  0.00  0.00     0.033 C 
HETATM   25  C   UNK N   1      29.658  20.884  -7.466  0.00  0.00     0.016 C 
BRANCH  25  26
HETATM   26  C   UNK N   1      30.246  20.719  -6.152  0.00  0.00    -0.002 A 
HETATM   27  C   UNK N   1      30.011  21.425  -4.990  0.00  0.00     0.120 A 
HETATM   28  N   UNK N   1      31.007  21.127  -4.129  0.00  0.00    -0.309 N 
HETATM   29  N   UNK N   1      31.848  20.297  -4.726  0.00  0.00    -0.301 N 
ATOM     30  HN  UNK N   1      31.098  21.483  -3.177  1.00  0.00     0.186 HD
HETATM   31  C   UNK N   1      31.418  20.029  -5.970  0.00  0.00     0.122 A 
BRANCH  29  32
HETATM   32  C   UNK N   1      33.111  19.865  -4.131  0.00  0.00     0.174 C 
BRANCH  32  33
HETATM   33  C   UNK N   1      33.712  20.909  -3.191  0.00  0.00     0.185 C 
BRANCH  33  34
HETATM   34  O   UNK N   1      32.927  21.025  -2.045  0.00  0.00    -0.399 OA
HETATM   35  H   UNK N   1      32.539  21.521  -1.307  0.00  0.00     0.209 HD
ENDBRANCH  33  34
ENDBRANCH  32  33
ENDBRANCH  29  32
ENDBRANCH  25  26
ENDBRANCH   7  24
TORSDOF 8
ENDMDL
MODEL 6
REMARK VINA RESULT:      -7.0      1.848      2.562
REMARK  8 active torsions:
REMARK  status: ('A' for Active; 'I' for Inactive)
REMARK    1  A    between atoms: C_2  and  C_3 
REMARK    2  A    between atoms: C_2  and  O_12 
REMARK    3  A    between atoms: O_12  and  C_13 
REMARK    4  A    between atoms: C_19  and  C_23 
REMARK    5  A    between atoms: C_24  and  C_25 
REMARK    6  A    between atoms: N_29  and  C_31 
REMARK    7  A    between atoms: C_31  and  C_32 
REMARK    8  A    between atoms: C_32  and  O_33 
ROOT
HETATM    1  C   UNK N   1      31.139  16.985   6.842  0.00  0.00     0.070 A 
HETATM    2  C   UNK N   1      31.163  16.516   8.187  0.00  0.00     0.039 A 
HETATM    3  C   UNK N   1      30.175  16.942   9.112  0.00  0.00     0.034 A 
HETATM    4  C   UNK N   1      29.196  17.828   8.653  0.00  0.00     0.060 A 
HETATM    5  C   UNK N   1      29.187  18.261   7.372  0.00  0.00     0.023 A 
HETATM    6  C   UNK N   1      30.135  17.864   6.443  0.00  0.00     0.053 A 
HETATM    7  C   UNK N   1      28.075  19.062   7.253  0.00  0.00     0.060 A 
HETATM    8  N   UNK N   1      27.444  19.095   8.448  0.00  0.00    -0.299 N 
ATOM      9  HN  UNK N   1      26.585  19.604   8.656  1.00  0.00     0.187 HD
HETATM   10  N   UNK N   1      28.138  18.343   9.311  0.00  0.00    -0.299 N 
HETATM   11  H   UNK N   1      27.918  18.193  10.258  0.00  0.00     0.187 HD
ENDROOT
BRANCH   1  12
HETATM   12  O   UNK N   1      32.052  16.621   5.911  0.00  0.00    -0.342 OA
BRANCH  12  13
HETATM   13  C   UNK N   1      31.820  16.468   4.565  0.00  0.00     0.161 C 
HETATM   14  C   UNK N   1      33.118  16.634   3.783  0.00  0.00     0.045 C 
BRANCH  13  15
HETATM   15  C   UNK N   1      31.176  15.132   4.220  0.00  0.00     0.017 A 
HETATM   16  C   UNK N   1      30.032  14.994   3.380  0.00  0.00     0.059 A 
HETATM   17  C   UNK N   1      29.521  13.719   3.126  0.00  0.00     0.112 A 
HETATM   18 Cl   UNK N   1      29.177  16.346   2.644  0.00  0.00    -0.082 Cl
HETATM   19  N   UNK N   1      30.102  12.618   3.665  0.00  0.00    -0.372 N 
HETATM   20  C   UNK N   1      31.191  12.715   4.467  0.00  0.00     0.112 A 
ATOM     21  HN  UNK N   1      29.711  11.698   3.462  1.00  0.00     0.164 HD
HETATM   22  C   UNK N   1      31.747  13.960   4.762  0.00  0.00     0.059 A 
HETATM   23 Cl   UNK N   1      33.169  14.013   5.795  0.00  0.00    -0.082 Cl
ENDBRANCH  13  15
ENDBRANCH  12  13
ENDBRANCH   1  12
BRANCH   7  24
HETATM   24  C   UNK N   1      27.583  19.636   5.981  0.00  0.00     0.033 C 
HETATM   25  C   UNK N   1      26.863  18.813   5.218  0.00  0.00     0.016 C 
BRANCH  25  26
HETATM   26  C   UNK N   1      25.840  19.183   4.261  0.00  0.00    -0.002 A 
HETATM   27  C   UNK N   1      25.845  20.190   3.319  0.00  0.00     0.120 A 
HETATM   28  N   UNK N   1      24.573  20.348   2.891  0.00  0.00    -0.309 N 
HETATM   29  N   UNK N   1      23.798  19.503   3.552  0.00  0.00    -0.301 N 
ATOM     30  HN  UNK N   1      24.262  21.008   2.179  1.00  0.00     0.186 HD
HETATM   31  C   UNK N   1      24.538  18.777   4.406  0.00  0.00     0.122 A 
BRANCH  29  32
HETATM   32  C   UNK N   1      22.341  19.487   3.435  0.00  0.00     0.174 C 
BRANCH  32  33
HETATM   33  C   UNK N   1      21.818  20.486   2.404  0.00  0.00     0.185 C 
BRANCH  33  34
HETATM   34  O   UNK N   1      22.057  21.788   2.839  0.00  0.00    -0.399 OA
HETATM   35  H   UNK N   1      21.778  22.683   3.089  0.00  0.00     0.209 HD
ENDBRANCH  33  34
ENDBRANCH  32  33
ENDBRANCH  29  32
ENDBRANCH  25  26
ENDBRANCH   7  24
TORSDOF 8
ENDMDL
MODEL 7
REMARK VINA RESULT:      -7.0     11.731     14.932
REMARK  8 active torsions:
REMARK  status: ('A' for Active; 'I' for Inactive)
REMARK    1  A    between atoms: C_2  and  C_3 
REMARK    2  A    between atoms: C_2  and  O_12 
REMARK    3  A    between atoms: O_12  and  C_13 
REMARK    4  A    between atoms: C_19  and  C_23 
REMARK    5  A    between atoms: C_24  and  C_25 
REMARK    6  A    between atoms: N_29  and  C_31 
REMARK    7  A    between atoms: C_31  and  C_32 
REMARK    8  A    between atoms: C_32  and  O_33 
ROOT
HETATM    1  C   UNK N   1      28.919  23.690  -4.499  0.00  0.00     0.070 A 
HETATM    2  C   UNK N   1      29.321  23.763  -3.134  0.00  0.00     0.039 A 
HETATM    3  C   UNK N   1      30.192  22.784  -2.590  0.00  0.00     0.034 A 
HETATM    4  C   UNK N   1      30.630  21.763  -3.438  0.00  0.00     0.060 A 
HETATM    5  C   UNK N   1      30.241  21.711  -4.732  0.00  0.00     0.023 A 
HETATM    6  C   UNK N   1      29.392  22.650  -5.295  0.00  0.00     0.053 A 
HETATM    7  C   UNK N   1      30.891  20.628  -5.278  0.00  0.00     0.060 A 
HETATM    8  N   UNK N   1      31.650  20.058  -4.315  0.00  0.00    -0.299 N 
ATOM      9  HN  UNK N   1      32.248  19.240  -4.433  1.00  0.00     0.187 HD
HETATM   10  N   UNK N   1      31.482  20.750  -3.182  0.00  0.00    -0.299 N 
HETATM   11  H   UNK N   1      31.904  20.555  -2.315  0.00  0.00     0.187 HD
ENDROOT
BRANCH   1  12
HETATM   12  O   UNK N   1      28.089  24.588  -5.079  0.00  0.00    -0.342 OA
BRANCH  12  13
HETATM   13  C   UNK N   1      26.748  24.413  -5.320  0.00  0.00     0.161 C 
HETATM   14  C   UNK N   1      25.923  25.248  -4.348  0.00  0.00     0.045 C 
BRANCH  13  15
HETATM   15  C   UNK N   1      26.352  24.748  -6.752  0.00  0.00     0.017 A 
HETATM   16  C   UNK N   1      26.543  26.027  -7.352  0.00  0.00     0.059 A 
HETATM   17  C   UNK N   1      26.144  26.227  -8.676  0.00  0.00     0.112 A 
HETATM   18 Cl   UNK N   1      27.234  27.416  -6.520  0.00  0.00    -0.082 Cl
HETATM   19  N   UNK N   1      25.583  25.220  -9.392  0.00  0.00    -0.372 N 
HETATM   20  C   UNK N   1      25.388  23.992  -8.851  0.00  0.00     0.112 A 
ATOM     21  HN  UNK N   1      25.303  25.390 -10.358  1.00  0.00     0.164 HD
HETATM   22  C   UNK N   1      25.762  23.730  -7.533  0.00  0.00     0.059 A 
HETATM   23 Cl   UNK N   1      25.496  22.111  -6.899  0.00  0.00    -0.082 Cl
ENDBRANCH  13  15
ENDBRANCH  12  13
ENDBRANCH   1  12
BRANCH   7  24
HETATM   24  C   UNK N   1      30.879  20.276  -6.715  0.00  0.00     0.033 C 
HETATM   25  C   UNK N   1      29.732  19.782  -7.178  0.00  0.00     0.016 C 
BRANCH  25  26
HETATM   26  C   UNK N   1      29.235  19.856  -8.538  0.00  0.00    -0.002 A 
HETATM   27  C   UNK N   1      29.823  19.426  -9.709  0.00  0.00     0.120 A 
HETATM   28  N   UNK N   1      29.143  19.989 -10.731  0.00  0.00    -0.309 N 
HETATM   29  N   UNK N   1      28.191  20.762 -10.230  0.00  0.00    -0.301 N 
ATOM     30  HN  UNK N   1      29.331  19.845 -11.723  1.00  0.00     0.186 HD
HETATM   31  C   UNK N   1      28.221  20.711  -8.889  0.00  0.00     0.122 A 
BRANCH  29  32
HETATM   32  C   UNK N   1      27.342  21.626 -11.048  0.00  0.00     0.174 C 
BRANCH  32  33
HETATM   33  C   UNK N   1      26.072  20.927 -11.529  0.00  0.00     0.185 C 
BRANCH  33  34
HETATM   34  O   UNK N   1      25.145  20.858 -10.490  0.00  0.00    -0.399 OA
HETATM   35  H   UNK N   1      24.253  20.940 -10.119  0.00  0.00     0.209 HD
ENDBRANCH  33  34
ENDBRANCH  32  33
ENDBRANCH  29  32
ENDBRANCH  25  26
ENDBRANCH   7  24
TORSDOF 8
ENDMDL
MODEL 8
REMARK VINA RESULT:      -6.9     11.268     14.468
REMARK  8 active torsions:
REMARK  status: ('A' for Active; 'I' for Inactive)
REMARK    1  A    between atoms: C_2  and  C_3 
REMARK    2  A    between atoms: C_2  and  O_12 
REMARK    3  A    between atoms: O_12  and  C_13 
REMARK    4  A    between atoms: C_19  and  C_23 
REMARK    5  A    between atoms: C_24  and  C_25 
REMARK    6  A    between atoms: N_29  and  C_31 
REMARK    7  A    between atoms: C_31  and  C_32 
REMARK    8  A    between atoms: C_32  and  O_33 
ROOT
HETATM    1  C   UNK N   1      29.254  23.716  -4.021  0.00  0.00     0.070 A 
HETATM    2  C   UNK N   1      29.864  23.644  -2.735  0.00  0.00     0.039 A 
HETATM    3  C   UNK N   1      30.740  22.575  -2.416  0.00  0.00     0.034 A 
HETATM    4  C   UNK N   1      30.973  21.611  -3.403  0.00  0.00     0.060 A 
HETATM    5  C   UNK N   1      30.387  21.696  -4.618  0.00  0.00     0.023 A 
HETATM    6  C   UNK N   1      29.528  22.726  -4.963  0.00  0.00     0.053 A 
HETATM    7  C   UNK N   1      30.871  20.633  -5.345  0.00  0.00     0.060 A 
HETATM    8  N   UNK N   1      31.728  19.938  -4.563  0.00  0.00    -0.299 N 
ATOM      9  HN  UNK N   1      32.244  19.103  -4.839  1.00  0.00     0.187 HD
HETATM   10  N   UNK N   1      31.784  20.535  -3.366  0.00  0.00    -0.299 N 
HETATM   11  H   UNK N   1      32.319  20.240  -2.595  0.00  0.00     0.187 HD
ENDROOT
BRANCH   1  12
HETATM   12  O   UNK N   1      28.407  24.706  -4.388  0.00  0.00    -0.342 OA
BRANCH  12  13
HETATM   13  C   UNK N   1      28.757  25.995  -4.709  0.00  0.00     0.161 C 
HETATM   14  C   UNK N   1      28.992  26.122  -6.209  0.00  0.00     0.045 C 
BRANCH  13  15
HETATM   15  C   UNK N   1      27.726  27.021  -4.258  0.00  0.00     0.017 A 
HETATM   16  C   UNK N   1      26.332  26.922  -4.538  0.00  0.00     0.059 A 
HETATM   17  C   UNK N   1      25.470  27.920  -4.076  0.00  0.00     0.112 A 
HETATM   18 Cl   UNK N   1      25.599  25.619  -5.469  0.00  0.00    -0.082 Cl
HETATM   19  N   UNK N   1      25.945  28.974  -3.366  0.00  0.00    -0.372 N 
HETATM   20  C   UNK N   1      27.266  29.098  -3.083  0.00  0.00     0.112 A 
ATOM     21  HN  UNK N   1      25.295  29.689  -3.038  1.00  0.00     0.164 HD
HETATM   22  C   UNK N   1      28.177  28.136  -3.519  0.00  0.00     0.059 A 
HETATM   23 Cl   UNK N   1      29.873  28.348  -3.103  0.00  0.00    -0.082 Cl
ENDBRANCH  13  15
ENDBRANCH  12  13
ENDBRANCH   1  12
BRANCH   7  24
HETATM   24  C   UNK N   1      30.615  20.412  -6.785  0.00  0.00     0.033 C 
HETATM   25  C   UNK N   1      29.379  20.025  -7.098  0.00  0.00     0.016 C 
BRANCH  25  26
HETATM   26  C   UNK N   1      28.686  20.247  -8.352  0.00  0.00    -0.002 A 
HETATM   27  C   UNK N   1      29.166  20.171  -9.643  0.00  0.00     0.120 A 
HETATM   28  N   UNK N   1      28.256  20.764 -10.446  0.00  0.00    -0.309 N 
HETATM   29  N   UNK N   1      27.265  21.220  -9.696  0.00  0.00    -0.301 N 
ATOM     30  HN  UNK N   1      28.322  20.847 -11.460  1.00  0.00     0.186 HD
HETATM   31  C   UNK N   1      27.497  20.929  -8.406  0.00  0.00     0.122 A 
BRANCH  29  32
HETATM   32  C   UNK N   1      26.167  22.031 -10.220  0.00  0.00     0.174 C 
BRANCH  32  33
HETATM   33  C   UNK N   1      25.863  23.251  -9.351  0.00  0.00     0.185 C 
BRANCH  33  34
HETATM   34  O   UNK N   1      24.656  23.067  -8.680  0.00  0.00    -0.399 OA
HETATM   35  H   UNK N   1      23.747  23.315  -8.448  0.00  0.00     0.209 HD
ENDBRANCH  33  34
ENDBRANCH  32  33
ENDBRANCH  29  32
ENDBRANCH  25  26
ENDBRANCH   7  24
TORSDOF 8
ENDMDL
MODEL 9
REMARK VINA RESULT:      -6.9      4.071      6.418
REMARK  8 active torsions:
REMARK  status: ('A' for Active; 'I' for Inactive)
REMARK    1  A    between atoms: C_2  and  C_3 
REMARK    2  A    between atoms: C_2  and  O_12 
REMARK    3  A    between atoms: O_12  and  C_13 
REMARK    4  A    between atoms: C_19  and  C_23 
REMARK    5  A    between atoms: C_24  and  C_25 
REMARK    6  A    between atoms: N_29  and  C_31 
REMARK    7  A    between atoms: C_31  and  C_32 
REMARK    8  A    between atoms: C_32  and  O_33 
ROOT
HETATM    1  C   UNK N   1      27.451  18.440   4.458  0.00  0.00     0.070 A 
HETATM    2  C   UNK N   1      27.666  19.791   4.058  0.00  0.00     0.039 A 
HETATM    3  C   UNK N   1      26.580  20.590   3.617  0.00  0.00     0.034 A 
HETATM    4  C   UNK N   1      25.312  20.001   3.591  0.00  0.00     0.060 A 
HETATM    5  C   UNK N   1      25.126  18.719   3.975  0.00  0.00     0.023 A 
HETATM    6  C   UNK N   1      26.163  17.912   4.412  0.00  0.00     0.053 A 
HETATM    7  C   UNK N   1      23.773  18.488   3.877  0.00  0.00     0.060 A 
HETATM    8  N   UNK N   1      23.179  19.622   3.441  0.00  0.00    -0.299 N 
ATOM      9  HN  UNK N   1      22.179  19.749   3.281  1.00  0.00     0.187 HD
HETATM   10  N   UNK N   1      24.127  20.550   3.257  0.00  0.00    -0.299 N 
HETATM   11  H   UNK N   1      23.984  21.468   2.933  0.00  0.00     0.187 HD
ENDROOT
BRANCH   1  12
HETATM   12  O   UNK N   1      28.443  17.624   4.885  0.00  0.00    -0.342 OA
BRANCH  12  13
HETATM   13  C   UNK N   1      28.446  16.893   6.049  0.00  0.00     0.161 C 
HETATM   14  C   UNK N   1      28.383  15.403   5.736  0.00  0.00     0.045 C 
BRANCH  13  15
HETATM   15  C   UNK N   1      29.651  17.185   6.932  0.00  0.00     0.017 A 
HETATM   16  C   UNK N   1      31.003  17.104   6.486  0.00  0.00     0.059 A 
HETATM   17  C   UNK N   1      32.036  17.394   7.380  0.00  0.00     0.112 A 
HETATM   18 Cl   UNK N   1      31.481  16.624   4.860  0.00  0.00    -0.082 Cl
HETATM   19  N   UNK N   1      31.767  17.755   8.660  0.00  0.00    -0.372 N 
HETATM   20  C   UNK N   1      30.492  17.842   9.115  0.00  0.00     0.112 A 
ATOM     21  HN  UNK N   1      32.539  17.964   9.293  1.00  0.00     0.164 HD
HETATM   22  C   UNK N   1      29.417  17.561   8.273  0.00  0.00     0.059 A 
HETATM   23 Cl   UNK N   1      27.789  17.710   8.923  0.00  0.00    -0.082 Cl
ENDBRANCH  13  15
ENDBRANCH  12  13
ENDBRANCH   1  12
BRANCH   7  24
HETATM   24  C   UNK N   1      23.092  17.259   4.340  0.00  0.00     0.033 C 
HETATM   25  C   UNK N   1      22.705  17.260   5.615  0.00  0.00     0.016 C 
BRANCH  25  26
HETATM   26  C   UNK N   1      21.606  16.513   6.194  0.00  0.00    -0.002 A 
HETATM   27  C   UNK N   1      20.270  16.511   5.848  0.00  0.00     0.120 A 
HETATM   28  N   UNK N   1      19.594  15.920   6.857  0.00  0.00    -0.309 N 
HETATM   29  N   UNK N   1      20.456  15.591   7.807  0.00  0.00    -0.301 N 
ATOM     30  HN  UNK N   1      18.588  15.754   6.882  1.00  0.00     0.186 HD
HETATM   31  C   UNK N   1      21.698  15.946   7.439  0.00  0.00     0.122 A 
BRANCH  29  32
HETATM   32  C   UNK N   1      20.055  15.046   9.103  0.00  0.00     0.174 C 
BRANCH  32  33
HETATM   33  C   UNK N   1      21.022  13.983   9.623  0.00  0.00     0.185 C 
BRANCH  33  34
HETATM   34  O   UNK N   1      20.833  12.788   8.931  0.00  0.00    -0.399 OA
HETATM   35  H   UNK N   1      20.739  11.824   8.877  0.00  0.00     0.209 HD
ENDBRANCH  33  34
ENDBRANCH  32  33
ENDBRANCH  29  32
ENDBRANCH  25  26
ENDBRANCH   7  24
TORSDOF 8
ENDMDL
