MODEL 1
REMARK VINA RESULT:      -4.0      0.000      0.000
REMARK  0 active torsions:
REMARK  status: ('A' for Active; 'I' for Inactive)
REMARK       I    between atoms: C_1  and  N_4 
REMARK       I    between atoms: C_1  and  N_5 
REMARK       I    between atoms: N_5  and  C_6 
REMARK       I    between atoms: C_6  and  N_9 
ROOT
HETATM    1  C   UNK N   1      22.832  12.195  11.269  0.00  0.00     0.683 C 
HETATM    2  N   UNK N   1      21.629  11.769  11.364  0.00  0.00    -0.234 N 
ATOM      3  HN  UNK N   1      21.260  11.481  12.270  1.00  0.00     0.174 HD
HETATM    4  N   UNK N   1      23.637  12.262  12.429  0.00  0.00    -0.234 N 
HETATM    5  N   UNK N   1      23.334  12.594   9.998  0.00  0.00    -0.024 N 
HETATM    6  C   UNK N   1      24.649  13.084   9.757  0.00  0.00     0.683 C 
HETATM    7  N   UNK N   1      24.989  13.413   8.567  0.00  0.00    -0.234 N 
ATOM      8  HN  UNK N   1      24.320  13.323   7.803  1.00  0.00     0.174 HD
HETATM    9  N   UNK N   1      25.587  13.216  10.807  0.00  0.00    -0.234 N 
HETATM   10  H   UNK N   1      21.060  11.719  10.563  0.00  0.00     0.174 HD
HETATM   11  H   UNK N   1      23.270  11.981  13.299  0.00  0.00     0.174 HD
HETATM   12  H   UNK N   1      24.563  12.588  12.368  0.00  0.00     0.174 HD
HETATM   13  H   UNK N   1      22.725  12.525   9.227  0.00  0.00     0.203 HD
HETATM   14  H   UNK N   1      25.896  13.753   8.391  0.00  0.00     0.174 HD
HETATM   15  H   UNK N   1      25.336  12.966  11.726  0.00  0.00     0.174 HD
HETATM   16  H   UNK N   1      26.491  13.557  10.619  0.00  0.00     0.174 HD
ENDROOT
TORSDOF 0
ENDMDL
MODEL 2
REMARK VINA RESULT:      -4.0      0.031      3.187
REMARK  0 active torsions:
REMARK  status: ('A' for Active; 'I' for Inactive)
REMARK       I    between atoms: C_1  and  N_4 
REMARK       I    between atoms: C_1  and  N_5 
REMARK       I    between atoms: N_5  and  C_6 
REMARK       I    between atoms: C_6  and  N_9 
ROOT
HETATM    1  C   UNK N   1      24.630  13.067   9.769  0.00  0.00     0.683 C 
HETATM    2  N   UNK N   1      24.974  13.394   8.580  0.00  0.00    -0.234 N 
ATOM      3  HN  UNK N   1      25.917  13.736   8.397  1.00  0.00     0.174 HD
HETATM    4  N   UNK N   1      25.569  13.187  10.819  0.00  0.00    -0.234 N 
HETATM    5  N   UNK N   1      23.310  12.591  10.009  0.00  0.00    -0.024 N 
HETATM    6  C   UNK N   1      22.804  12.197  11.280  0.00  0.00     0.683 C 
HETATM    7  N   UNK N   1      21.596  11.783  11.375  0.00  0.00    -0.234 N 
ATOM      8  HN  UNK N   1      21.006  11.738  10.545  1.00  0.00     0.174 HD
HETATM    9  N   UNK N   1      23.610  12.253  12.441  0.00  0.00    -0.234 N 
HETATM   10  H   UNK N   1      24.327  13.314   7.841  0.00  0.00     0.174 HD
HETATM   11  H   UNK N   1      26.477  13.519  10.631  0.00  0.00     0.174 HD
HETATM   12  H   UNK N   1      25.316  12.939  11.737  0.00  0.00     0.174 HD
HETATM   13  H   UNK N   1      22.702  12.530   9.237  0.00  0.00     0.203 HD
HETATM   14  H   UNK N   1      21.237  11.508  12.250  0.00  0.00     0.174 HD
HETATM   15  H   UNK N   1      24.540  12.569  12.379  0.00  0.00     0.174 HD
HETATM   16  H   UNK N   1      23.241  11.976  13.310  0.00  0.00     0.174 HD
ENDROOT
TORSDOF 0
ENDMDL
MODEL 3
REMARK VINA RESULT:      -4.0     22.908     23.728
REMARK  0 active torsions:
REMARK  status: ('A' for Active; 'I' for Inactive)
REMARK       I    between atoms: C_1  and  N_4 
REMARK       I    between atoms: C_1  and  N_5 
REMARK       I    between atoms: N_5  and  C_6 
REMARK       I    between atoms: C_6  and  N_9 
ROOT
HETATM    1  C   UNK N   1      43.123  23.070   2.980  0.00  0.00     0.683 C 
HETATM    2  N   UNK N   1      42.030  23.339   2.369  0.00  0.00    -0.234 N 
ATOM      3  HN  UNK N   1      41.572  24.238   2.516  1.00  0.00     0.174 HD
HETATM    4  N   UNK N   1      43.682  24.030   3.853  0.00  0.00    -0.234 N 
HETATM    5  N   UNK N   1      43.751  21.811   2.765  0.00  0.00    -0.024 N 
HETATM    6  C   UNK N   1      44.965  21.390   3.380  0.00  0.00     0.683 C 
HETATM    7  N   UNK N   1      45.437  20.230   3.110  0.00  0.00    -0.234 N 
ATOM      8  HN  UNK N   1      44.944  19.618   2.460  1.00  0.00     0.174 HD
HETATM    9  N   UNK N   1      45.659  22.227   4.283  0.00  0.00    -0.234 N 
HETATM   10  H   UNK N   1      41.632  22.677   1.759  0.00  0.00     0.174 HD
HETATM   11  H   UNK N   1      43.232  24.896   3.988  0.00  0.00     0.174 HD
HETATM   12  H   UNK N   1      44.522  23.834   4.327  0.00  0.00     0.174 HD
HETATM   13  H   UNK N   1      43.313  21.184   2.145  0.00  0.00     0.203 HD
HETATM   14  H   UNK N   1      46.275  19.930   3.530  0.00  0.00     0.174 HD
HETATM   15  H   UNK N   1      45.305  23.120   4.498  0.00  0.00     0.174 HD
HETATM   16  H   UNK N   1      46.496  21.917   4.697  0.00  0.00     0.174 HD
ENDROOT
TORSDOF 0
ENDMDL
MODEL 4
REMARK VINA RESULT:      -3.9     10.210     11.683
REMARK  0 active torsions:
REMARK  status: ('A' for Active; 'I' for Inactive)
REMARK       I    between atoms: C_1  and  N_4 
REMARK       I    between atoms: C_1  and  N_5 
REMARK       I    between atoms: N_5  and  C_6 
REMARK       I    between atoms: C_6  and  N_9 
ROOT
HETATM    1  C   UNK N   1      20.579  20.271   2.116  0.00  0.00     0.683 C 
HETATM    2  N   UNK N   1      21.060  21.364   2.578  0.00  0.00    -0.234 N 
ATOM      3  HN  UNK N   1      21.355  22.102   1.938  1.00  0.00     0.174 HD
HETATM    4  N   UNK N   1      20.463  20.102   0.717  0.00  0.00    -0.234 N 
HETATM    5  N   UNK N   1      20.171  19.250   3.020  0.00  0.00    -0.024 N 
HETATM    6  C   UNK N   1      19.623  17.993   2.637  0.00  0.00     0.683 C 
HETATM    7  N   UNK N   1      19.291  17.150   3.543  0.00  0.00    -0.234 N 
ATOM      8  HN  UNK N   1      19.421  17.382   4.527  1.00  0.00     0.174 HD
HETATM    9  N   UNK N   1      19.437  17.657   1.277  0.00  0.00    -0.234 N 
HETATM   10  H   UNK N   1      21.145  21.492   3.550  0.00  0.00     0.174 HD
HETATM   11  H   UNK N   1      20.751  20.821   0.109  0.00  0.00     0.174 HD
HETATM   12  H   UNK N   1      20.095  19.266   0.352  0.00  0.00     0.174 HD
HETATM   13  H   UNK N   1      20.277  19.427   3.983  0.00  0.00     0.203 HD
HETATM   14  H   UNK N   1      18.911  16.278   3.287  0.00  0.00     0.174 HD
HETATM   15  H   UNK N   1      19.688  18.298   0.572  0.00  0.00     0.174 HD
HETATM   16  H   UNK N   1      19.056  16.783   1.033  0.00  0.00     0.174 HD
ENDROOT
TORSDOF 0
ENDMDL
MODEL 5
REMARK VINA RESULT:      -3.9     10.222     11.382
REMARK  0 active torsions:
REMARK  status: ('A' for Active; 'I' for Inactive)
REMARK       I    between atoms: C_1  and  N_4 
REMARK       I    between atoms: C_1  and  N_5 
REMARK       I    between atoms: N_5  and  C_6 
REMARK       I    between atoms: C_6  and  N_9 
ROOT
HETATM    1  C   UNK N   1      19.621  17.998   2.622  0.00  0.00     0.683 C 
HETATM    2  N   UNK N   1      19.292  17.152   3.524  0.00  0.00    -0.234 N 
ATOM      3  HN  UNK N   1      18.895  16.251   3.258  1.00  0.00     0.174 HD
HETATM    4  N   UNK N   1      19.428  17.669   1.261  0.00  0.00    -0.234 N 
HETATM    5  N   UNK N   1      20.174  19.251   3.008  0.00  0.00    -0.024 N 
HETATM    6  C   UNK N   1      20.580  20.276   2.107  0.00  0.00     0.683 C 
HETATM    7  N   UNK N   1      21.066  21.366   2.572  0.00  0.00    -0.234 N 
ATOM      8  HN  UNK N   1      21.160  21.494   3.579  1.00  0.00     0.174 HD
HETATM    9  N   UNK N   1      20.457  20.114   0.708  0.00  0.00    -0.234 N 
HETATM   10  H   UNK N   1      19.422  17.370   4.475  0.00  0.00     0.174 HD
HETATM   11  H   UNK N   1      19.043  16.796   1.015  0.00  0.00     0.174 HD
HETATM   12  H   UNK N   1      19.677  18.312   0.559  0.00  0.00     0.174 HD
HETATM   13  H   UNK N   1      20.285  19.422   3.972  0.00  0.00     0.203 HD
HETATM   14  H   UNK N   1      21.349  22.080   1.956  0.00  0.00     0.174 HD
HETATM   15  H   UNK N   1      20.084  19.280   0.339  0.00  0.00     0.174 HD
HETATM   16  H   UNK N   1      20.743  20.835   0.102  0.00  0.00     0.174 HD
ENDROOT
TORSDOF 0
ENDMDL
MODEL 6
REMARK VINA RESULT:      -3.8     10.938     12.169
REMARK  0 active torsions:
REMARK  status: ('A' for Active; 'I' for Inactive)
REMARK       I    between atoms: C_1  and  N_4 
REMARK       I    between atoms: C_1  and  N_5 
REMARK       I    between atoms: N_5  and  C_6 
REMARK       I    between atoms: C_6  and  N_9 
ROOT
HETATM    1  C   UNK N   1      35.995  14.125  12.560  0.00  0.00     0.683 C 
HETATM    2  N   UNK N   1      36.981  13.704  13.259  0.00  0.00    -0.234 N 
ATOM      3  HN  UNK N   1      36.940  12.783  13.695  1.00  0.00     0.174 HD
HETATM    4  N   UNK N   1      34.857  13.302  12.401  0.00  0.00    -0.234 N 
HETATM    5  N   UNK N   1      36.066  15.413  11.957  0.00  0.00    -0.024 N 
HETATM    6  C   UNK N   1      35.042  15.997  11.158  0.00  0.00     0.683 C 
HETATM    7  N   UNK N   1      35.218  17.167  10.667  0.00  0.00    -0.234 N 
ATOM      8  HN  UNK N   1      36.086  17.670  10.849  1.00  0.00     0.174 HD
HETATM    9  N   UNK N   1      33.834  15.311  10.896  0.00  0.00    -0.234 N 
HETATM   10  H   UNK N   1      37.778  14.269  13.376  0.00  0.00     0.174 HD
HETATM   11  H   UNK N   1      34.828  12.415  12.826  0.00  0.00     0.174 HD
HETATM   12  H   UNK N   1      34.093  13.616  11.865  0.00  0.00     0.174 HD
HETATM   13  H   UNK N   1      36.885  15.939  12.104  0.00  0.00     0.203 HD
HETATM   14  H   UNK N   1      34.516  17.578  10.113  0.00  0.00     0.174 HD
HETATM   15  H   UNK N   1      33.688  14.411  11.269  0.00  0.00     0.174 HD
HETATM   16  H   UNK N   1      33.139  15.732  10.342  0.00  0.00     0.174 HD
ENDROOT
TORSDOF 0
ENDMDL
MODEL 7
REMARK VINA RESULT:      -3.8     10.949     12.302
REMARK  0 active torsions:
REMARK  status: ('A' for Active; 'I' for Inactive)
REMARK       I    between atoms: C_1  and  N_4 
REMARK       I    between atoms: C_1  and  N_5 
REMARK       I    between atoms: N_5  and  C_6 
REMARK       I    between atoms: C_6  and  N_9 
ROOT
HETATM    1  C   UNK N   1      35.047  16.044  11.099  0.00  0.00     0.683 C 
HETATM    2  N   UNK N   1      35.225  17.226  10.641  0.00  0.00    -0.234 N 
ATOM      3  HN  UNK N   1      34.491  17.677  10.095  1.00  0.00     0.174 HD
HETATM    4  N   UNK N   1      33.828  15.377  10.839  0.00  0.00    -0.234 N 
HETATM    5  N   UNK N   1      36.080  15.426  11.859  0.00  0.00    -0.024 N 
HETATM    6  C   UNK N   1      36.008  14.120  12.422  0.00  0.00     0.683 C 
HETATM    7  N   UNK N   1      37.004  13.668  13.090  0.00  0.00    -0.234 N 
ATOM      8  HN  UNK N   1      37.837  14.242  13.213  1.00  0.00     0.174 HD
HETATM    9  N   UNK N   1      34.859  13.312  12.260  0.00  0.00    -0.234 N 
HETATM   10  H   UNK N   1      36.070  17.699  10.816  0.00  0.00     0.174 HD
HETATM   11  H   UNK N   1      33.126  15.822  10.311  0.00  0.00     0.174 HD
HETATM   12  H   UNK N   1      33.680  14.468  11.186  0.00  0.00     0.174 HD
HETATM   13  H   UNK N   1      36.906  15.941  12.006  0.00  0.00     0.203 HD
HETATM   14  H   UNK N   1      36.963  12.766  13.483  0.00  0.00     0.174 HD
HETATM   15  H   UNK N   1      34.088  13.650  11.748  0.00  0.00     0.174 HD
HETATM   16  H   UNK N   1      34.830  12.412  12.657  0.00  0.00     0.174 HD
ENDROOT
TORSDOF 0
ENDMDL
MODEL 8
REMARK VINA RESULT:      -3.7      1.688      2.981
REMARK  0 active torsions:
REMARK  status: ('A' for Active; 'I' for Inactive)
REMARK       I    between atoms: C_1  and  N_4 
REMARK       I    between atoms: C_1  and  N_5 
REMARK       I    between atoms: N_5  and  C_6 
REMARK       I    between atoms: C_6  and  N_9 
ROOT
HETATM    1  C   UNK N   1      23.554  12.317  11.160  0.00  0.00     0.683 C 
HETATM    2  N   UNK N   1      24.822  12.191  11.289  0.00  0.00    -0.234 N 
ATOM      3  HN  UNK N   1      25.203  11.490  11.923  1.00  0.00     0.174 HD
HETATM    4  N   UNK N   1      22.696  11.476  11.904  0.00  0.00    -0.234 N 
HETATM    5  N   UNK N   1      23.036  13.300  10.270  0.00  0.00    -0.024 N 
HETATM    6  C   UNK N   1      21.652  13.540  10.036  0.00  0.00     0.683 C 
HETATM    7  N   UNK N   1      21.304  14.455   9.210  0.00  0.00    -0.234 N 
ATOM      8  HN  UNK N   1      22.015  15.003   8.727  1.00  0.00     0.174 HD
HETATM    9  N   UNK N   1      20.655  12.789  10.698  0.00  0.00    -0.234 N 
HETATM   10  H   UNK N   1      25.428  12.772  10.775  0.00  0.00     0.174 HD
HETATM   11  H   UNK N   1      23.075  10.802  12.514  0.00  0.00     0.174 HD
HETATM   12  H   UNK N   1      21.720  11.563  11.813  0.00  0.00     0.174 HD
HETATM   13  H   UNK N   1      23.685  13.856   9.780  0.00  0.00     0.203 HD
HETATM   14  H   UNK N   1      20.349  14.629   9.042  0.00  0.00     0.174 HD
HETATM   15  H   UNK N   1      20.911  12.083  11.336  0.00  0.00     0.174 HD
HETATM   16  H   UNK N   1      19.703  12.971  10.523  0.00  0.00     0.174 HD
ENDROOT
TORSDOF 0
ENDMDL
MODEL 9
REMARK VINA RESULT:      -3.6      9.181     10.645
REMARK  0 active torsions:
REMARK  status: ('A' for Active; 'I' for Inactive)
REMARK       I    between atoms: C_1  and  N_4 
REMARK       I    between atoms: C_1  and  N_5 
REMARK       I    between atoms: N_5  and  C_6 
REMARK       I    between atoms: C_6  and  N_9 
ROOT
HETATM    1  C   UNK N   1      33.097  14.983   9.634  0.00  0.00     0.683 C 
HETATM    2  N   UNK N   1      32.288  14.127   9.134  0.00  0.00    -0.234 N 
ATOM      3  HN  UNK N   1      32.015  13.306   9.675  1.00  0.00     0.174 HD
HETATM    4  N   UNK N   1      33.605  14.778  10.937  0.00  0.00    -0.234 N 
HETATM    5  N   UNK N   1      33.469  16.124   8.866  0.00  0.00    -0.024 N 
HETATM    6  C   UNK N   1      34.357  17.147   9.304  0.00  0.00     0.683 C 
HETATM    7  N   UNK N   1      34.618  18.128   8.523  0.00  0.00    -0.234 N 
ATOM      8  HN  UNK N   1      34.191  18.172   7.599  1.00  0.00     0.174 HD
HETATM    9  N   UNK N   1      34.957  17.100  10.583  0.00  0.00    -0.234 N 
HETATM   10  H   UNK N   1      31.928  14.260   8.227  0.00  0.00     0.174 HD
HETATM   11  H   UNK N   1      33.335  13.983  11.451  0.00  0.00     0.174 HD
HETATM   12  H   UNK N   1      34.228  15.431  11.330  0.00  0.00     0.174 HD
HETATM   13  H   UNK N   1      33.082  16.211   7.965  0.00  0.00     0.203 HD
HETATM   14  H   UNK N   1      35.231  18.841   8.818  0.00  0.00     0.174 HD
HETATM   15  H   UNK N   1      34.764  16.350  11.191  0.00  0.00     0.174 HD
HETATM   16  H   UNK N   1      35.569  17.818  10.866  0.00  0.00     0.174 HD
ENDROOT
TORSDOF 0
ENDMDL
