MODEL 1
REMARK VINA RESULT:      -6.0      0.000      0.000
REMARK  9 active torsions:
REMARK  status: ('A' for Active; 'I' for Inactive)
REMARK    1  A    between atoms: N_18  and  C_5 
REMARK    2  A    between atoms: N_18  and  C_6 
REMARK    3  A    between atoms: C_10  and  C_9 
REMARK    4  A    between atoms: N_16  and  C_9 
REMARK    5  A    between atoms: N_18  and  C_10 
REMARK    6  A    between atoms: S_23  and  C_12 
REMARK    7  A    between atoms: C_15  and  C_13 
REMARK    8  A    between atoms: O_22  and  C_14 
REMARK    9  A    between atoms: O_19  and  C_15 
ROOT
HETATM    1  C   UNK N   1      30.798  16.969   6.794  0.00  0.00     0.026 A 
HETATM    2  C   UNK N   1      31.983  16.604   6.155  0.00  0.00     0.039 A 
HETATM    3  C   UNK N   1      32.075  18.030   8.540  0.00  0.00     0.042 A 
HETATM    4  C   UNK N   1      30.846  17.689   7.986  0.00  0.00     0.059 A 
HETATM    5  C   UNK N   1      33.280  17.646   7.942  0.00  0.00     0.049 A 
HETATM    6  C   UNK N   1      33.237  16.930   6.713  0.00  0.00     0.082 A 
ENDROOT
BRANCH   5   7
HETATM    7  C   UNK N   1      34.525  18.060   8.660  0.00  0.00     0.149 C 
HETATM    8  N   UNK N   1      35.095  17.381   9.596  0.00  0.00    -0.369 N 
ATOM      9  HN  UNK N   1      35.961  17.764   9.976  1.00  0.00     0.161 HD
BRANCH   8  10
HETATM   10  C   UNK N   1      34.638  16.136  10.162  0.00  0.00     0.152 C 
BRANCH  10  11
HETATM   11  C   UNK N   1      35.356  15.838  11.492  0.00  0.00     0.292 C 
BRANCH  11  12
HETATM   12  N   UNK N   1      35.334  14.429  11.922  0.00  0.00     0.089 N 
BRANCH  12  13
HETATM   13  C   UNK N   1      35.805  13.543  10.858  0.00  0.00     0.268 C 
HETATM   14  C   UNK N   1      37.319  13.507  10.853  0.00  0.00     0.037 C 
ENDBRANCH  12  13
BRANCH  12  15
HETATM   15  C   UNK N   1      36.164  14.278  13.116  0.00  0.00     0.268 C 
HETATM   16  C   UNK N   1      35.489  13.397  14.154  0.00  0.00     0.037 C 
ENDBRANCH  12  15
ENDBRANCH  11  12
ENDBRANCH  10  11
ENDBRANCH   8  10
BRANCH   7  17
HETATM   17  O   UNK N   1      35.034  19.277   8.374  0.00  0.00    -0.346 OA
HETATM   18  H   UNK N   1      34.725  20.124   8.623  0.00  0.00     0.219 HD
ENDBRANCH   7  17
ENDBRANCH   5   7
BRANCH   6  19
HETATM   19  O   UNK N   1      34.377  16.611   6.054  0.00  0.00    -0.355 OA
HETATM   20  C   UNK N   1      34.513  15.494   5.260  0.00  0.00     0.210 C 
ENDBRANCH   6  19
BRANCH   4  21
HETATM   21  S   UNK N   1      29.350  18.116   8.865  0.00  0.00     0.171 S 
HETATM   22  C   UNK N   1      28.015  16.980   9.329  0.00  0.00     0.167 C 
HETATM   23  O   UNK N   1      28.703  19.255   8.062  0.00  0.00    -0.223 OA
HETATM   24  O   UNK N   1      29.744  18.918  10.115  0.00  0.00    -0.223 OA
ENDBRANCH   4  21
TORSDOF 9
ENDMDL
MODEL 2
REMARK VINA RESULT:      -5.7     15.455     18.130
REMARK  9 active torsions:
REMARK  status: ('A' for Active; 'I' for Inactive)
REMARK    1  A    between atoms: N_18  and  C_5 
REMARK    2  A    between atoms: N_18  and  C_6 
REMARK    3  A    between atoms: C_10  and  C_9 
REMARK    4  A    between atoms: N_16  and  C_9 
REMARK    5  A    between atoms: N_18  and  C_10 
REMARK    6  A    between atoms: S_23  and  C_12 
REMARK    7  A    between atoms: C_15  and  C_13 
REMARK    8  A    between atoms: O_22  and  C_14 
REMARK    9  A    between atoms: O_19  and  C_15 
ROOT
HETATM    1  C   UNK N   1      25.669  25.957  -7.535  0.00  0.00     0.026 A 
HETATM    2  C   UNK N   1      25.980  26.879  -6.535  0.00  0.00     0.039 A 
HETATM    3  C   UNK N   1      26.353  24.161  -6.082  0.00  0.00     0.042 A 
HETATM    4  C   UNK N   1      25.850  24.594  -7.303  0.00  0.00     0.059 A 
HETATM    5  C   UNK N   1      26.709  25.064  -5.074  0.00  0.00     0.049 A 
HETATM    6  C   UNK N   1      26.505  26.455  -5.297  0.00  0.00     0.082 A 
ENDROOT
BRANCH   5   7
HETATM    7  C   UNK N   1      27.259  24.459  -3.821  0.00  0.00     0.149 C 
HETATM    8  N   UNK N   1      28.514  24.350  -3.547  0.00  0.00    -0.369 N 
ATOM      9  HN  UNK N   1      28.750  23.948  -2.639  1.00  0.00     0.161 HD
BRANCH   8  10
HETATM   10  C   UNK N   1      29.621  24.736  -4.387  0.00  0.00     0.152 C 
BRANCH  10  11
HETATM   11  C   UNK N   1      30.458  23.509  -4.797  0.00  0.00     0.292 C 
BRANCH  11  12
HETATM   12  N   UNK N   1      29.686  22.308  -5.159  0.00  0.00     0.089 N 
BRANCH  12  13
HETATM   13  C   UNK N   1      29.461  22.238  -6.602  0.00  0.00     0.268 C 
HETATM   14  C   UNK N   1      29.435  20.790  -7.047  0.00  0.00     0.037 C 
ENDBRANCH  12  13
BRANCH  12  15
HETATM   15  C   UNK N   1      30.403  21.120  -4.696  0.00  0.00     0.268 C 
HETATM   16  C   UNK N   1      31.049  21.354  -3.341  0.00  0.00     0.037 C 
ENDBRANCH  12  15
ENDBRANCH  11  12
ENDBRANCH  10  11
ENDBRANCH   8  10
BRANCH   7  17
HETATM   17  O   UNK N   1      26.382  23.902  -2.961  0.00  0.00    -0.346 OA
HETATM   18  H   UNK N   1      26.465  23.752  -2.040  0.00  0.00     0.219 HD
ENDBRANCH   7  17
ENDBRANCH   5   7
BRANCH   6  19
HETATM   19  O   UNK N   1      26.754  27.359  -4.320  0.00  0.00    -0.355 OA
HETATM   20  C   UNK N   1      25.769  28.036  -3.635  0.00  0.00     0.210 C 
ENDBRANCH   6  19
BRANCH   4  21
HETATM   21  S   UNK N   1      25.524  23.391  -8.583  0.00  0.00     0.171 S 
HETATM   22  C   UNK N   1      26.713  22.209  -9.273  0.00  0.00     0.167 C 
HETATM   23  O   UNK N   1      24.950  24.183  -9.766  0.00  0.00    -0.223 OA
HETATM   24  O   UNK N   1      24.256  22.614  -8.195  0.00  0.00    -0.223 OA
ENDBRANCH   4  21
TORSDOF 9
ENDMDL
MODEL 3
REMARK VINA RESULT:      -5.7      2.956      5.019
REMARK  9 active torsions:
REMARK  status: ('A' for Active; 'I' for Inactive)
REMARK    1  A    between atoms: N_18  and  C_5 
REMARK    2  A    between atoms: N_18  and  C_6 
REMARK    3  A    between atoms: C_10  and  C_9 
REMARK    4  A    between atoms: N_16  and  C_9 
REMARK    5  A    between atoms: N_18  and  C_10 
REMARK    6  A    between atoms: S_23  and  C_12 
REMARK    7  A    between atoms: C_15  and  C_13 
REMARK    8  A    between atoms: O_22  and  C_14 
REMARK    9  A    between atoms: O_19  and  C_15 
ROOT
HETATM    1  C   UNK N   1      33.757  14.576   8.286  0.00  0.00     0.026 A 
HETATM    2  C   UNK N   1      34.044  13.269   8.680  0.00  0.00     0.039 A 
HETATM    3  C   UNK N   1      35.587  15.376   9.633  0.00  0.00     0.042 A 
HETATM    4  C   UNK N   1      34.536  15.631   8.759  0.00  0.00     0.059 A 
HETATM    5  C   UNK N   1      35.875  14.081  10.076  0.00  0.00     0.049 A 
HETATM    6  C   UNK N   1      35.097  12.998   9.578  0.00  0.00     0.082 A 
ENDROOT
BRANCH   5   7
HETATM    7  C   UNK N   1      37.018  13.959  11.034  0.00  0.00     0.149 C 
HETATM    8  N   UNK N   1      36.901  13.924  12.317  0.00  0.00    -0.369 N 
ATOM      9  HN  UNK N   1      37.762  13.802  12.851  1.00  0.00     0.161 HD
BRANCH   8  10
HETATM   10  C   UNK N   1      35.682  14.038  13.079  0.00  0.00     0.152 C 
BRANCH  10  11
HETATM   11  C   UNK N   1      35.195  12.656  13.554  0.00  0.00     0.292 C 
BRANCH  11  12
HETATM   12  N   UNK N   1      35.697  12.225  14.870  0.00  0.00     0.089 N 
BRANCH  12  13
HETATM   13  C   UNK N   1      35.899  13.367  15.760  0.00  0.00     0.268 C 
HETATM   14  C   UNK N   1      35.043  13.209  16.999  0.00  0.00     0.037 C 
ENDBRANCH  12  13
BRANCH  12  15
HETATM   15  C   UNK N   1      34.750  11.280  15.459  0.00  0.00     0.268 C 
HETATM   16  C   UNK N   1      33.732  10.803  14.436  0.00  0.00     0.037 C 
ENDBRANCH  12  15
ENDBRANCH  11  12
ENDBRANCH  10  11
ENDBRANCH   8  10
BRANCH   7  17
HETATM   17  O   UNK N   1      38.265  13.983  10.521  0.00  0.00    -0.346 OA
HETATM   18  H   UNK N   1      38.659  13.417   9.887  0.00  0.00     0.219 HD
ENDBRANCH   7  17
ENDBRANCH   5   7
BRANCH   6  19
HETATM   19  O   UNK N   1      35.393  11.719   9.912  0.00  0.00    -0.355 OA
HETATM   20  C   UNK N   1      35.925  10.804   9.031  0.00  0.00     0.210 C 
ENDBRANCH   6  19
BRANCH   4  21
HETATM   21  S   UNK N   1      34.158  17.322   8.326  0.00  0.00     0.171 S 
HETATM   22  C   UNK N   1      32.524  18.107   8.388  0.00  0.00     0.167 C 
HETATM   23  O   UNK N   1      34.688  17.517   6.898  0.00  0.00    -0.223 OA
HETATM   24  O   UNK N   1      35.150  18.236   9.062  0.00  0.00    -0.223 OA
ENDBRANCH   4  21
TORSDOF 9
ENDMDL
MODEL 4
REMARK VINA RESULT:      -5.6      4.544      8.721
REMARK  9 active torsions:
REMARK  status: ('A' for Active; 'I' for Inactive)
REMARK    1  A    between atoms: N_18  and  C_5 
REMARK    2  A    between atoms: N_18  and  C_6 
REMARK    3  A    between atoms: C_10  and  C_9 
REMARK    4  A    between atoms: N_16  and  C_9 
REMARK    5  A    between atoms: N_18  and  C_10 
REMARK    6  A    between atoms: S_23  and  C_12 
REMARK    7  A    between atoms: C_15  and  C_13 
REMARK    8  A    between atoms: O_22  and  C_14 
REMARK    9  A    between atoms: O_19  and  C_15 
ROOT
HETATM    1  C   UNK N   1      30.763  15.965   6.083  0.00  0.00     0.026 A 
HETATM    2  C   UNK N   1      29.402  15.752   5.863  0.00  0.00     0.039 A 
HETATM    3  C   UNK N   1      30.229  17.623   7.747  0.00  0.00     0.042 A 
HETATM    4  C   UNK N   1      31.176  16.898   7.033  0.00  0.00     0.059 A 
HETATM    5  C   UNK N   1      28.858  17.459   7.522  0.00  0.00     0.049 A 
HETATM    6  C   UNK N   1      28.431  16.491   6.570  0.00  0.00     0.082 A 
ENDROOT
BRANCH   5   7
HETATM    7  C   UNK N   1      27.954  18.321   8.345  0.00  0.00     0.149 C 
HETATM    8  N   UNK N   1      27.476  19.457   7.967  0.00  0.00    -0.369 N 
ATOM      9  HN  UNK N   1      26.843  19.925   8.616  1.00  0.00     0.161 HD
BRANCH   8  10
HETATM   10  C   UNK N   1      27.742  20.137   6.723  0.00  0.00     0.152 C 
BRANCH  10  11
HETATM   11  C   UNK N   1      26.431  20.519   6.010  0.00  0.00     0.292 C 
BRANCH  11  12
HETATM   12  N   UNK N   1      26.406  20.277   4.558  0.00  0.00     0.089 N 
BRANCH  12  13
HETATM   13  C   UNK N   1      27.526  19.434   4.142  0.00  0.00     0.268 C 
HETATM   14  C   UNK N   1      27.008  18.105   3.634  0.00  0.00     0.037 C 
ENDBRANCH  12  13
BRANCH  12  15
HETATM   15  C   UNK N   1      25.135  19.650   4.198  0.00  0.00     0.268 C 
HETATM   16  C   UNK N   1      24.353  20.505   3.215  0.00  0.00     0.037 C 
ENDBRANCH  12  15
ENDBRANCH  11  12
ENDBRANCH  10  11
ENDBRANCH   8  10
BRANCH   7  17
HETATM   17  O   UNK N   1      27.698  17.927   9.610  0.00  0.00    -0.346 OA
HETATM   18  H   UNK N   1      26.969  18.130  10.160  0.00  0.00     0.219 HD
ENDBRANCH   7  17
ENDBRANCH   5   7
BRANCH   6  19
HETATM   19  O   UNK N   1      27.114  16.237   6.380  0.00  0.00    -0.355 OA
HETATM   20  C   UNK N   1      26.630  15.050   5.876  0.00  0.00     0.210 C 
ENDBRANCH   6  19
BRANCH   4  21
HETATM   21  S   UNK N   1      32.909  17.242   7.294  0.00  0.00     0.171 S 
HETATM   22  C   UNK N   1      34.141  16.098   7.974  0.00  0.00     0.167 C 
HETATM   23  O   UNK N   1      32.958  18.511   8.159  0.00  0.00    -0.223 OA
HETATM   24  O   UNK N   1      33.479  17.834   5.995  0.00  0.00    -0.223 OA
ENDBRANCH   4  21
TORSDOF 9
ENDMDL
MODEL 5
REMARK VINA RESULT:      -5.5      4.113      6.388
REMARK  9 active torsions:
REMARK  status: ('A' for Active; 'I' for Inactive)
REMARK    1  A    between atoms: N_18  and  C_5 
REMARK    2  A    between atoms: N_18  and  C_6 
REMARK    3  A    between atoms: C_10  and  C_9 
REMARK    4  A    between atoms: N_16  and  C_9 
REMARK    5  A    between atoms: N_18  and  C_10 
REMARK    6  A    between atoms: S_23  and  C_12 
REMARK    7  A    between atoms: C_15  and  C_13 
REMARK    8  A    between atoms: O_22  and  C_14 
REMARK    9  A    between atoms: O_19  and  C_15 
ROOT
HETATM    1  C   UNK N   1      27.881  18.018   4.303  0.00  0.00     0.026 A 
HETATM    2  C   UNK N   1      27.717  19.245   4.946  0.00  0.00     0.039 A 
HETATM    3  C   UNK N   1      28.345  16.975   6.425  0.00  0.00     0.042 A 
HETATM    4  C   UNK N   1      28.189  16.880   5.047  0.00  0.00     0.059 A 
HETATM    5  C   UNK N   1      28.224  18.198   7.093  0.00  0.00     0.049 A 
HETATM    6  C   UNK N   1      27.887  19.359   6.342  0.00  0.00     0.082 A 
ENDROOT
BRANCH   5   7
HETATM    7  C   UNK N   1      28.442  18.157   8.573  0.00  0.00     0.149 C 
HETATM    8  N   UNK N   1      29.592  18.235   9.149  0.00  0.00    -0.369 N 
ATOM      9  HN  UNK N   1      29.593  18.229  10.170  1.00  0.00     0.161 HD
BRANCH   8  10
HETATM   10  C   UNK N   1      30.879  18.331   8.505  0.00  0.00     0.152 C 
BRANCH  10  11
HETATM   11  C   UNK N   1      31.640  16.994   8.590  0.00  0.00     0.292 C 
BRANCH  11  12
HETATM   12  N   UNK N   1      32.568  16.723   7.478  0.00  0.00     0.089 N 
BRANCH  12  13
HETATM   13  C   UNK N   1      31.845  16.366   6.259  0.00  0.00     0.268 C 
HETATM   14  C   UNK N   1      32.202  17.334   5.149  0.00  0.00     0.037 C 
ENDBRANCH  12  13
BRANCH  12  15
HETATM   15  C   UNK N   1      33.402  17.902   7.251  0.00  0.00     0.268 C 
HETATM   16  C   UNK N   1      34.512  18.005   8.284  0.00  0.00     0.037 C 
ENDBRANCH  12  15
ENDBRANCH  11  12
ENDBRANCH  10  11
ENDBRANCH   8  10
BRANCH   7  17
HETATM   17  O   UNK N   1      27.367  17.925   9.354  0.00  0.00    -0.346 OA
HETATM   18  H   UNK N   1      27.299  17.926  10.288  0.00  0.00     0.219 HD
ENDBRANCH   7  17
ENDBRANCH   5   7
BRANCH   6  19
HETATM   19  O   UNK N   1      27.676  20.547   6.957  0.00  0.00    -0.355 OA
HETATM   20  C   UNK N   1      26.817  21.512   6.478  0.00  0.00     0.210 C 
ENDBRANCH   6  19
BRANCH   4  21
HETATM   21  S   UNK N   1      28.470  15.306   4.249  0.00  0.00     0.171 S 
HETATM   22  C   UNK N   1      27.241  14.327   3.343  0.00  0.00     0.167 C 
HETATM   23  O   UNK N   1      29.057  14.387   5.331  0.00  0.00    -0.223 OA
HETATM   24  O   UNK N   1      29.718  15.437   3.362  0.00  0.00    -0.223 OA
ENDBRANCH   4  21
TORSDOF 9
ENDMDL
MODEL 6
REMARK VINA RESULT:      -5.4      2.087      4.227
REMARK  9 active torsions:
REMARK  status: ('A' for Active; 'I' for Inactive)
REMARK    1  A    between atoms: N_18  and  C_5 
REMARK    2  A    between atoms: N_18  and  C_6 
REMARK    3  A    between atoms: C_10  and  C_9 
REMARK    4  A    between atoms: N_16  and  C_9 
REMARK    5  A    between atoms: N_18  and  C_10 
REMARK    6  A    between atoms: S_23  and  C_12 
REMARK    7  A    between atoms: C_15  and  C_13 
REMARK    8  A    between atoms: O_22  and  C_14 
REMARK    9  A    between atoms: O_19  and  C_15 
ROOT
HETATM    1  C   UNK N   1      31.404  16.447   5.778  0.00  0.00     0.026 A 
HETATM    2  C   UNK N   1      30.994  17.199   6.879  0.00  0.00     0.039 A 
HETATM    3  C   UNK N   1      33.692  16.641   6.506  0.00  0.00     0.042 A 
HETATM    4  C   UNK N   1      32.756  16.162   5.596  0.00  0.00     0.059 A 
HETATM    5  C   UNK N   1      33.316  17.429   7.598  0.00  0.00     0.049 A 
HETATM    6  C   UNK N   1      31.934  17.704   7.801  0.00  0.00     0.082 A 
ENDROOT
BRANCH   5   7
HETATM    7  C   UNK N   1      34.430  17.894   8.481  0.00  0.00     0.149 C 
HETATM    8  N   UNK N   1      34.894  17.236   9.489  0.00  0.00    -0.369 N 
ATOM      9  HN  UNK N   1      35.681  17.656   9.984  1.00  0.00     0.161 HD
BRANCH   8  10
HETATM   10  C   UNK N   1      34.418  15.971   9.989  0.00  0.00     0.152 C 
BRANCH  10  11
HETATM   11  C   UNK N   1      35.451  14.855   9.743  0.00  0.00     0.292 C 
BRANCH  11  12
HETATM   12  N   UNK N   1      36.553  14.785  10.718  0.00  0.00     0.089 N 
BRANCH  12  13
HETATM   13  C   UNK N   1      36.246  13.849  11.798  0.00  0.00     0.268 C 
HETATM   14  C   UNK N   1      36.216  14.584  13.122  0.00  0.00     0.037 C 
ENDBRANCH  12  13
BRANCH  12  15
HETATM   15  C   UNK N   1      37.779  14.386  10.029  0.00  0.00     0.268 C 
HETATM   16  C   UNK N   1      38.098  12.920  10.269  0.00  0.00     0.037 C 
ENDBRANCH  12  15
ENDBRANCH  11  12
ENDBRANCH  10  11
ENDBRANCH   8  10
BRANCH   7  17
HETATM   17  O   UNK N   1      34.921  19.132   8.265  0.00  0.00    -0.346 OA
HETATM   18  H   UNK N   1      35.691  19.395   7.803  0.00  0.00     0.219 HD
ENDBRANCH   7  17
ENDBRANCH   5   7
BRANCH   6  19
HETATM   19  O   UNK N   1      31.515  18.390   8.892  0.00  0.00    -0.355 OA
HETATM   20  C   UNK N   1      30.190  18.546   9.233  0.00  0.00     0.210 C 
ENDBRANCH   6  19
BRANCH   4  21
HETATM   21  S   UNK N   1      33.322  15.258   4.163  0.00  0.00     0.171 S 
HETATM   22  C   UNK N   1      34.794  14.202   4.072  0.00  0.00     0.167 C 
HETATM   23  O   UNK N   1      33.451  16.295   3.038  0.00  0.00    -0.223 OA
HETATM   24  O   UNK N   1      32.134  14.462   3.601  0.00  0.00    -0.223 OA
ENDBRANCH   4  21
TORSDOF 9
ENDMDL
MODEL 7
REMARK VINA RESULT:      -5.3      3.795      6.994
REMARK  9 active torsions:
REMARK  status: ('A' for Active; 'I' for Inactive)
REMARK    1  A    between atoms: N_18  and  C_5 
REMARK    2  A    between atoms: N_18  and  C_6 
REMARK    3  A    between atoms: C_10  and  C_9 
REMARK    4  A    between atoms: N_16  and  C_9 
REMARK    5  A    between atoms: N_18  and  C_10 
REMARK    6  A    between atoms: S_23  and  C_12 
REMARK    7  A    between atoms: C_15  and  C_13 
REMARK    8  A    between atoms: O_22  and  C_14 
REMARK    9  A    between atoms: O_19  and  C_15 
ROOT
HETATM    1  C   UNK N   1      37.069  12.840  11.591  0.00  0.00     0.026 A 
HETATM    2  C   UNK N   1      37.112  13.128  10.226  0.00  0.00     0.039 A 
HETATM    3  C   UNK N   1      35.689  14.781  11.950  0.00  0.00     0.042 A 
HETATM    4  C   UNK N   1      36.350  13.666  12.453  0.00  0.00     0.059 A 
HETATM    5  C   UNK N   1      35.744  15.117  10.594  0.00  0.00     0.049 A 
HETATM    6  C   UNK N   1      36.458  14.264   9.706  0.00  0.00     0.082 A 
ENDROOT
BRANCH   5   7
HETATM    7  C   UNK N   1      35.006  16.356  10.198  0.00  0.00     0.149 C 
HETATM    8  N   UNK N   1      33.860  16.372   9.607  0.00  0.00    -0.369 N 
ATOM      9  HN  UNK N   1      33.452  17.290   9.426  1.00  0.00     0.161 HD
BRANCH   8  10
HETATM   10  C   UNK N   1      33.092  15.231   9.176  0.00  0.00     0.152 C 
BRANCH  10  11
HETATM   11  C   UNK N   1      32.690  15.362   7.694  0.00  0.00     0.292 C 
BRANCH  11  12
HETATM   12  N   UNK N   1      33.595  16.173   6.863  0.00  0.00     0.089 N 
BRANCH  12  13
HETATM   13  C   UNK N   1      34.146  15.389   5.758  0.00  0.00     0.268 C 
HETATM   14  C   UNK N   1      33.630  13.967   5.831  0.00  0.00     0.037 C 
ENDBRANCH  12  13
BRANCH  12  15
HETATM   15  C   UNK N   1      32.866  17.333   6.351  0.00  0.00     0.268 C 
HETATM   16  C   UNK N   1      33.094  17.519   4.860  0.00  0.00     0.037 C 
ENDBRANCH  12  15
ENDBRANCH  11  12
ENDBRANCH  10  11
ENDBRANCH   8  10
BRANCH   7  17
HETATM   17  O   UNK N   1      35.627  17.539  10.386  0.00  0.00    -0.346 OA
HETATM   18  H   UNK N   1      35.756  18.245   9.786  0.00  0.00     0.219 HD
ENDBRANCH   7  17
ENDBRANCH   5   7
BRANCH   6  19
HETATM   19  O   UNK N   1      36.468  14.501   8.372  0.00  0.00    -0.355 OA
HETATM   20  C   UNK N   1      37.017  13.640   7.447  0.00  0.00     0.210 C 
ENDBRANCH   6  19
BRANCH   4  21
HETATM   21  S   UNK N   1      36.328  13.365  14.214  0.00  0.00     0.171 S 
HETATM   22  C   UNK N   1      37.008  11.914  15.063  0.00  0.00     0.167 C 
HETATM   23  O   UNK N   1      34.856  13.477  14.639  0.00  0.00    -0.223 OA
HETATM   24  O   UNK N   1      36.863  14.620  14.919  0.00  0.00    -0.223 OA
ENDBRANCH   4  21
TORSDOF 9
ENDMDL
MODEL 8
REMARK VINA RESULT:      -5.3      8.881     11.822
REMARK  9 active torsions:
REMARK  status: ('A' for Active; 'I' for Inactive)
REMARK    1  A    between atoms: N_18  and  C_5 
REMARK    2  A    between atoms: N_18  and  C_6 
REMARK    3  A    between atoms: C_10  and  C_9 
REMARK    4  A    between atoms: N_16  and  C_9 
REMARK    5  A    between atoms: N_18  and  C_10 
REMARK    6  A    between atoms: S_23  and  C_12 
REMARK    7  A    between atoms: C_15  and  C_13 
REMARK    8  A    between atoms: O_22  and  C_14 
REMARK    9  A    between atoms: O_19  and  C_15 
ROOT
HETATM    1  C   UNK N   1      20.636  17.446   2.329  0.00  0.00     0.026 A 
HETATM    2  C   UNK N   1      20.745  16.101   2.684  0.00  0.00     0.039 A 
HETATM    3  C   UNK N   1      22.048  18.045   4.187  0.00  0.00     0.042 A 
HETATM    4  C   UNK N   1      21.295  18.418   3.079  0.00  0.00     0.059 A 
HETATM    5  C   UNK N   1      22.146  16.709   4.590  0.00  0.00     0.049 A 
HETATM    6  C   UNK N   1      21.494  15.710   3.814  0.00  0.00     0.082 A 
ENDROOT
BRANCH   5   7
HETATM    7  C   UNK N   1      22.969  16.455   5.812  0.00  0.00     0.149 C 
HETATM    8  N   UNK N   1      24.255  16.538   5.863  0.00  0.00    -0.369 N 
ATOM      9  HN  UNK N   1      24.688  16.373   6.773  1.00  0.00     0.161 HD
BRANCH   8  10
HETATM   10  C   UNK N   1      25.147  16.839   4.771  0.00  0.00     0.152 C 
BRANCH  10  11
HETATM   11  C   UNK N   1      25.580  18.318   4.802  0.00  0.00     0.292 C 
BRANCH  11  12
HETATM   12  N   UNK N   1      27.028  18.556   4.678  0.00  0.00     0.089 N 
BRANCH  12  13
HETATM   13  C   UNK N   1      27.307  19.944   4.312  0.00  0.00     0.268 C 
HETATM   14  C   UNK N   1      26.306  20.413   3.277  0.00  0.00     0.037 C 
ENDBRANCH  12  13
BRANCH  12  15
HETATM   15  C   UNK N   1      27.680  18.221   5.943  0.00  0.00     0.268 C 
HETATM   16  C   UNK N   1      27.830  19.446   6.831  0.00  0.00     0.037 C 
ENDBRANCH  12  15
ENDBRANCH  11  12
ENDBRANCH  10  11
ENDBRANCH   8  10
BRANCH   7  17
HETATM   17  O   UNK N   1      22.329  16.016   6.916  0.00  0.00    -0.346 OA
HETATM   18  H   UNK N   1      21.612  16.400   7.379  0.00  0.00     0.219 HD
ENDBRANCH   7  17
ENDBRANCH   5   7
BRANCH   6  19
HETATM   19  O   UNK N   1      21.630  14.396   4.115  0.00  0.00    -0.355 OA
HETATM   20  C   UNK N   1      22.548  13.566   3.511  0.00  0.00     0.210 C 
ENDBRANCH   6  19
BRANCH   4  21
HETATM   21  S   UNK N   1      21.124  20.154   2.692  0.00  0.00     0.171 S 
HETATM   22  C   UNK N   1      20.627  20.854   1.095  0.00  0.00     0.167 C 
HETATM   23  O   UNK N   1      22.469  20.799   3.059  0.00  0.00    -0.223 OA
HETATM   24  O   UNK N   1      20.258  20.803   3.783  0.00  0.00    -0.223 OA
ENDBRANCH   4  21
TORSDOF 9
ENDMDL
MODEL 9
REMARK VINA RESULT:      -5.1     11.661     13.783
REMARK  9 active torsions:
REMARK  status: ('A' for Active; 'I' for Inactive)
REMARK    1  A    between atoms: N_18  and  C_5 
REMARK    2  A    between atoms: N_18  and  C_6 
REMARK    3  A    between atoms: C_10  and  C_9 
REMARK    4  A    between atoms: N_16  and  C_9 
REMARK    5  A    between atoms: N_18  and  C_10 
REMARK    6  A    between atoms: S_23  and  C_12 
REMARK    7  A    between atoms: C_15  and  C_13 
REMARK    8  A    between atoms: O_22  and  C_14 
REMARK    9  A    between atoms: O_19  and  C_15 
ROOT
HETATM    1  C   UNK N   1      20.589  17.151   1.636  0.00  0.00     0.026 A 
HETATM    2  C   UNK N   1      20.214  15.809   1.712  0.00  0.00     0.039 A 
HETATM    3  C   UNK N   1      20.081  17.418   3.975  0.00  0.00     0.042 A 
HETATM    4  C   UNK N   1      20.528  17.954   2.774  0.00  0.00     0.059 A 
HETATM    5  C   UNK N   1      19.663  16.086   4.074  0.00  0.00     0.049 A 
HETATM    6  C   UNK N   1      19.745  15.256   2.921  0.00  0.00     0.082 A 
ENDROOT
BRANCH   5   7
HETATM    7  C   UNK N   1      19.184  15.651   5.423  0.00  0.00     0.149 C 
HETATM    8  N   UNK N   1      19.884  14.975   6.269  0.00  0.00    -0.369 N 
ATOM      9  HN  UNK N   1      19.445  14.775   7.168  1.00  0.00     0.161 HD
BRANCH   8  10
HETATM   10  C   UNK N   1      21.222  14.472   6.079  0.00  0.00     0.152 C 
BRANCH  10  11
HETATM   11  C   UNK N   1      22.106  14.777   7.304  0.00  0.00     0.292 C 
BRANCH  11  12
HETATM   12  N   UNK N   1      22.580  13.600   8.051  0.00  0.00     0.089 N 
BRANCH  12  13
HETATM   13  C   UNK N   1      21.469  12.893   8.686  0.00  0.00     0.268 C 
HETATM   14  C   UNK N   1      21.048  13.624   9.944  0.00  0.00     0.037 C 
ENDBRANCH  12  13
BRANCH  12  15
HETATM   15  C   UNK N   1      23.297  12.709   7.140  0.00  0.00     0.268 C 
HETATM   16  C   UNK N   1      23.545  11.350   7.772  0.00  0.00     0.037 C 
ENDBRANCH  12  15
ENDBRANCH  11  12
ENDBRANCH  10  11
ENDBRANCH   8  10
BRANCH   7  17
HETATM   17  O   UNK N   1      17.896  15.901   5.738  0.00  0.00    -0.346 OA
HETATM   18  H   UNK N   1      17.463  15.839   6.565  0.00  0.00     0.219 HD
ENDBRANCH   7  17
ENDBRANCH   5   7
BRANCH   6  19
HETATM   19  O   UNK N   1      19.433  13.939   2.989  0.00  0.00    -0.355 OA
HETATM   20  C   UNK N   1      18.911  13.223   1.935  0.00  0.00     0.210 C 
ENDBRANCH   6  19
BRANCH   4  21
HETATM   21  S   UNK N   1      20.937  19.691   2.698  0.00  0.00     0.171 S 
HETATM   22  C   UNK N   1      20.694  20.791   1.277  0.00  0.00     0.167 C 
HETATM   23  O   UNK N   1      22.421  19.789   3.084  0.00  0.00    -0.223 OA
HETATM   24  O   UNK N   1      20.337  20.377   3.935  0.00  0.00    -0.223 OA
ENDBRANCH   4  21
TORSDOF 9
ENDMDL
