REMARK  6 active torsions:
REMARK  status: ('A' for Active; 'I' for Inactive)
REMARK    1  A    between atoms: C_5  and  O_19 
REMARK    2  A    between atoms: C_7  and  N_8 
REMARK       I    between atoms: N_8  and  C_9 
REMARK    3  A    between atoms: C_9  and  C_11 
REMARK    4  A    between atoms: O_19  and  C_20 
REMARK    5  A    between atoms: C_26  and  N_31 
REMARK       I    between atoms: N_31  and  C_32 
REMARK    6  A    between atoms: C_32  and  C_34 
ROOT
HETATM    1  C   UNK N   1       8.808  -0.695  -0.020  0.00  0.00     0.050 C 
HETATM    2  C   UNK N   1       7.646   0.224  -0.026  0.00  0.00    -0.035 A 
HETATM    3  C   UNK N   1       6.416  -0.414  -0.055  0.00  0.00     0.012 A 
HETATM    4  C   UNK N   1       5.241   0.309  -0.058  0.00  0.00     0.038 A 
HETATM    5  C   UNK N   1       5.237   1.706  -0.020  0.00  0.00     0.080 A 
HETATM    6  C   UNK N   1       6.474   2.368  -0.003  0.00  0.00     0.067 A 
HETATM    7  C   UNK N   1       7.699   1.659  -0.007  0.00  0.00     0.043 A 
ENDROOT
BRANCH   5   8
HETATM    8  O   UNK N   1       4.063   2.424  -0.011  0.00  0.00    -0.293 OA
BRANCH   8   9
HETATM    9  C   UNK N   1       2.796   1.900   0.084  0.00  0.00     0.163 A 
HETATM   10  C   UNK N   1       2.595   0.529   0.370  0.00  0.00     0.061 A 
HETATM   11  C   UNK N   1       1.324  -0.017   0.422  0.00  0.00     0.055 A 
HETATM   12  C   UNK N   1       0.278   0.839   0.194  0.00  0.00     0.128 A 
HETATM   13  N   UNK N   1      -1.010   0.496   0.165  0.00  0.00    -0.326 N 
HETATM   14  N   UNK N   1       0.476   2.140  -0.051  0.00  0.00    -0.245 N 
HETATM   15  C   UNK N   1      -1.655   1.649  -0.111  0.00  0.00     0.127 A 
ATOM     16  HN  UNK N   1      -1.416  -0.428   0.318  1.00  0.00     0.169 HD
HETATM   17  C   UNK N   1      -0.736   2.696  -0.246  0.00  0.00     0.167 A 
HETATM   18  N   UNK N   1       1.693   2.697  -0.111  0.00  0.00    -0.272 N 
ATOM     19  HN  UNK N   1       1.799   3.694  -0.299  1.00  0.00     0.189 HD
BRANCH  15  20
HETATM   20  N   UNK N   1      -3.064   1.725  -0.299  0.00  0.00    -0.312 N 
HETATM   21  C   UNK N   1      -3.854   0.613  -0.372  0.00  0.00     0.227 C 
HETATM   22  O   UNK N   1      -3.367  -0.509  -0.312  0.00  0.00    -0.273 OA
HETATM   23  H   UNK N   1      -3.484   2.612  -0.379  0.00  0.00     0.170 HD
BRANCH  21  24
HETATM   24  C   UNK N   1      -5.329   0.744  -0.592  0.00  0.00     0.078 A 
HETATM   25  C   UNK N   1      -6.083  -0.034   0.475  0.00  0.00     0.015 A 
HETATM   26  C   UNK N   1      -5.970   1.469   0.576  0.00  0.00     0.015 A 
ENDBRANCH  21  24
ENDBRANCH  15  20
ENDBRANCH   8   9
ENDBRANCH   5   8
BRANCH   7  27
HETATM   27  N   UNK N   1       8.890   2.465   0.008  0.00  0.00    -0.321 N 
HETATM   28  C   UNK N   1      10.224   2.174  -0.001  0.00  0.00     0.274 C 
HETATM   29  O   UNK N   1      10.635   1.032  -0.017  0.00  0.00    -0.266 OA
HETATM   30  H   UNK N   1       8.704   3.431   0.027  0.00  0.00     0.169 HD
BRANCH  28  31
HETATM   31  C   UNK N   1      11.201   3.280   0.004  0.00  0.00     0.120 A 
HETATM   32  C   UNK N   1      10.881   4.625   0.010  0.00  0.00     0.063 A 
HETATM   33  C   UNK N   1      12.114   5.254   0.007  0.00  0.00     0.024 A 
HETATM   34  N   UNK N   1      13.104   4.342   0.001  0.00  0.00    -0.303 N 
HETATM   35  C   UNK N   1      12.337   6.723   0.010  0.00  0.00     0.070 C 
HETATM   36  N   UNK N   1      12.545   3.146  -0.001  0.00  0.00    -0.291 N 
ATOM     37  HN  UNK N   1      14.104   4.540  -0.002  1.00  0.00     0.186 HD
HETATM   38  C   UNK N   1      13.314   1.912  -0.009  0.00  0.00     0.178 C 
ENDBRANCH  28  31
ENDBRANCH   7  27
TORSDOF 6
