REMARK  6 active torsions:
REMARK  status: ('A' for Active; 'I' for Inactive)
REMARK    1  A    between atoms: C_18  and  C_2 
REMARK    2  A    between atoms: C_22  and  C_15 
REMARK    3  A    between atoms: N_32  and  C_20 
REMARK    4  A    between atoms: C_23  and  C_21 
REMARK    5  A    between atoms: O_33  and  C_23 
REMARK    6  A    between atoms: N_29  and  N_31 
ROOT
HETATM    1  C   UNK N   1       3.883  -0.450  -0.075  0.00  0.00     0.004 A 
HETATM    2  C   UNK N   1       2.758   0.336  -0.072  0.00  0.00     0.109 A 
HETATM    3  C   UNK N   1       3.423  -1.773  -0.077  0.00  0.00     0.075 A 
HETATM    4  N   UNK N   1       1.674  -0.449  -0.101  0.00  0.00    -0.288 N 
ATOM      5  HN  UNK N   1       0.710  -0.115  -0.118  1.00  0.00     0.188 HD
HETATM    6  N   UNK N   1       2.036  -1.726  -0.103  0.00  0.00    -0.253 N 
ENDROOT
BRANCH   2   7
HETATM    7  C   UNK N   1       2.689   1.805   0.044  0.00  0.00     0.184 C 
HETATM    8  N   UNK N   1       1.533   2.384   0.095  0.00  0.00    -0.280 N 
ATOM      9  HN  UNK N   1       0.703   1.809  -0.050  1.00  0.00     0.189 HD
BRANCH   8  10
HETATM   10  N   UNK N   1       1.354   3.734   0.333  0.00  0.00    -0.326 N 
HETATM   11  C   UNK N   1       0.117   4.366  -0.052  0.00  0.00     0.142 C 
HETATM   12  C   UNK N   1       0.440   5.595  -0.900  0.00  0.00     0.021 C 
HETATM   13  C   UNK N   1       1.413   6.510  -0.150  0.00  0.00     0.003 C 
HETATM   14  C   UNK N   1       2.686   5.753   0.234  0.00  0.00     0.021 C 
HETATM   15  C   UNK N   1       2.323   4.527   1.062  0.00  0.00     0.142 C 
ENDBRANCH   8  10
BRANCH   7  16
HETATM   16  O   UNK N   1       3.830   2.520   0.124  0.00  0.00    -0.343 OA
HETATM   17  H   UNK N   1       4.657   2.083   0.180  0.00  0.00     0.219 HD
ENDBRANCH   7  16
ENDBRANCH   2   7
BRANCH   1  18
HETATM   18  C   UNK N   1       5.292   0.057   0.009  0.00  0.00     0.039 C 
HETATM   19  C   UNK N   1       5.845   0.313  -1.380  0.00  0.00     0.010 C 
ENDBRANCH   1  18
BRANCH   3  20
HETATM   20  C   UNK N   1       4.374  -2.953   0.004  0.00  0.00    -0.007 A 
HETATM   21  C   UNK N   1       3.963  -4.257   0.297  0.00  0.00     0.015 A 
HETATM   22  C   UNK N   1       4.877  -5.308   0.413  0.00  0.00     0.020 A 
HETATM   23  C   UNK N   1       6.239  -5.066   0.246  0.00  0.00     0.011 A 
HETATM   24  C   UNK N   1       6.681  -3.777  -0.038  0.00  0.00     0.020 A 
HETATM   25 Br   UNK N   1       7.493  -6.490   0.415  0.00  0.00    -0.051 Br
HETATM   26  C   UNK N   1       5.757  -2.737  -0.152  0.00  0.00     0.015 A 
ENDBRANCH   3  20
BRANCH   6  27
HETATM   27  C   UNK N   1       0.999  -2.765  -0.108  0.00  0.00     0.078 A 
HETATM   28  C   UNK N   1       1.337  -4.120  -0.175  0.00  0.00     0.035 A 
HETATM   29  C   UNK N   1       0.379  -5.132  -0.140  0.00  0.00     0.026 A 
HETATM   30  C   UNK N   1      -0.967  -4.807  -0.044  0.00  0.00     0.035 A 
HETATM   31  C   UNK N   1      -1.352  -3.472  -0.003  0.00  0.00     0.050 A 
HETATM   32 Cl   UNK N   1      -2.174  -6.072   0.037  0.00  0.00    -0.084 Cl
HETATM   33  C   UNK N   1      -0.401  -2.447  -0.038  0.00  0.00     0.064 A 
HETATM   34 Cl   UNK N   1      -1.056  -0.812   0.029  0.00  0.00    -0.082 Cl
ENDBRANCH   6  27
TORSDOF 6
