MODEL 1
REMARK VINA RESULT:      -7.2      0.000      0.000
REMARK  25 active torsions:
REMARK  status: ('A' for Active; 'I' for Inactive)
REMARK    1  A    between atoms: C_25  and  O_2 
REMARK    2  A    between atoms: O_2  and  C_29 
REMARK    3  A    between atoms: C_21  and  O_4 
REMARK    4  A    between atoms: C_22  and  O_5 
REMARK    5  A    between atoms: C_28  and  O_6 
REMARK    6  A    between atoms: O_6  and  C_32 
REMARK    7  A    between atoms: C_23  and  O_7 
REMARK    8  A    between atoms: C_24  and  O_8 
REMARK    9  A    between atoms: C_26  and  O_9 
REMARK   10  A    between atoms: C_27  and  O_10 
REMARK   11  A    between atoms: O_13  and  C_38 
REMARK   12  A    between atoms: O_14  and  C_43 
REMARK   13  A    between atoms: O_14  and  C_47 
REMARK   14  A    between atoms: O_15  and  C_44 
REMARK   15  A    between atoms: O_15  and  C_48 
REMARK   16  A    between atoms: O_16  and  C_46 
REMARK   17  A    between atoms: O_16  and  C_49 
REMARK   18  A    between atoms: O_17  and  C_50 
REMARK   19  A    between atoms: O_18  and  C_51 
REMARK   20  A    between atoms: O_19  and  C_52 
REMARK   21  A    between atoms: C_20  and  C_29 
REMARK   22  A    between atoms: C_33  and  C_36 
REMARK   23  A    between atoms: C_47  and  C_50 
REMARK   24  A    between atoms: C_48  and  C_51 
REMARK   25  A    between atoms: C_49  and  C_52 
ROOT
HETATM    1  O   UNK N   1      27.543  14.241   2.555  0.00  0.00    -0.306 OA
HETATM    2  O   UNK N   1      24.397  11.935   3.252  0.00  0.00    -0.284 OA
HETATM    3  C   UNK N   1      25.394  13.955   3.539  0.00  0.00     0.157 A 
HETATM    4  C   UNK N   1      26.547  14.746   3.285  0.00  0.00     0.124 A 
HETATM    5  C   UNK N   1      25.352  12.651   3.016  0.00  0.00     0.223 A 
HETATM    6  C   UNK N   1      26.413  12.178   2.222  0.00  0.00     0.084 A 
HETATM    7  C   UNK N   1      27.516  13.029   2.015  0.00  0.00     0.096 A 
HETATM    8  C   UNK N   1      26.413  10.896   1.623  0.00  0.00     0.085 A 
HETATM    9  C   UNK N   1      28.590  12.608   1.224  0.00  0.00     0.075 A 
HETATM   10  C   UNK N   1      27.483  10.499   0.822  0.00  0.00     0.074 A 
HETATM   11  C   UNK N   1      28.578  11.350   0.615  0.00  0.00     0.074 A 
ENDROOT
BRANCH   3  12
HETATM   12  O   UNK N   1      24.365  14.421   4.297  0.00  0.00    -0.311 OA
BRANCH  12  13
HETATM   13  C   UNK N   1      24.486  14.601   5.671  0.00  0.00     0.298 C 
HETATM   14  O   UNK N   1      24.145  15.917   6.068  0.00  0.00    -0.348 OA
HETATM   15  C   UNK N   1      22.775  16.113   5.797  0.00  0.00     0.180 C 
HETATM   16  C   UNK N   1      21.912  15.295   6.760  0.00  0.00     0.180 C 
HETATM   17  C   UNK N   1      22.193  13.831   6.447  0.00  0.00     0.183 C 
HETATM   18  C   UNK N   1      23.694  13.563   6.504  0.00  0.00     0.205 C 
BRANCH  15  19
HETATM   19  C   UNK N   1      22.432  17.587   5.768  0.00  0.00     0.205 C 
BRANCH  19  20
HETATM   20  O   UNK N   1      21.107  17.707   5.344  0.00  0.00    -0.356 OA
BRANCH  20  21
HETATM   21  C   UNK N   1      21.157  17.709   3.951  0.00  0.00     0.291 C 
HETATM   22  O   UNK N   1      20.448  16.598   3.450  0.00  0.00    -0.351 OA
HETATM   23  C   UNK N   1      20.715  16.517   2.068  0.00  0.00     0.152 C 
HETATM   24  C   UNK N   1      20.057  17.699   1.344  0.00  0.00     0.178 C 
HETATM   25  C   UNK N   1      20.155  15.213   1.526  0.00  0.00     0.042 C 
HETATM   26  C   UNK N   1      20.619  18.999   1.915  0.00  0.00     0.183 C 
HETATM   27  C   UNK N   1      20.513  18.995   3.434  0.00  0.00     0.204 C 
BRANCH  24  28
HETATM   28  O   UNK N   1      20.329  17.639  -0.024  0.00  0.00    -0.390 OA
HETATM   29  H   UNK N   1      21.184  17.408  -0.422  0.00  0.00     0.210 HD
ENDBRANCH  24  28
BRANCH  26  30
HETATM   30  O   UNK N   1      19.928  20.090   1.391  0.00  0.00    -0.390 OA
HETATM   31  H   UNK N   1      18.975  20.208   1.535  0.00  0.00     0.210 HD
ENDBRANCH  26  30
BRANCH  27  32
HETATM   32  O   UNK N   1      21.174  20.107   3.956  0.00  0.00    -0.388 OA
HETATM   33  H   UNK N   1      21.007  20.593   4.779  0.00  0.00     0.210 HD
ENDBRANCH  27  32
ENDBRANCH  20  21
ENDBRANCH  19  20
ENDBRANCH  15  19
BRANCH  16  34
HETATM   34  O   UNK N   1      20.555  15.555   6.553  0.00  0.00    -0.390 OA
HETATM   35  H   UNK N   1      20.007  15.561   5.753  0.00  0.00     0.210 HD
ENDBRANCH  16  34
BRANCH  17  36
HETATM   36  O   UNK N   1      21.525  13.009   7.357  0.00  0.00    -0.390 OA
HETATM   37  H   UNK N   1      20.558  12.935   7.328  0.00  0.00     0.210 HD
ENDBRANCH  17  36
BRANCH  18  38
HETATM   38  O   UNK N   1      23.961  12.261   6.083  0.00  0.00    -0.388 OA
HETATM   39  H   UNK N   1      24.609  11.632   6.438  0.00  0.00     0.210 HD
ENDBRANCH  18  38
ENDBRANCH  12  13
ENDBRANCH   3  12
BRANCH   4  40
HETATM   40  C   UNK N   1      26.725  16.123   3.814  0.00  0.00     0.004 A 
HETATM   41  C   UNK N   1      27.668  16.339   4.825  0.00  0.00     0.054 A 
HETATM   42  C   UNK N   1      27.850  17.612   5.392  0.00  0.00     0.103 A 
HETATM   43  C   UNK N   1      27.083  18.690   4.931  0.00  0.00     0.102 A 
HETATM   44  C   UNK N   1      26.146  18.480   3.910  0.00  0.00     0.040 A 
HETATM   45  C   UNK N   1      25.969  17.208   3.363  0.00  0.00     0.017 A 
BRANCH  42  46
HETATM   46  O   UNK N   1      28.713  17.806   6.421  0.00  0.00    -0.346 OA
BRANCH  46  47
HETATM   47  C   UNK N   1      28.585  17.198   7.653  0.00  0.00     0.201 C 
BRANCH  47  48
HETATM   48  C   UNK N   1      28.624  18.217   8.774  0.00  0.00     0.190 C 
BRANCH  48  49
HETATM   49  O   UNK N   1      27.322  18.496   9.182  0.00  0.00    -0.399 OA
HETATM   50  H   UNK N   1      27.054  18.687  10.094  0.00  0.00     0.209 HD
ENDBRANCH  48  49
ENDBRANCH  47  48
ENDBRANCH  46  47
ENDBRANCH  42  46
BRANCH  43  51
HETATM   51  O   UNK N   1      27.236  19.902   5.524  0.00  0.00    -0.346 OA
BRANCH  51  52
HETATM   52  C   UNK N   1      26.219  20.814   5.736  0.00  0.00     0.201 C 
BRANCH  52  53
HETATM   53  C   UNK N   1      26.377  21.596   7.026  0.00  0.00     0.190 C 
BRANCH  53  54
HETATM   54  O   UNK N   1      25.919  20.822   8.091  0.00  0.00    -0.399 OA
HETATM   55  H   UNK N   1      26.440  20.586   8.874  0.00  0.00     0.209 HD
ENDBRANCH  53  54
ENDBRANCH  52  53
ENDBRANCH  51  52
ENDBRANCH  43  51
ENDBRANCH   4  40
BRANCH   8  56
HETATM   56  O   UNK N   1      25.385  10.048   1.792  0.00  0.00    -0.360 OA
HETATM   57  H   UNK N   1      25.270   9.324   1.209  0.00  0.00     0.217 HD
ENDBRANCH   8  56
BRANCH  11  58
HETATM   58  O   UNK N   1      29.616  10.991  -0.182  0.00  0.00    -0.349 OA
BRANCH  58  59
HETATM   59  C   UNK N   1      30.065  11.736  -1.257  0.00  0.00     0.201 C 
BRANCH  59  60
HETATM   60  C   UNK N   1      30.275  10.869  -2.486  0.00  0.00     0.190 C 
BRANCH  60  61
HETATM   61  O   UNK N   1      29.956  11.605  -3.627  0.00  0.00    -0.399 OA
HETATM   62  H   UNK N   1      30.623  12.145  -4.079  0.00  0.00     0.209 HD
ENDBRANCH  60  61
ENDBRANCH  59  60
ENDBRANCH  58  59
ENDBRANCH  11  58
TORSDOF 25
ENDMDL
MODEL 2
REMARK VINA RESULT:      -7.1      3.139      7.927
REMARK  25 active torsions:
REMARK  status: ('A' for Active; 'I' for Inactive)
REMARK    1  A    between atoms: C_25  and  O_2 
REMARK    2  A    between atoms: O_2  and  C_29 
REMARK    3  A    between atoms: C_21  and  O_4 
REMARK    4  A    between atoms: C_22  and  O_5 
REMARK    5  A    between atoms: C_28  and  O_6 
REMARK    6  A    between atoms: O_6  and  C_32 
REMARK    7  A    between atoms: C_23  and  O_7 
REMARK    8  A    between atoms: C_24  and  O_8 
REMARK    9  A    between atoms: C_26  and  O_9 
REMARK   10  A    between atoms: C_27  and  O_10 
REMARK   11  A    between atoms: O_13  and  C_38 
REMARK   12  A    between atoms: O_14  and  C_43 
REMARK   13  A    between atoms: O_14  and  C_47 
REMARK   14  A    between atoms: O_15  and  C_44 
REMARK   15  A    between atoms: O_15  and  C_48 
REMARK   16  A    between atoms: O_16  and  C_46 
REMARK   17  A    between atoms: O_16  and  C_49 
REMARK   18  A    between atoms: O_17  and  C_50 
REMARK   19  A    between atoms: O_18  and  C_51 
REMARK   20  A    between atoms: O_19  and  C_52 
REMARK   21  A    between atoms: C_20  and  C_29 
REMARK   22  A    between atoms: C_33  and  C_36 
REMARK   23  A    between atoms: C_47  and  C_50 
REMARK   24  A    between atoms: C_48  and  C_51 
REMARK   25  A    between atoms: C_49  and  C_52 
ROOT
HETATM    1  O   UNK N   1      23.157  15.392   6.435  0.00  0.00    -0.306 OA
HETATM    2  O   UNK N   1      20.856  18.604   6.724  0.00  0.00    -0.284 OA
HETATM    3  C   UNK N   1      22.620  17.595   5.712  0.00  0.00     0.157 A 
HETATM    4  C   UNK N   1      23.436  16.433   5.650  0.00  0.00     0.124 A 
HETATM    5  C   UNK N   1      21.546  17.608   6.618  0.00  0.00     0.223 A 
HETATM    6  C   UNK N   1      21.273  16.470   7.399  0.00  0.00     0.084 A 
HETATM    7  C   UNK N   1      22.128  15.358   7.272  0.00  0.00     0.096 A 
HETATM    8  C   UNK N   1      20.178  16.396   8.293  0.00  0.00     0.085 A 
HETATM    9  C   UNK N   1      21.890  14.199   8.018  0.00  0.00     0.075 A 
HETATM   10  C   UNK N   1      19.946  15.227   9.016  0.00  0.00     0.074 A 
HETATM   11  C   UNK N   1      20.797  14.120   8.885  0.00  0.00     0.074 A 
ENDROOT
BRANCH   3  12
HETATM   12  O   UNK N   1      22.882  18.689   4.946  0.00  0.00    -0.311 OA
BRANCH  12  13
HETATM   13  C   UNK N   1      22.947  18.617   3.558  0.00  0.00     0.298 C 
HETATM   14  O   UNK N   1      22.042  17.664   3.031  0.00  0.00    -0.348 OA
HETATM   15  C   UNK N   1      20.732  18.107   3.309  0.00  0.00     0.180 C 
HETATM   16  C   UNK N   1      20.384  19.329   2.457  0.00  0.00     0.180 C 
HETATM   17  C   UNK N   1      21.308  20.448   2.917  0.00  0.00     0.183 C 
HETATM   18  C   UNK N   1      22.760  19.985   2.857  0.00  0.00     0.205 C 
BRANCH  15  19
HETATM   19  C   UNK N   1      19.738  16.972   3.188  0.00  0.00     0.205 C 
BRANCH  19  20
HETATM   20  O   UNK N   1      20.335  15.826   3.720  0.00  0.00    -0.356 OA
BRANCH  20  21
HETATM   21  C   UNK N   1      19.507  14.767   3.353  0.00  0.00     0.291 C 
HETATM   22  O   UNK N   1      19.921  14.251   2.107  0.00  0.00    -0.351 OA
HETATM   23  C   UNK N   1      18.929  13.346   1.677  0.00  0.00     0.152 C 
HETATM   24  C   UNK N   1      18.934  12.105   2.580  0.00  0.00     0.178 C 
HETATM   25  C   UNK N   1      19.219  12.932   0.244  0.00  0.00     0.042 C 
HETATM   26  C   UNK N   1      18.660  12.544   4.016  0.00  0.00     0.183 C 
HETATM   27  C   UNK N   1      19.605  13.670   4.412  0.00  0.00     0.204 C 
BRANCH  24  28
HETATM   28  O   UNK N   1      17.944  11.208   2.174  0.00  0.00    -0.390 OA
HETATM   29  H   UNK N   1      17.643  11.072   1.262  0.00  0.00     0.210 HD
ENDBRANCH  24  28
BRANCH  26  30
HETATM   30  O   UNK N   1      18.814  11.464   4.885  0.00  0.00    -0.390 OA
HETATM   31  H   UNK N   1      19.007  11.590   5.827  0.00  0.00     0.210 HD
ENDBRANCH  26  30
BRANCH  27  32
HETATM   32  O   UNK N   1      19.242  14.175   5.661  0.00  0.00    -0.388 OA
HETATM   33  H   UNK N   1      19.785  14.301   6.456  0.00  0.00     0.210 HD
ENDBRANCH  27  32
ENDBRANCH  20  21
ENDBRANCH  19  20
ENDBRANCH  15  19
BRANCH  16  34
HETATM   34  O   UNK N   1      19.057  19.716   2.663  0.00  0.00    -0.390 OA
HETATM   35  H   UNK N   1      18.663  20.470   3.129  0.00  0.00     0.210 HD
ENDBRANCH  16  34
BRANCH  17  36
HETATM   36  O   UNK N   1      21.132  21.577   2.114  0.00  0.00    -0.390 OA
HETATM   37  H   UNK N   1      21.682  21.706   1.326  0.00  0.00     0.210 HD
ENDBRANCH  17  36
BRANCH  18  38
HETATM   38  O   UNK N   1      23.594  20.958   3.408  0.00  0.00    -0.388 OA
HETATM   39  H   UNK N   1      24.392  21.357   3.027  0.00  0.00     0.210 HD
ENDBRANCH  18  38
ENDBRANCH  12  13
ENDBRANCH   3  12
BRANCH   4  40
HETATM   40  C   UNK N   1      24.621  16.314   4.761  0.00  0.00     0.004 A 
HETATM   41  C   UNK N   1      24.568  15.422   3.684  0.00  0.00     0.054 A 
HETATM   42  C   UNK N   1      25.672  15.238   2.835  0.00  0.00     0.103 A 
HETATM   43  C   UNK N   1      26.847  15.969   3.059  0.00  0.00     0.102 A 
HETATM   44  C   UNK N   1      26.899  16.873   4.129  0.00  0.00     0.040 A 
HETATM   45  C   UNK N   1      25.797  17.038   4.970  0.00  0.00     0.017 A 
BRANCH  42  46
HETATM   46  O   UNK N   1      25.646  14.320   1.836  0.00  0.00    -0.346 OA
BRANCH  46  47
HETATM   47  C   UNK N   1      24.910  13.154   1.887  0.00  0.00     0.201 C 
BRANCH  47  48
HETATM   48  C   UNK N   1      24.080  12.975   0.632  0.00  0.00     0.190 C 
BRANCH  48  49
HETATM   49  O   UNK N   1      23.831  14.224   0.068  0.00  0.00    -0.399 OA
HETATM   50  H   UNK N   1      23.026  14.747   0.207  0.00  0.00     0.209 HD
ENDBRANCH  48  49
ENDBRANCH  47  48
ENDBRANCH  46  47
ENDBRANCH  42  46
BRANCH  43  51
HETATM   51  O   UNK N   1      27.920  15.742   2.260  0.00  0.00    -0.346 OA
BRANCH  51  52
HETATM   52  C   UNK N   1      28.961  14.881   2.557  0.00  0.00     0.201 C 
BRANCH  52  53
HETATM   53  C   UNK N   1      30.217  15.598   3.012  0.00  0.00     0.190 C 
BRANCH  53  54
HETATM   54  O   UNK N   1      30.196  16.908   2.536  0.00  0.00    -0.399 OA
HETATM   55  H   UNK N   1      29.814  17.667   3.005  0.00  0.00     0.209 HD
ENDBRANCH  53  54
ENDBRANCH  52  53
ENDBRANCH  51  52
ENDBRANCH  43  51
ENDBRANCH   4  40
BRANCH   8  56
HETATM   56  O   UNK N   1      19.336  17.430   8.450  0.00  0.00    -0.360 OA
HETATM   57  H   UNK N   1      19.521  18.098   9.079  0.00  0.00     0.217 HD
ENDBRANCH   8  56
BRANCH  11  58
HETATM   58  O   UNK N   1      20.570  12.965   9.561  0.00  0.00    -0.349 OA
BRANCH  58  59
HETATM   59  C   UNK N   1      21.014  12.715  10.846  0.00  0.00     0.201 C 
BRANCH  59  60
HETATM   60  C   UNK N   1      22.314  11.929  10.844  0.00  0.00     0.190 C 
BRANCH  60  61
HETATM   61  O   UNK N   1      23.384  12.812  10.978  0.00  0.00    -0.399 OA
HETATM   62  H   UNK N   1      23.629  13.418  10.260  0.00  0.00     0.209 HD
ENDBRANCH  60  61
ENDBRANCH  59  60
ENDBRANCH  58  59
ENDBRANCH  11  58
TORSDOF 25
ENDMDL
MODEL 3
REMARK VINA RESULT:      -7.1      3.005      9.073
REMARK  25 active torsions:
REMARK  status: ('A' for Active; 'I' for Inactive)
REMARK    1  A    between atoms: C_25  and  O_2 
REMARK    2  A    between atoms: O_2  and  C_29 
REMARK    3  A    between atoms: C_21  and  O_4 
REMARK    4  A    between atoms: C_22  and  O_5 
REMARK    5  A    between atoms: C_28  and  O_6 
REMARK    6  A    between atoms: O_6  and  C_32 
REMARK    7  A    between atoms: C_23  and  O_7 
REMARK    8  A    between atoms: C_24  and  O_8 
REMARK    9  A    between atoms: C_26  and  O_9 
REMARK   10  A    between atoms: C_27  and  O_10 
REMARK   11  A    between atoms: O_13  and  C_38 
REMARK   12  A    between atoms: O_14  and  C_43 
REMARK   13  A    between atoms: O_14  and  C_47 
REMARK   14  A    between atoms: O_15  and  C_44 
REMARK   15  A    between atoms: O_15  and  C_48 
REMARK   16  A    between atoms: O_16  and  C_46 
REMARK   17  A    between atoms: O_16  and  C_49 
REMARK   18  A    between atoms: O_17  and  C_50 
REMARK   19  A    between atoms: O_18  and  C_51 
REMARK   20  A    between atoms: O_19  and  C_52 
REMARK   21  A    between atoms: C_20  and  C_29 
REMARK   22  A    between atoms: C_33  and  C_36 
REMARK   23  A    between atoms: C_47  and  C_50 
REMARK   24  A    between atoms: C_48  and  C_51 
REMARK   25  A    between atoms: C_49  and  C_52 
ROOT
HETATM    1  O   UNK N   1      23.251  16.348   4.680  0.00  0.00    -0.306 OA
HETATM    2  O   UNK N   1      26.826  17.846   3.855  0.00  0.00    -0.284 OA
HETATM    3  C   UNK N   1      25.609  16.053   4.535  0.00  0.00     0.157 A 
HETATM    4  C   UNK N   1      24.313  15.556   4.840  0.00  0.00     0.124 A 
HETATM    5  C   UNK N   1      25.726  17.379   4.084  0.00  0.00     0.223 A 
HETATM    6  C   UNK N   1      24.572  18.162   3.898  0.00  0.00     0.084 A 
HETATM    7  C   UNK N   1      23.325  17.591   4.219  0.00  0.00     0.096 A 
HETATM    8  C   UNK N   1      24.611  19.485   3.399  0.00  0.00     0.085 A 
HETATM    9  C   UNK N   1      22.148  18.324   4.041  0.00  0.00     0.075 A 
HETATM   10  C   UNK N   1      23.427  20.197   3.211  0.00  0.00     0.074 A 
HETATM   11  C   UNK N   1      22.187  19.624   3.528  0.00  0.00     0.074 A 
ENDROOT
BRANCH   3  12
HETATM   12  O   UNK N   1      26.722  15.288   4.704  0.00  0.00    -0.311 OA
BRANCH  12  13
HETATM   13  C   UNK N   1      27.472  14.831   3.626  0.00  0.00     0.298 C 
HETATM   14  O   UNK N   1      28.539  15.706   3.309  0.00  0.00    -0.348 OA
HETATM   15  C   UNK N   1      29.436  15.711   4.398  0.00  0.00     0.180 C 
HETATM   16  C   UNK N   1      30.182  14.379   4.488  0.00  0.00     0.180 C 
HETATM   17  C   UNK N   1      29.134  13.324   4.818  0.00  0.00     0.183 C 
HETATM   18  C   UNK N   1      27.995  13.384   3.804  0.00  0.00     0.205 C 
BRANCH  15  19
HETATM   19  C   UNK N   1      30.345  16.921   4.347  0.00  0.00     0.205 C 
BRANCH  19  20
HETATM   20  O   UNK N   1      29.767  17.920   5.133  0.00  0.00    -0.356 OA
BRANCH  20  21
HETATM   21  C   UNK N   1      29.662  17.378   6.412  0.00  0.00     0.291 C 
HETATM   22  O   UNK N   1      30.922  17.407   7.045  0.00  0.00    -0.351 OA
HETATM   23  C   UNK N   1      30.816  16.652   8.230  0.00  0.00     0.152 C 
HETATM   24  C   UNK N   1      29.912  17.384   9.232  0.00  0.00     0.178 C 
HETATM   25  C   UNK N   1      32.199  16.470   8.833  0.00  0.00     0.042 C 
HETATM   26  C   UNK N   1      28.535  17.573   8.601  0.00  0.00     0.183 C 
HETATM   27  C   UNK N   1      28.669  18.208   7.224  0.00  0.00     0.204 C 
BRANCH  24  28
HETATM   28  O   UNK N   1      29.785  16.636  10.404  0.00  0.00    -0.390 OA
HETATM   29  H   UNK N   1      30.504  16.168  10.859  0.00  0.00     0.210 HD
ENDBRANCH  24  28
BRANCH  26  30
HETATM   30  O   UNK N   1      27.739  18.373   9.420  0.00  0.00    -0.390 OA
HETATM   31  H   UNK N   1      26.782  18.456   9.279  0.00  0.00     0.210 HD
ENDBRANCH  26  30
BRANCH  27  32
HETATM   32  O   UNK N   1      27.427  18.227   6.589  0.00  0.00    -0.388 OA
HETATM   33  H   UNK N   1      27.219  18.212   5.641  0.00  0.00     0.210 HD
ENDBRANCH  27  32
ENDBRANCH  20  21
ENDBRANCH  19  20
ENDBRANCH  15  19
BRANCH  16  34
HETATM   34  O   UNK N   1      31.135  14.412   5.510  0.00  0.00    -0.390 OA
HETATM   35  H   UNK N   1      32.103  14.478   5.496  0.00  0.00     0.210 HD
ENDBRANCH  16  34
BRANCH  17  36
HETATM   36  O   UNK N   1      29.713  12.053   4.813  0.00  0.00    -0.390 OA
HETATM   37  H   UNK N   1      30.590  11.918   4.420  0.00  0.00     0.210 HD
ENDBRANCH  17  36
BRANCH  18  38
HETATM   38  O   UNK N   1      26.973  12.516   4.185  0.00  0.00    -0.388 OA
HETATM   39  H   UNK N   1      26.075  12.732   4.482  0.00  0.00     0.210 HD
ENDBRANCH  18  38
ENDBRANCH  12  13
ENDBRANCH   3  12
BRANCH   4  40
HETATM   40  C   UNK N   1      24.066  14.186   5.360  0.00  0.00     0.004 A 
HETATM   41  C   UNK N   1      24.363  13.911   6.699  0.00  0.00     0.054 A 
HETATM   42  C   UNK N   1      24.188  12.623   7.233  0.00  0.00     0.103 A 
HETATM   43  C   UNK N   1      23.696  11.596   6.417  0.00  0.00     0.102 A 
HETATM   44  C   UNK N   1      23.386  11.872   5.078  0.00  0.00     0.040 A 
HETATM   45  C   UNK N   1      23.574  13.153   4.558  0.00  0.00     0.017 A 
BRANCH  42  46
HETATM   46  O   UNK N   1      24.543  12.338   8.512  0.00  0.00    -0.346 OA
BRANCH  46  47
HETATM   47  C   UNK N   1      23.768  12.650   9.609  0.00  0.00     0.201 C 
BRANCH  47  48
HETATM   48  C   UNK N   1      24.448  12.232  10.897  0.00  0.00     0.190 C 
BRANCH  48  49
HETATM   49  O   UNK N   1      25.595  13.001  11.077  0.00  0.00    -0.399 OA
HETATM   50  H   UNK N   1      25.673  13.748  11.692  0.00  0.00     0.209 HD
ENDBRANCH  48  49
ENDBRANCH  47  48
ENDBRANCH  46  47
ENDBRANCH  42  46
BRANCH  43  51
HETATM   51  O   UNK N   1      23.580  10.347   6.937  0.00  0.00    -0.346 OA
BRANCH  51  52
HETATM   52  C   UNK N   1      23.024   9.264   6.280  0.00  0.00     0.201 C 
BRANCH  52  53
HETATM   53  C   UNK N   1      24.056   8.267   5.792  0.00  0.00     0.190 C 
BRANCH  53  54
HETATM   54  O   UNK N   1      25.186   8.340   6.607  0.00  0.00    -0.399 OA
HETATM   55  H   UNK N   1      25.247   8.848   7.431  0.00  0.00     0.209 HD
ENDBRANCH  53  54
ENDBRANCH  52  53
ENDBRANCH  51  52
ENDBRANCH  43  51
ENDBRANCH   4  40
BRANCH   8  56
HETATM   56  O   UNK N   1      25.775  20.074   3.080  0.00  0.00    -0.360 OA
HETATM   57  H   UNK N   1      26.460  19.579   2.676  0.00  0.00     0.217 HD
ENDBRANCH   8  56
BRANCH  11  58
HETATM   58  O   UNK N   1      21.023  20.291   3.326  0.00  0.00    -0.349 OA
BRANCH  58  59
HETATM   59  C   UNK N   1      20.743  21.044   2.202  0.00  0.00     0.201 C 
BRANCH  59  60
HETATM   60  C   UNK N   1      20.744  20.191   0.945  0.00  0.00     0.190 C 
BRANCH  60  61
HETATM   61  O   UNK N   1      20.752  21.022  -0.174  0.00  0.00    -0.399 OA
HETATM   62  H   UNK N   1      20.399  21.925  -0.133  0.00  0.00     0.209 HD
ENDBRANCH  60  61
ENDBRANCH  59  60
ENDBRANCH  58  59
ENDBRANCH  11  58
TORSDOF 25
ENDMDL
MODEL 4
REMARK VINA RESULT:      -7.0      3.588     10.220
REMARK  25 active torsions:
REMARK  status: ('A' for Active; 'I' for Inactive)
REMARK    1  A    between atoms: C_25  and  O_2 
REMARK    2  A    between atoms: O_2  and  C_29 
REMARK    3  A    between atoms: C_21  and  O_4 
REMARK    4  A    between atoms: C_22  and  O_5 
REMARK    5  A    between atoms: C_28  and  O_6 
REMARK    6  A    between atoms: O_6  and  C_32 
REMARK    7  A    between atoms: C_23  and  O_7 
REMARK    8  A    between atoms: C_24  and  O_8 
REMARK    9  A    between atoms: C_26  and  O_9 
REMARK   10  A    between atoms: C_27  and  O_10 
REMARK   11  A    between atoms: O_13  and  C_38 
REMARK   12  A    between atoms: O_14  and  C_43 
REMARK   13  A    between atoms: O_14  and  C_47 
REMARK   14  A    between atoms: O_15  and  C_44 
REMARK   15  A    between atoms: O_15  and  C_48 
REMARK   16  A    between atoms: O_16  and  C_46 
REMARK   17  A    between atoms: O_16  and  C_49 
REMARK   18  A    between atoms: O_17  and  C_50 
REMARK   19  A    between atoms: O_18  and  C_51 
REMARK   20  A    between atoms: O_19  and  C_52 
REMARK   21  A    between atoms: C_20  and  C_29 
REMARK   22  A    between atoms: C_33  and  C_36 
REMARK   23  A    between atoms: C_47  and  C_50 
REMARK   24  A    between atoms: C_48  and  C_51 
REMARK   25  A    between atoms: C_49  and  C_52 
ROOT
HETATM    1  O   UNK N   1      24.123  16.952   4.441  0.00  0.00    -0.306 OA
HETATM    2  O   UNK N   1      27.744  18.419   3.781  0.00  0.00    -0.284 OA
HETATM    3  C   UNK N   1      26.483  16.637   4.404  0.00  0.00     0.157 A 
HETATM    4  C   UNK N   1      25.170  16.151   4.649  0.00  0.00     0.124 A 
HETATM    5  C   UNK N   1      26.631  17.962   3.959  0.00  0.00     0.223 A 
HETATM    6  C   UNK N   1      25.493  18.754   3.720  0.00  0.00     0.084 A 
HETATM    7  C   UNK N   1      24.228  18.193   3.984  0.00  0.00     0.096 A 
HETATM    8  C   UNK N   1      25.567  20.077   3.223  0.00  0.00     0.085 A 
HETATM    9  C   UNK N   1      23.066  18.937   3.751  0.00  0.00     0.075 A 
HETATM   10  C   UNK N   1      24.399  20.798   2.980  0.00  0.00     0.074 A 
HETATM   11  C   UNK N   1      23.141  20.236   3.241  0.00  0.00     0.074 A 
ENDROOT
BRANCH   3  12
HETATM   12  O   UNK N   1      27.580  15.863   4.625  0.00  0.00    -0.311 OA
BRANCH  12  13
HETATM   13  C   UNK N   1      28.580  15.714   3.670  0.00  0.00     0.298 C 
HETATM   14  O   UNK N   1      29.834  16.179   4.136  0.00  0.00    -0.348 OA
HETATM   15  C   UNK N   1      30.233  15.354   5.208  0.00  0.00     0.180 C 
HETATM   16  C   UNK N   1      30.616  13.962   4.705  0.00  0.00     0.180 C 
HETATM   17  C   UNK N   1      29.340  13.340   4.155  0.00  0.00     0.183 C 
HETATM   18  C   UNK N   1      28.707  14.270   3.125  0.00  0.00     0.205 C 
BRANCH  15  19
HETATM   19  C   UNK N   1      31.308  16.024   6.038  0.00  0.00     0.205 C 
BRANCH  19  20
HETATM   20  O   UNK N   1      31.174  15.572   7.353  0.00  0.00    -0.356 OA
BRANCH  20  21
HETATM   21  C   UNK N   1      32.439  15.696   7.923  0.00  0.00     0.291 C 
HETATM   22  O   UNK N   1      32.804  17.057   7.974  0.00  0.00    -0.351 OA
HETATM   23  C   UNK N   1      34.164  17.114   8.342  0.00  0.00     0.152 C 
HETATM   24  C   UNK N   1      34.325  16.662   9.800  0.00  0.00     0.178 C 
HETATM   25  C   UNK N   1      34.662  18.542   8.197  0.00  0.00     0.042 C 
HETATM   26  C   UNK N   1      33.802  15.233   9.929  0.00  0.00     0.183 C 
HETATM   27  C   UNK N   1      32.402  15.129   9.342  0.00  0.00     0.204 C 
BRANCH  24  28
HETATM   28  O   UNK N   1      35.670  16.697  10.171  0.00  0.00    -0.390 OA
HETATM   29  H   UNK N   1      36.198  17.499  10.313  0.00  0.00     0.210 HD
ENDBRANCH  24  28
BRANCH  26  30
HETATM   30  O   UNK N   1      33.787  14.848  11.270  0.00  0.00    -0.390 OA
HETATM   31  H   UNK N   1      33.756  15.501  11.988  0.00  0.00     0.210 HD
ENDBRANCH  26  30
BRANCH  27  32
HETATM   32  O   UNK N   1      31.998  13.794   9.315  0.00  0.00    -0.388 OA
HETATM   33  H   UNK N   1      31.312  13.369   8.776  0.00  0.00     0.210 HD
ENDBRANCH  27  32
ENDBRANCH  20  21
ENDBRANCH  19  20
ENDBRANCH  15  19
BRANCH  16  34
HETATM   34  O   UNK N   1      31.097  13.170   5.752  0.00  0.00    -0.390 OA
HETATM   35  H   UNK N   1      30.699  12.885   6.589  0.00  0.00     0.210 HD
ENDBRANCH  16  34
BRANCH  17  36
HETATM   36  O   UNK N   1      29.621  12.102   3.573  0.00  0.00    -0.390 OA
HETATM   37  H   UNK N   1      29.110  11.317   3.826  0.00  0.00     0.210 HD
ENDBRANCH  17  36
BRANCH  18  38
HETATM   38  O   UNK N   1      27.469  13.766   2.725  0.00  0.00    -0.388 OA
HETATM   39  H   UNK N   1      27.235  13.331   1.889  0.00  0.00     0.210 HD
ENDBRANCH  18  38
ENDBRANCH  12  13
ENDBRANCH   3  12
BRANCH   4  40
HETATM   40  C   UNK N   1      24.887  14.784   5.157  0.00  0.00     0.004 A 
HETATM   41  C   UNK N   1      25.076  14.519   6.518  0.00  0.00     0.054 A 
HETATM   42  C   UNK N   1      24.864  13.234   7.046  0.00  0.00     0.103 A 
HETATM   43  C   UNK N   1      24.444  12.198   6.200  0.00  0.00     0.102 A 
HETATM   44  C   UNK N   1      24.242  12.464   4.838  0.00  0.00     0.040 A 
HETATM   45  C   UNK N   1      24.466  13.743   4.326  0.00  0.00     0.017 A 
BRANCH  42  46
HETATM   46  O   UNK N   1      25.116  12.960   8.351  0.00  0.00    -0.346 OA
BRANCH  46  47
HETATM   47  C   UNK N   1      24.168  13.051   9.349  0.00  0.00     0.201 C 
BRANCH  47  48
HETATM   48  C   UNK N   1      24.575  12.246  10.566  0.00  0.00     0.190 C 
BRANCH  48  49
HETATM   49  O   UNK N   1      25.536  12.956  11.282  0.00  0.00    -0.399 OA
HETATM   50  H   UNK N   1      25.352  13.529  12.043  0.00  0.00     0.209 HD
ENDBRANCH  48  49
ENDBRANCH  47  48
ENDBRANCH  46  47
ENDBRANCH  42  46
BRANCH  43  51
HETATM   51  O   UNK N   1      24.292  10.953   6.717  0.00  0.00    -0.346 OA
BRANCH  51  52
HETATM   52  C   UNK N   1      24.183   9.793   5.971  0.00  0.00     0.201 C 
BRANCH  52  53
HETATM   53  C   UNK N   1      24.506   8.541   6.763  0.00  0.00     0.190 C 
BRANCH  53  54
HETATM   54  O   UNK N   1      25.665   7.959   6.250  0.00  0.00    -0.399 OA
HETATM   55  H   UNK N   1      25.844   7.006   6.219  0.00  0.00     0.209 HD
ENDBRANCH  53  54
ENDBRANCH  52  53
ENDBRANCH  51  52
ENDBRANCH  43  51
ENDBRANCH   4  40
BRANCH   8  56
HETATM   56  O   UNK N   1      26.749  20.656   2.959  0.00  0.00    -0.360 OA
HETATM   57  H   UNK N   1      27.375  20.223   2.413  0.00  0.00     0.217 HD
ENDBRANCH   8  56
BRANCH  11  58
HETATM   58  O   UNK N   1      21.993  20.913   2.985  0.00  0.00    -0.349 OA
BRANCH  58  59
HETATM   59  C   UNK N   1      20.870  20.351   2.406  0.00  0.00     0.201 C 
BRANCH  59  60
HETATM   60  C   UNK N   1      20.985  20.311   0.892  0.00  0.00     0.190 C 
BRANCH  60  61
HETATM   61  O   UNK N   1      20.438  21.478   0.360  0.00  0.00    -0.399 OA
HETATM   62  H   UNK N   1      20.208  21.542  -0.581  0.00  0.00     0.209 HD
ENDBRANCH  60  61
ENDBRANCH  59  60
ENDBRANCH  58  59
ENDBRANCH  11  58
TORSDOF 25
ENDMDL
MODEL 5
REMARK VINA RESULT:      -7.0      3.396      5.997
REMARK  25 active torsions:
REMARK  status: ('A' for Active; 'I' for Inactive)
REMARK    1  A    between atoms: C_25  and  O_2 
REMARK    2  A    between atoms: O_2  and  C_29 
REMARK    3  A    between atoms: C_21  and  O_4 
REMARK    4  A    between atoms: C_22  and  O_5 
REMARK    5  A    between atoms: C_28  and  O_6 
REMARK    6  A    between atoms: O_6  and  C_32 
REMARK    7  A    between atoms: C_23  and  O_7 
REMARK    8  A    between atoms: C_24  and  O_8 
REMARK    9  A    between atoms: C_26  and  O_9 
REMARK   10  A    between atoms: C_27  and  O_10 
REMARK   11  A    between atoms: O_13  and  C_38 
REMARK   12  A    between atoms: O_14  and  C_43 
REMARK   13  A    between atoms: O_14  and  C_47 
REMARK   14  A    between atoms: O_15  and  C_44 
REMARK   15  A    between atoms: O_15  and  C_48 
REMARK   16  A    between atoms: O_16  and  C_46 
REMARK   17  A    between atoms: O_16  and  C_49 
REMARK   18  A    between atoms: O_17  and  C_50 
REMARK   19  A    between atoms: O_18  and  C_51 
REMARK   20  A    between atoms: O_19  and  C_52 
REMARK   21  A    between atoms: C_20  and  C_29 
REMARK   22  A    between atoms: C_33  and  C_36 
REMARK   23  A    between atoms: C_47  and  C_50 
REMARK   24  A    between atoms: C_48  and  C_51 
REMARK   25  A    between atoms: C_49  and  C_52 
ROOT
HETATM    1  O   UNK N   1      25.565  14.303   6.098  0.00  0.00    -0.306 OA
HETATM    2  O   UNK N   1      23.815  14.354   2.543  0.00  0.00    -0.284 OA
HETATM    3  C   UNK N   1      23.671  13.808   4.742  0.00  0.00     0.157 A 
HETATM    4  C   UNK N   1      24.338  13.789   5.997  0.00  0.00     0.124 A 
HETATM    5  C   UNK N   1      24.343  14.362   3.639  0.00  0.00     0.223 A 
HETATM    6  C   UNK N   1      25.622  14.924   3.805  0.00  0.00     0.084 A 
HETATM    7  C   UNK N   1      26.209  14.869   5.085  0.00  0.00     0.096 A 
HETATM    8  C   UNK N   1      26.333  15.543   2.751  0.00  0.00     0.085 A 
HETATM    9  C   UNK N   1      27.474  15.424   5.303  0.00  0.00     0.075 A 
HETATM   10  C   UNK N   1      27.586  16.107   2.989  0.00  0.00     0.074 A 
HETATM   11  C   UNK N   1      28.166  16.053   4.265  0.00  0.00     0.074 A 
ENDROOT
BRANCH   3  12
HETATM   12  O   UNK N   1      22.429  13.274   4.589  0.00  0.00    -0.311 OA
BRANCH  12  13
HETATM   13  C   UNK N   1      21.326  13.766   5.279  0.00  0.00     0.298 C 
HETATM   14  O   UNK N   1      20.927  15.041   4.807  0.00  0.00    -0.348 OA
HETATM   15  C   UNK N   1      20.485  14.892   3.476  0.00  0.00     0.180 C 
HETATM   16  C   UNK N   1      19.151  14.145   3.431  0.00  0.00     0.180 C 
HETATM   17  C   UNK N   1      19.434  12.736   3.934  0.00  0.00     0.183 C 
HETATM   18  C   UNK N   1      20.121  12.795   5.295  0.00  0.00     0.205 C 
BRANCH  15  19
HETATM   19  C   UNK N   1      20.464  16.226   2.759  0.00  0.00     0.205 C 
BRANCH  19  20
HETATM   20  O   UNK N   1      19.732  17.119   3.544  0.00  0.00    -0.356 OA
BRANCH  20  21
HETATM   21  C   UNK N   1      20.487  18.290   3.585  0.00  0.00     0.291 C 
HETATM   22  O   UNK N   1      21.860  17.968   3.553  0.00  0.00    -0.351 OA
HETATM   23  C   UNK N   1      22.575  19.153   3.823  0.00  0.00     0.152 C 
HETATM   24  C   UNK N   1      22.425  20.128   2.647  0.00  0.00     0.178 C 
HETATM   25  C   UNK N   1      24.044  18.816   4.018  0.00  0.00     0.042 C 
HETATM   26  C   UNK N   1      20.942  20.439   2.456  0.00  0.00     0.183 C 
HETATM   27  C   UNK N   1      20.141  19.147   2.368  0.00  0.00     0.204 C 
BRANCH  24  28
HETATM   28  O   UNK N   1      23.115  21.313   2.911  0.00  0.00    -0.390 OA
HETATM   29  H   UNK N   1      23.245  22.044   2.286  0.00  0.00     0.210 HD
ENDBRANCH  24  28
BRANCH  26  30
HETATM   30  O   UNK N   1      20.757  21.195   1.299  0.00  0.00    -0.390 OA
HETATM   31  H   UNK N   1      21.505  21.482   0.752  0.00  0.00     0.210 HD
ENDBRANCH  26  30
BRANCH  27  32
HETATM   32  O   UNK N   1      18.776  19.437   2.359  0.00  0.00    -0.388 OA
HETATM   33  H   UNK N   1      18.131  19.343   1.640  0.00  0.00     0.210 HD
ENDBRANCH  27  32
ENDBRANCH  20  21
ENDBRANCH  19  20
ENDBRANCH  15  19
BRANCH  16  34
HETATM   34  O   UNK N   1      18.665  14.075   2.122  0.00  0.00    -0.390 OA
HETATM   35  H   UNK N   1      18.876  13.489   1.379  0.00  0.00     0.210 HD
ENDBRANCH  16  34
BRANCH  17  36
HETATM   36  O   UNK N   1      18.244  12.011   4.029  0.00  0.00    -0.390 OA
HETATM   37  H   UNK N   1      17.726  11.817   3.232  0.00  0.00     0.210 HD
ENDBRANCH  17  36
BRANCH  18  38
HETATM   38  O   UNK N   1      20.504  11.513   5.691  0.00  0.00    -0.388 OA
HETATM   39  H   UNK N   1      20.180  10.990   6.442  0.00  0.00     0.210 HD
ENDBRANCH  18  38
ENDBRANCH  12  13
ENDBRANCH   3  12
BRANCH   4  40
HETATM   40  C   UNK N   1      23.747  13.198   7.226  0.00  0.00     0.004 A 
HETATM   41  C   UNK N   1      22.829  13.954   7.963  0.00  0.00     0.054 A 
HETATM   42  C   UNK N   1      22.270  13.462   9.155  0.00  0.00     0.103 A 
HETATM   43  C   UNK N   1      22.626  12.185   9.611  0.00  0.00     0.102 A 
HETATM   44  C   UNK N   1      23.536  11.420   8.868  0.00  0.00     0.040 A 
HETATM   45  C   UNK N   1      24.091  11.926   7.692  0.00  0.00     0.017 A 
BRANCH  42  46
HETATM   46  O   UNK N   1      21.436  14.223   9.906  0.00  0.00    -0.346 OA
BRANCH  46  47
HETATM   47  C   UNK N   1      20.120  14.472   9.576  0.00  0.00     0.201 C 
BRANCH  47  48
HETATM   48  C   UNK N   1      19.972  15.816   8.892  0.00  0.00     0.190 C 
BRANCH  48  49
HETATM   49  O   UNK N   1      19.523  15.617   7.588  0.00  0.00    -0.399 OA
HETATM   50  H   UNK N   1      19.259  16.323   6.976  0.00  0.00     0.209 HD
ENDBRANCH  48  49
ENDBRANCH  47  48
ENDBRANCH  46  47
ENDBRANCH  42  46
BRANCH  43  51
HETATM   51  O   UNK N   1      22.115  11.747  10.789  0.00  0.00    -0.346 OA
BRANCH  51  52
HETATM   52  C   UNK N   1      22.520  12.180  12.038  0.00  0.00     0.201 C 
BRANCH  52  53
HETATM   53  C   UNK N   1      23.863  11.616  12.460  0.00  0.00     0.190 C 
BRANCH  53  54
HETATM   54  O   UNK N   1      24.875  12.482  12.047  0.00  0.00    -0.399 OA
HETATM   55  H   UNK N   1      25.475  12.961  12.639  0.00  0.00     0.209 HD
ENDBRANCH  53  54
ENDBRANCH  52  53
ENDBRANCH  51  52
ENDBRANCH  43  51
ENDBRANCH   4  40
BRANCH   8  56
HETATM   56  O   UNK N   1      25.817  15.620   1.514  0.00  0.00    -0.360 OA
HETATM   57  H   UNK N   1      25.392  16.403   1.227  0.00  0.00     0.217 HD
ENDBRANCH   8  56
BRANCH  11  58
HETATM   58  O   UNK N   1      29.372  16.620   4.522  0.00  0.00    -0.349 OA
BRANCH  58  59
HETATM   59  C   UNK N   1      30.549  15.912   4.673  0.00  0.00     0.201 C 
BRANCH  59  60
HETATM   60  C   UNK N   1      31.329  15.845   3.371  0.00  0.00     0.190 C 
BRANCH  60  61
HETATM   61  O   UNK N   1      31.126  17.023   2.653  0.00  0.00    -0.399 OA
HETATM   62  H   UNK N   1      30.833  17.836   3.094  0.00  0.00     0.209 HD
ENDBRANCH  60  61
ENDBRANCH  59  60
ENDBRANCH  58  59
ENDBRANCH  11  58
TORSDOF 25
ENDMDL
MODEL 6
REMARK VINA RESULT:      -7.0      3.199      6.880
REMARK  25 active torsions:
REMARK  status: ('A' for Active; 'I' for Inactive)
REMARK    1  A    between atoms: C_25  and  O_2 
REMARK    2  A    between atoms: O_2  and  C_29 
REMARK    3  A    between atoms: C_21  and  O_4 
REMARK    4  A    between atoms: C_22  and  O_5 
REMARK    5  A    between atoms: C_28  and  O_6 
REMARK    6  A    between atoms: O_6  and  C_32 
REMARK    7  A    between atoms: C_23  and  O_7 
REMARK    8  A    between atoms: C_24  and  O_8 
REMARK    9  A    between atoms: C_26  and  O_9 
REMARK   10  A    between atoms: C_27  and  O_10 
REMARK   11  A    between atoms: O_13  and  C_38 
REMARK   12  A    between atoms: O_14  and  C_43 
REMARK   13  A    between atoms: O_14  and  C_47 
REMARK   14  A    between atoms: O_15  and  C_44 
REMARK   15  A    between atoms: O_15  and  C_48 
REMARK   16  A    between atoms: O_16  and  C_46 
REMARK   17  A    between atoms: O_16  and  C_49 
REMARK   18  A    between atoms: O_17  and  C_50 
REMARK   19  A    between atoms: O_18  and  C_51 
REMARK   20  A    between atoms: O_19  and  C_52 
REMARK   21  A    between atoms: C_20  and  C_29 
REMARK   22  A    between atoms: C_33  and  C_36 
REMARK   23  A    between atoms: C_47  and  C_50 
REMARK   24  A    between atoms: C_48  and  C_51 
REMARK   25  A    between atoms: C_49  and  C_52 
ROOT
HETATM    1  O   UNK N   1      24.382  15.360   6.214  0.00  0.00    -0.306 OA
HETATM    2  O   UNK N   1      24.176  14.066   2.474  0.00  0.00    -0.284 OA
HETATM    3  C   UNK N   1      23.355  13.956   4.588  0.00  0.00     0.157 A 
HETATM    4  C   UNK N   1      23.471  14.430   5.923  0.00  0.00     0.124 A 
HETATM    5  C   UNK N   1      24.223  14.483   3.616  0.00  0.00     0.223 A 
HETATM    6  C   UNK N   1      25.143  15.488   3.967  0.00  0.00     0.084 A 
HETATM    7  C   UNK N   1      25.189  15.904   5.312  0.00  0.00     0.096 A 
HETATM    8  C   UNK N   1      26.010  16.097   3.030  0.00  0.00     0.085 A 
HETATM    9  C   UNK N   1      26.079  16.909   5.707  0.00  0.00     0.075 A 
HETATM   10  C   UNK N   1      26.878  17.110   3.437  0.00  0.00     0.074 A 
HETATM   11  C   UNK N   1      26.920  17.524   4.776  0.00  0.00     0.074 A 
ENDROOT
BRANCH   3  12
HETATM   12  O   UNK N   1      22.455  12.993   4.252  0.00  0.00    -0.311 OA
BRANCH  12  13
HETATM   13  C   UNK N   1      21.099  13.122   4.532  0.00  0.00     0.298 C 
HETATM   14  O   UNK N   1      20.613  14.417   4.229  0.00  0.00    -0.348 OA
HETATM   15  C   UNK N   1      20.715  14.606   2.835  0.00  0.00     0.180 C 
HETATM   16  C   UNK N   1      19.690  13.742   2.098  0.00  0.00     0.180 C 
HETATM   17  C   UNK N   1      20.090  12.295   2.352  0.00  0.00     0.183 C 
HETATM   18  C   UNK N   1      20.220  12.043   3.851  0.00  0.00     0.205 C 
BRANCH  15  19
HETATM   19  C   UNK N   1      20.646  16.076   2.479  0.00  0.00     0.205 C 
BRANCH  19  20
HETATM   20  O   UNK N   1      19.944  16.727   3.496  0.00  0.00    -0.356 OA
BRANCH  20  21
HETATM   21  C   UNK N   1      20.442  18.028   3.523  0.00  0.00     0.291 C 
HETATM   22  O   UNK N   1      21.848  17.999   3.424  0.00  0.00    -0.351 OA
HETATM   23  C   UNK N   1      22.315  19.305   3.681  0.00  0.00     0.152 C 
HETATM   24  C   UNK N   1      21.909  20.235   2.530  0.00  0.00     0.178 C 
HETATM   25  C   UNK N   1      23.828  19.279   3.803  0.00  0.00     0.042 C 
HETATM   26  C   UNK N   1      20.387  20.233   2.411  0.00  0.00     0.183 C 
HETATM   27  C   UNK N   1      19.867  18.804   2.338  0.00  0.00     0.204 C 
BRANCH  24  28
HETATM   28  O   UNK N   1      22.351  21.536   2.782  0.00  0.00    -0.390 OA
HETATM   29  H   UNK N   1      22.938  22.056   2.211  0.00  0.00     0.210 HD
ENDBRANCH  24  28
BRANCH  26  30
HETATM   30  O   UNK N   1      19.994  20.942   1.277  0.00  0.00    -0.390 OA
HETATM   31  H   UNK N   1      19.930  20.518   0.406  0.00  0.00     0.210 HD
ENDBRANCH  26  30
BRANCH  27  32
HETATM   32  O   UNK N   1      18.473  18.804   2.395  0.00  0.00    -0.388 OA
HETATM   33  H   UNK N   1      17.828  18.624   1.693  0.00  0.00     0.210 HD
ENDBRANCH  27  32
ENDBRANCH  20  21
ENDBRANCH  19  20
ENDBRANCH  15  19
BRANCH  16  34
HETATM   34  O   UNK N   1      19.727  13.992   0.723  0.00  0.00    -0.390 OA
HETATM   35  H   UNK N   1      20.415  13.857   0.054  0.00  0.00     0.210 HD
ENDBRANCH  16  34
BRANCH  17  36
HETATM   36  O   UNK N   1      19.142  11.430   1.802  0.00  0.00    -0.390 OA
HETATM   37  H   UNK N   1      18.785  11.597   0.916  0.00  0.00     0.210 HD
ENDBRANCH  17  36
BRANCH  18  38
HETATM   38  O   UNK N   1      20.720  10.761   4.078  0.00  0.00    -0.388 OA
HETATM   39  H   UNK N   1      21.451  10.309   3.628  0.00  0.00     0.210 HD
ENDBRANCH  18  38
ENDBRANCH  12  13
ENDBRANCH   3  12
BRANCH   4  40
HETATM   40  C   UNK N   1      22.637  13.924   7.044  0.00  0.00     0.004 A 
HETATM   41  C   UNK N   1      21.571  14.709   7.497  0.00  0.00     0.054 A 
HETATM   42  C   UNK N   1      20.774  14.300   8.580  0.00  0.00     0.103 A 
HETATM   43  C   UNK N   1      21.041  13.078   9.213  0.00  0.00     0.102 A 
HETATM   44  C   UNK N   1      22.100  12.284   8.753  0.00  0.00     0.040 A 
HETATM   45  C   UNK N   1      22.889  12.707   7.683  0.00  0.00     0.017 A 
BRANCH  42  46
HETATM   46  O   UNK N   1      19.786  15.094   9.065  0.00  0.00    -0.346 OA
BRANCH  46  47
HETATM   47  C   UNK N   1      19.706  16.450   8.825  0.00  0.00     0.201 C 
BRANCH  47  48
HETATM   48  C   UNK N   1      18.302  16.967   9.064  0.00  0.00     0.190 C 
BRANCH  48  49
HETATM   49  O   UNK N   1      18.370  18.302   9.455  0.00  0.00    -0.399 OA
HETATM   50  H   UNK N   1      18.440  18.610  10.372  0.00  0.00     0.209 HD
ENDBRANCH  48  49
ENDBRANCH  47  48
ENDBRANCH  46  47
ENDBRANCH  42  46
BRANCH  43  51
HETATM   51  O   UNK N   1      20.293  12.723  10.289  0.00  0.00    -0.346 OA
BRANCH  51  52
HETATM   52  C   UNK N   1      20.787  12.129  11.436  0.00  0.00     0.201 C 
BRANCH  52  53
HETATM   53  C   UNK N   1      22.284  12.303  11.600  0.00  0.00     0.190 C 
BRANCH  53  54
HETATM   54  O   UNK N   1      22.717  11.550  12.691  0.00  0.00    -0.399 OA
HETATM   55  H   UNK N   1      23.540  11.701  13.182  0.00  0.00     0.209 HD
ENDBRANCH  53  54
ENDBRANCH  52  53
ENDBRANCH  51  52
ENDBRANCH  43  51
ENDBRANCH   4  40
BRANCH   8  56
HETATM   56  O   UNK N   1      26.005  15.734   1.737  0.00  0.00    -0.360 OA
HETATM   57  H   UNK N   1      26.801  15.481   1.315  0.00  0.00     0.217 HD
ENDBRANCH   8  56
BRANCH  11  58
HETATM   58  O   UNK N   1      27.739  18.526   5.185  0.00  0.00    -0.349 OA
BRANCH  58  59
HETATM   59  C   UNK N   1      27.622  19.842   4.778  0.00  0.00     0.201 C 
BRANCH  59  60
HETATM   60  C   UNK N   1      27.427  20.775   5.960  0.00  0.00     0.190 C 
BRANCH  60  61
HETATM   61  O   UNK N   1      26.321  20.356   6.698  0.00  0.00    -0.399 OA
HETATM   62  H   UNK N   1      26.359  19.563   7.256  0.00  0.00     0.209 HD
ENDBRANCH  60  61
ENDBRANCH  59  60
ENDBRANCH  58  59
ENDBRANCH  11  58
TORSDOF 25
ENDMDL
MODEL 7
REMARK VINA RESULT:      -7.0      2.722      6.423
REMARK  25 active torsions:
REMARK  status: ('A' for Active; 'I' for Inactive)
REMARK    1  A    between atoms: C_25  and  O_2 
REMARK    2  A    between atoms: O_2  and  C_29 
REMARK    3  A    between atoms: C_21  and  O_4 
REMARK    4  A    between atoms: C_22  and  O_5 
REMARK    5  A    between atoms: C_28  and  O_6 
REMARK    6  A    between atoms: O_6  and  C_32 
REMARK    7  A    between atoms: C_23  and  O_7 
REMARK    8  A    between atoms: C_24  and  O_8 
REMARK    9  A    between atoms: C_26  and  O_9 
REMARK   10  A    between atoms: C_27  and  O_10 
REMARK   11  A    between atoms: O_13  and  C_38 
REMARK   12  A    between atoms: O_14  and  C_43 
REMARK   13  A    between atoms: O_14  and  C_47 
REMARK   14  A    between atoms: O_15  and  C_44 
REMARK   15  A    between atoms: O_15  and  C_48 
REMARK   16  A    between atoms: O_16  and  C_46 
REMARK   17  A    between atoms: O_16  and  C_49 
REMARK   18  A    between atoms: O_17  and  C_50 
REMARK   19  A    between atoms: O_18  and  C_51 
REMARK   20  A    between atoms: O_19  and  C_52 
REMARK   21  A    between atoms: C_20  and  C_29 
REMARK   22  A    between atoms: C_33  and  C_36 
REMARK   23  A    between atoms: C_47  and  C_50 
REMARK   24  A    between atoms: C_48  and  C_51 
REMARK   25  A    between atoms: C_49  and  C_52 
ROOT
HETATM    1  O   UNK N   1      27.406  16.049   6.714  0.00  0.00    -0.306 OA
HETATM    2  O   UNK N   1      28.733  14.835   3.183  0.00  0.00    -0.284 OA
HETATM    3  C   UNK N   1      26.966  15.066   4.590  0.00  0.00     0.157 A 
HETATM    4  C   UNK N   1      26.530  15.495   5.873  0.00  0.00     0.124 A 
HETATM    5  C   UNK N   1      28.322  15.231   4.257  0.00  0.00     0.223 A 
HETATM    6  C   UNK N   1      29.198  15.853   5.166  0.00  0.00     0.084 A 
HETATM    7  C   UNK N   1      28.683  16.254   6.414  0.00  0.00     0.096 A 
HETATM    8  C   UNK N   1      30.561  16.097   4.876  0.00  0.00     0.085 A 
HETATM    9  C   UNK N   1      29.511  16.888   7.346  0.00  0.00     0.075 A 
HETATM   10  C   UNK N   1      31.368  16.746   5.809  0.00  0.00     0.074 A 
HETATM   11  C   UNK N   1      30.852  17.146   7.050  0.00  0.00     0.074 A 
ENDROOT
BRANCH   3  12
HETATM   12  O   UNK N   1      26.113  14.476   3.711  0.00  0.00    -0.311 OA
BRANCH  12  13
HETATM   13  C   UNK N   1      25.596  13.203   3.928  0.00  0.00     0.298 C 
HETATM   14  O   UNK N   1      24.191  13.222   4.110  0.00  0.00    -0.348 OA
HETATM   15  C   UNK N   1      23.602  13.651   2.902  0.00  0.00     0.180 C 
HETATM   16  C   UNK N   1      23.733  12.572   1.825  0.00  0.00     0.180 C 
HETATM   17  C   UNK N   1      25.221  12.435   1.536  0.00  0.00     0.183 C 
HETATM   18  C   UNK N   1      25.985  12.180   2.832  0.00  0.00     0.205 C 
BRANCH  15  19
HETATM   19  C   UNK N   1      22.181  14.123   3.128  0.00  0.00     0.205 C 
BRANCH  19  20
HETATM   20  O   UNK N   1      21.900  15.098   2.168  0.00  0.00    -0.356 OA
BRANCH  20  21
HETATM   21  C   UNK N   1      21.506  16.227   2.885  0.00  0.00     0.291 C 
HETATM   22  O   UNK N   1      22.500  17.222   2.784  0.00  0.00    -0.351 OA
HETATM   23  C   UNK N   1      22.167  18.243   3.698  0.00  0.00     0.152 C 
HETATM   24  C   UNK N   1      20.902  18.971   3.223  0.00  0.00     0.178 C 
HETATM   25  C   UNK N   1      23.318  19.230   3.785  0.00  0.00     0.042 C 
HETATM   26  C   UNK N   1      19.763  17.959   3.123  0.00  0.00     0.183 C 
HETATM   27  C   UNK N   1      20.198  16.756   2.299  0.00  0.00     0.204 C 
BRANCH  24  28
HETATM   28  O   UNK N   1      20.553  19.973   4.130  0.00  0.00    -0.390 OA
HETATM   29  H   UNK N   1      20.345  19.841   5.068  0.00  0.00     0.210 HD
ENDBRANCH  24  28
BRANCH  26  30
HETATM   30  O   UNK N   1      18.643  18.555   2.544  0.00  0.00    -0.390 OA
HETATM   31  H   UNK N   1      18.703  19.058   1.717  0.00  0.00     0.210 HD
ENDBRANCH  26  30
BRANCH  27  32
HETATM   32  O   UNK N   1      19.214  15.767   2.350  0.00  0.00    -0.388 OA
HETATM   33  H   UNK N   1      18.363  15.722   1.887  0.00  0.00     0.210 HD
ENDBRANCH  27  32
ENDBRANCH  20  21
ENDBRANCH  19  20
ENDBRANCH  15  19
BRANCH  16  34
HETATM   34  O   UNK N   1      23.072  12.955   0.655  0.00  0.00    -0.390 OA
HETATM   35  H   UNK N   1      23.300  12.860  -0.283  0.00  0.00     0.210 HD
ENDBRANCH  16  34
BRANCH  17  36
HETATM   36  O   UNK N   1      25.442  11.389   0.637  0.00  0.00    -0.390 OA
HETATM   37  H   UNK N   1      26.325  10.994   0.556  0.00  0.00     0.210 HD
ENDBRANCH  17  36
BRANCH  18  38
HETATM   38  O   UNK N   1      27.358  12.193   2.587  0.00  0.00    -0.388 OA
HETATM   39  H   UNK N   1      27.933  12.955   2.410  0.00  0.00     0.210 HD
ENDBRANCH  18  38
ENDBRANCH  12  13
ENDBRANCH   3  12
BRANCH   4  40
HETATM   40  C   UNK N   1      25.133  15.341   6.354  0.00  0.00     0.004 A 
HETATM   41  C   UNK N   1      24.842  14.311   7.256  0.00  0.00     0.054 A 
HETATM   42  C   UNK N   1      23.531  14.091   7.712  0.00  0.00     0.103 A 
HETATM   43  C   UNK N   1      22.495  14.925   7.269  0.00  0.00     0.102 A 
HETATM   44  C   UNK N   1      22.786  15.966   6.376  0.00  0.00     0.040 A 
HETATM   45  C   UNK N   1      24.091  16.165   5.923  0.00  0.00     0.017 A 
BRANCH  42  46
HETATM   46  O   UNK N   1      23.237  13.049   8.529  0.00  0.00    -0.346 OA
BRANCH  46  47
HETATM   47  C   UNK N   1      23.627  12.978   9.851  0.00  0.00     0.201 C 
BRANCH  47  48
HETATM   48  C   UNK N   1      22.506  12.455  10.726  0.00  0.00     0.190 C 
BRANCH  48  49
HETATM   49  O   UNK N   1      22.682  11.088  10.924  0.00  0.00    -0.399 OA
HETATM   50  H   UNK N   1      22.858  10.442  10.222  0.00  0.00     0.209 HD
ENDBRANCH  48  49
ENDBRANCH  47  48
ENDBRANCH  46  47
ENDBRANCH  42  46
BRANCH  43  51
HETATM   51  O   UNK N   1      21.228  14.668   7.681  0.00  0.00    -0.346 OA
BRANCH  51  52
HETATM   52  C   UNK N   1      20.645  15.189   8.822  0.00  0.00     0.201 C 
BRANCH  52  53
HETATM   53  C   UNK N   1      19.700  16.340   8.536  0.00  0.00     0.190 C 
BRANCH  53  54
HETATM   54  O   UNK N   1      20.380  17.545   8.704  0.00  0.00    -0.399 OA
HETATM   55  H   UNK N   1      20.580  18.176   7.995  0.00  0.00     0.209 HD
ENDBRANCH  53  54
ENDBRANCH  52  53
ENDBRANCH  51  52
ENDBRANCH  43  51
ENDBRANCH   4  40
BRANCH   8  56
HETATM   56  O   UNK N   1      31.099  15.733   3.701  0.00  0.00    -0.360 OA
HETATM   57  H   UNK N   1      31.838  16.193   3.357  0.00  0.00     0.217 HD
ENDBRANCH   8  56
BRANCH  11  58
HETATM   58  O   UNK N   1      31.616  17.802   7.960  0.00  0.00    -0.349 OA
BRANCH  58  59
HETATM   59  C   UNK N   1      32.868  17.386   8.370  0.00  0.00     0.201 C 
BRANCH  59  60
HETATM   60  C   UNK N   1      33.945  18.382   7.973  0.00  0.00     0.190 C 
BRANCH  60  61
HETATM   61  O   UNK N   1      34.579  17.934   6.815  0.00  0.00    -0.399 OA
HETATM   62  H   UNK N   1      35.343  17.337   6.858  0.00  0.00     0.209 HD
ENDBRANCH  60  61
ENDBRANCH  59  60
ENDBRANCH  58  59
ENDBRANCH  11  58
TORSDOF 25
ENDMDL
MODEL 8
REMARK VINA RESULT:      -7.0      3.384     10.178
REMARK  25 active torsions:
REMARK  status: ('A' for Active; 'I' for Inactive)
REMARK    1  A    between atoms: C_25  and  O_2 
REMARK    2  A    between atoms: O_2  and  C_29 
REMARK    3  A    between atoms: C_21  and  O_4 
REMARK    4  A    between atoms: C_22  and  O_5 
REMARK    5  A    between atoms: C_28  and  O_6 
REMARK    6  A    between atoms: O_6  and  C_32 
REMARK    7  A    between atoms: C_23  and  O_7 
REMARK    8  A    between atoms: C_24  and  O_8 
REMARK    9  A    between atoms: C_26  and  O_9 
REMARK   10  A    between atoms: C_27  and  O_10 
REMARK   11  A    between atoms: O_13  and  C_38 
REMARK   12  A    between atoms: O_14  and  C_43 
REMARK   13  A    between atoms: O_14  and  C_47 
REMARK   14  A    between atoms: O_15  and  C_44 
REMARK   15  A    between atoms: O_15  and  C_48 
REMARK   16  A    between atoms: O_16  and  C_46 
REMARK   17  A    between atoms: O_16  and  C_49 
REMARK   18  A    between atoms: O_17  and  C_50 
REMARK   19  A    between atoms: O_18  and  C_51 
REMARK   20  A    between atoms: O_19  and  C_52 
REMARK   21  A    between atoms: C_20  and  C_29 
REMARK   22  A    between atoms: C_33  and  C_36 
REMARK   23  A    between atoms: C_47  and  C_50 
REMARK   24  A    between atoms: C_48  and  C_51 
REMARK   25  A    between atoms: C_49  and  C_52 
ROOT
HETATM    1  O   UNK N   1      23.850  17.555   4.956  0.00  0.00    -0.306 OA
HETATM    2  O   UNK N   1      27.293  18.975   3.604  0.00  0.00    -0.284 OA
HETATM    3  C   UNK N   1      26.212  17.339   4.748  0.00  0.00     0.157 A 
HETATM    4  C   UNK N   1      24.961  16.870   5.233  0.00  0.00     0.124 A 
HETATM    5  C   UNK N   1      26.233  18.527   3.997  0.00  0.00     0.223 A 
HETATM    6  C   UNK N   1      25.029  19.193   3.702  0.00  0.00     0.084 A 
HETATM    7  C   UNK N   1      23.832  18.658   4.217  0.00  0.00     0.096 A 
HETATM    8  C   UNK N   1      24.972  20.363   2.909  0.00  0.00     0.085 A 
HETATM    9  C   UNK N   1      22.609  19.277   3.941  0.00  0.00     0.075 A 
HETATM   10  C   UNK N   1      23.742  20.958   2.629  0.00  0.00     0.074 A 
HETATM   11  C   UNK N   1      22.552  20.421   3.141  0.00  0.00     0.074 A 
ENDROOT
BRANCH   3  12
HETATM   12  O   UNK N   1      27.372  16.685   5.026  0.00  0.00    -0.311 OA
BRANCH  12  13
HETATM   13  C   UNK N   1      28.420  16.624   4.113  0.00  0.00     0.298 C 
HETATM   14  O   UNK N   1      29.678  16.818   4.732  0.00  0.00    -0.348 OA
HETATM   15  C   UNK N   1      29.902  15.738   5.612  0.00  0.00     0.180 C 
HETATM   16  C   UNK N   1      30.168  14.451   4.830  0.00  0.00     0.180 C 
HETATM   17  C   UNK N   1      28.877  14.125   4.091  0.00  0.00     0.183 C 
HETATM   18  C   UNK N   1      28.429  15.327   3.266  0.00  0.00     0.205 C 
BRANCH  15  19
HETATM   19  C   UNK N   1      30.977  16.075   6.622  0.00  0.00     0.205 C 
BRANCH  19  20
HETATM   20  O   UNK N   1      32.152  15.431   6.224  0.00  0.00    -0.356 OA
BRANCH  20  21
HETATM   21  C   UNK N   1      33.073  15.668   7.242  0.00  0.00     0.291 C 
HETATM   22  O   UNK N   1      33.271  17.057   7.388  0.00  0.00    -0.351 OA
HETATM   23  C   UNK N   1      34.365  17.236   8.260  0.00  0.00     0.152 C 
HETATM   24  C   UNK N   1      33.975  16.794   9.677  0.00  0.00     0.178 C 
HETATM   25  C   UNK N   1      34.756  18.704   8.275  0.00  0.00     0.042 C 
HETATM   26  C   UNK N   1      33.568  15.323   9.637  0.00  0.00     0.183 C 
HETATM   27  C   UNK N   1      32.528  15.095   8.549  0.00  0.00     0.204 C 
BRANCH  24  28
HETATM   28  O   UNK N   1      35.056  16.951  10.546  0.00  0.00    -0.390 OA
HETATM   29  H   UNK N   1      35.163  17.665  11.195  0.00  0.00     0.210 HD
ENDBRANCH  24  28
BRANCH  26  30
HETATM   30  O   UNK N   1      33.058  14.934  10.875  0.00  0.00    -0.390 OA
HETATM   31  H   UNK N   1      32.432  14.197  10.960  0.00  0.00     0.210 HD
ENDBRANCH  26  30
BRANCH  27  32
HETATM   32  O   UNK N   1      32.283  13.728   8.409  0.00  0.00    -0.388 OA
HETATM   33  H   UNK N   1      32.877  12.977   8.565  0.00  0.00     0.210 HD
ENDBRANCH  27  32
ENDBRANCH  20  21
ENDBRANCH  19  20
ENDBRANCH  15  19
BRANCH  16  34
HETATM   34  O   UNK N   1      30.478  13.399   5.696  0.00  0.00    -0.390 OA
HETATM   35  H   UNK N   1      31.066  12.633   5.606  0.00  0.00     0.210 HD
ENDBRANCH  16  34
BRANCH  17  36
HETATM   36  O   UNK N   1      29.064  13.017   3.261  0.00  0.00    -0.390 OA
HETATM   37  H   UNK N   1      29.951  12.794   2.939  0.00  0.00     0.210 HD
ENDBRANCH  17  36
BRANCH  18  38
HETATM   38  O   UNK N   1      27.178  15.078   2.701  0.00  0.00    -0.388 OA
HETATM   39  H   UNK N   1      26.645  14.269   2.746  0.00  0.00     0.210 HD
ENDBRANCH  18  38
ENDBRANCH  12  13
ENDBRANCH   3  12
BRANCH   4  40
HETATM   40  C   UNK N   1      24.815  15.650   6.068  0.00  0.00     0.004 A 
HETATM   41  C   UNK N   1      23.531  15.148   6.307  0.00  0.00     0.054 A 
HETATM   42  C   UNK N   1      23.329  14.021   7.123  0.00  0.00     0.103 A 
HETATM   43  C   UNK N   1      24.433  13.379   7.700  0.00  0.00     0.102 A 
HETATM   44  C   UNK N   1      25.722  13.872   7.452  0.00  0.00     0.040 A 
HETATM   45  C   UNK N   1      25.906  14.998   6.648  0.00  0.00     0.017 A 
BRANCH  42  46
HETATM   46  O   UNK N   1      22.080  13.578   7.413  0.00  0.00    -0.346 OA
BRANCH  46  47
HETATM   47  C   UNK N   1      21.033  14.408   7.756  0.00  0.00     0.201 C 
BRANCH  47  48
HETATM   48  C   UNK N   1      20.865  14.486   9.260  0.00  0.00     0.190 C 
BRANCH  48  49
HETATM   49  O   UNK N   1      19.551  14.163   9.589  0.00  0.00    -0.399 OA
HETATM   50  H   UNK N   1      19.280  13.677  10.384  0.00  0.00     0.209 HD
ENDBRANCH  48  49
ENDBRANCH  47  48
ENDBRANCH  46  47
ENDBRANCH  42  46
BRANCH  43  51
HETATM   51  O   UNK N   1      24.216  12.323   8.525  0.00  0.00    -0.346 OA
BRANCH  51  52
HETATM   52  C   UNK N   1      23.976  12.416   9.884  0.00  0.00     0.201 C 
BRANCH  52  53
HETATM   53  C   UNK N   1      22.869  11.496  10.359  0.00  0.00     0.190 C 
BRANCH  53  54
HETATM   54  O   UNK N   1      22.476  11.875  11.642  0.00  0.00    -0.399 OA
HETATM   55  H   UNK N   1      22.908  11.594  12.464  0.00  0.00     0.209 HD
ENDBRANCH  53  54
ENDBRANCH  52  53
ENDBRANCH  51  52
ENDBRANCH  43  51
ENDBRANCH   4  40
BRANCH   8  56
HETATM   56  O   UNK N   1      26.085  20.912   2.396  0.00  0.00    -0.360 OA
HETATM   57  H   UNK N   1      26.125  21.833   2.234  0.00  0.00     0.217 HD
ENDBRANCH   8  56
BRANCH  11  58
HETATM   58  O   UNK N   1      21.345  20.971   2.857  0.00  0.00    -0.349 OA
BRANCH  58  59
HETATM   59  C   UNK N   1      20.316  20.303   2.219  0.00  0.00     0.201 C 
BRANCH  59  60
HETATM   60  C   UNK N   1      20.713  19.880   0.815  0.00  0.00     0.190 C 
BRANCH  60  61
HETATM   61  O   UNK N   1      20.732  21.001  -0.014  0.00  0.00    -0.399 OA
HETATM   62  H   UNK N   1      20.715  20.912  -0.980  0.00  0.00     0.209 HD
ENDBRANCH  60  61
ENDBRANCH  59  60
ENDBRANCH  58  59
ENDBRANCH  11  58
TORSDOF 25
ENDMDL
MODEL 9
REMARK VINA RESULT:      -7.0      4.087      9.527
REMARK  25 active torsions:
REMARK  status: ('A' for Active; 'I' for Inactive)
REMARK    1  A    between atoms: C_25  and  O_2 
REMARK    2  A    between atoms: O_2  and  C_29 
REMARK    3  A    between atoms: C_21  and  O_4 
REMARK    4  A    between atoms: C_22  and  O_5 
REMARK    5  A    between atoms: C_28  and  O_6 
REMARK    6  A    between atoms: O_6  and  C_32 
REMARK    7  A    between atoms: C_23  and  O_7 
REMARK    8  A    between atoms: C_24  and  O_8 
REMARK    9  A    between atoms: C_26  and  O_9 
REMARK   10  A    between atoms: C_27  and  O_10 
REMARK   11  A    between atoms: O_13  and  C_38 
REMARK   12  A    between atoms: O_14  and  C_43 
REMARK   13  A    between atoms: O_14  and  C_47 
REMARK   14  A    between atoms: O_15  and  C_44 
REMARK   15  A    between atoms: O_15  and  C_48 
REMARK   16  A    between atoms: O_16  and  C_46 
REMARK   17  A    between atoms: O_16  and  C_49 
REMARK   18  A    between atoms: O_17  and  C_50 
REMARK   19  A    between atoms: O_18  and  C_51 
REMARK   20  A    between atoms: O_19  and  C_52 
REMARK   21  A    between atoms: C_20  and  C_29 
REMARK   22  A    between atoms: C_33  and  C_36 
REMARK   23  A    between atoms: C_47  and  C_50 
REMARK   24  A    between atoms: C_48  and  C_51 
REMARK   25  A    between atoms: C_49  and  C_52 
ROOT
HETATM    1  O   UNK N   1      25.887  17.570   4.938  0.00  0.00    -0.306 OA
HETATM    2  O   UNK N   1      24.640  14.008   3.732  0.00  0.00    -0.284 OA
HETATM    3  C   UNK N   1      26.325  15.254   4.604  0.00  0.00     0.157 A 
HETATM    4  C   UNK N   1      26.744  16.550   5.009  0.00  0.00     0.124 A 
HETATM    5  C   UNK N   1      25.013  15.096   4.126  0.00  0.00     0.223 A 
HETATM    6  C   UNK N   1      24.137  16.197   4.104  0.00  0.00     0.084 A 
HETATM    7  C   UNK N   1      24.631  17.446   4.529  0.00  0.00     0.096 A 
HETATM    8  C   UNK N   1      22.789  16.099   3.685  0.00  0.00     0.085 A 
HETATM    9  C   UNK N   1      23.795  18.567   4.537  0.00  0.00     0.075 A 
HETATM   10  C   UNK N   1      21.964  17.223   3.716  0.00  0.00     0.074 A 
HETATM   11  C   UNK N   1      22.458  18.464   4.142  0.00  0.00     0.074 A 
ENDROOT
BRANCH   3  12
HETATM   12  O   UNK N   1      27.173  14.190   4.638  0.00  0.00    -0.311 OA
BRANCH  12  13
HETATM   13  C   UNK N   1      27.826  13.732   3.499  0.00  0.00     0.298 C 
HETATM   14  O   UNK N   1      29.209  14.036   3.518  0.00  0.00    -0.348 OA
HETATM   15  C   UNK N   1      29.797  13.322   4.583  0.00  0.00     0.180 C 
HETATM   16  C   UNK N   1      29.841  11.826   4.269  0.00  0.00     0.180 C 
HETATM   17  C   UNK N   1      28.394  11.359   4.206  0.00  0.00     0.183 C 
HETATM   18  C   UNK N   1      27.608  12.224   3.224  0.00  0.00     0.205 C 
BRANCH  15  19
HETATM   19  C   UNK N   1      31.141  13.912   4.955  0.00  0.00     0.205 C 
BRANCH  19  20
HETATM   20  O   UNK N   1      31.279  13.814   6.342  0.00  0.00    -0.356 OA
BRANCH  20  21
HETATM   21  C   UNK N   1      32.624  13.525   6.565  0.00  0.00     0.291 C 
HETATM   22  O   UNK N   1      33.391  13.956   5.463  0.00  0.00    -0.351 OA
HETATM   23  C   UNK N   1      34.694  13.445   5.632  0.00  0.00     0.152 C 
HETATM   24  C   UNK N   1      35.374  14.142   6.818  0.00  0.00     0.178 C 
HETATM   25  C   UNK N   1      35.496  13.695   4.367  0.00  0.00     0.042 C 
HETATM   26  C   UNK N   1      34.543  13.894   8.074  0.00  0.00     0.183 C 
HETATM   27  C   UNK N   1      33.087  14.259   7.822  0.00  0.00     0.204 C 
BRANCH  24  28
HETATM   28  O   UNK N   1      36.660  13.631   7.005  0.00  0.00    -0.390 OA
HETATM   29  H   UNK N   1      36.881  12.810   7.473  0.00  0.00     0.210 HD
ENDBRANCH  24  28
BRANCH  26  30
HETATM   30  O   UNK N   1      35.046  14.645   9.137  0.00  0.00    -0.390 OA
HETATM   31  H   UNK N   1      35.769  14.317   9.695  0.00  0.00     0.210 HD
ENDBRANCH  26  30
BRANCH  27  32
HETATM   32  O   UNK N   1      32.308  13.878   8.916  0.00  0.00    -0.388 OA
HETATM   33  H   UNK N   1      31.350  13.730   8.968  0.00  0.00     0.210 HD
ENDBRANCH  27  32
ENDBRANCH  20  21
ENDBRANCH  19  20
ENDBRANCH  15  19
BRANCH  16  34
HETATM   34  O   UNK N   1      30.504  11.127   5.282  0.00  0.00    -0.390 OA
HETATM   35  H   UNK N   1      30.713  10.186   5.395  0.00  0.00     0.210 HD
ENDBRANCH  16  34
BRANCH  17  36
HETATM   36  O   UNK N   1      28.337  10.020   3.815  0.00  0.00    -0.390 OA
HETATM   37  H   UNK N   1      29.039   9.643   3.263  0.00  0.00     0.210 HD
ENDBRANCH  17  36
BRANCH  18  38
HETATM   38  O   UNK N   1      26.256  11.887   3.269  0.00  0.00    -0.388 OA
HETATM   39  H   UNK N   1      25.850  11.006   3.229  0.00  0.00     0.210 HD
ENDBRANCH  18  38
ENDBRANCH  12  13
ENDBRANCH   3  12
BRANCH   4  40
HETATM   40  C   UNK N   1      28.116  16.849   5.496  0.00  0.00     0.004 A 
HETATM   41  C   UNK N   1      29.100  17.195   4.564  0.00  0.00     0.054 A 
HETATM   42  C   UNK N   1      30.424  17.449   4.962  0.00  0.00     0.103 A 
HETATM   43  C   UNK N   1      30.766  17.366   6.319  0.00  0.00     0.102 A 
HETATM   44  C   UNK N   1      29.779  17.032   7.257  0.00  0.00     0.040 A 
HETATM   45  C   UNK N   1      28.471  16.774   6.845  0.00  0.00     0.017 A 
BRANCH  42  46
HETATM   46  O   UNK N   1      31.394  17.714   4.051  0.00  0.00    -0.346 OA
BRANCH  46  47
HETATM   47  C   UNK N   1      31.760  16.841   3.047  0.00  0.00     0.201 C 
BRANCH  47  48
HETATM   48  C   UNK N   1      33.238  16.517   3.114  0.00  0.00     0.190 C 
BRANCH  48  49
HETATM   49  O   UNK N   1      33.652  16.551   4.444  0.00  0.00    -0.399 OA
HETATM   50  H   UNK N   1      33.085  16.782   5.197  0.00  0.00     0.209 HD
ENDBRANCH  48  49
ENDBRANCH  47  48
ENDBRANCH  46  47
ENDBRANCH  42  46
BRANCH  43  51
HETATM   51  O   UNK N   1      32.060  17.565   6.680  0.00  0.00    -0.346 OA
BRANCH  51  52
HETATM   52  C   UNK N   1      32.496  17.781   7.974  0.00  0.00     0.201 C 
BRANCH  52  53
HETATM   53  C   UNK N   1      34.006  17.853   8.090  0.00  0.00     0.190 C 
BRANCH  53  54
HETATM   54  O   UNK N   1      34.562  17.936   6.813  0.00  0.00    -0.399 OA
HETATM   55  H   UNK N   1      34.056  17.965   5.986  0.00  0.00     0.209 HD
ENDBRANCH  53  54
ENDBRANCH  52  53
ENDBRANCH  51  52
ENDBRANCH  43  51
ENDBRANCH   4  40
BRANCH   8  56
HETATM   56  O   UNK N   1      22.272  14.931   3.270  0.00  0.00    -0.360 OA
HETATM   57  H   UNK N   1      21.397  14.693   3.503  0.00  0.00     0.217 HD
ENDBRANCH   8  56
BRANCH  11  58
HETATM   58  O   UNK N   1      21.663  19.562   4.204  0.00  0.00    -0.349 OA
BRANCH  58  59
HETATM   59  C   UNK N   1      20.626  19.823   3.328  0.00  0.00     0.201 C 
BRANCH  59  60
HETATM   60  C   UNK N   1      21.069  20.732   2.195  0.00  0.00     0.190 C 
BRANCH  60  61
HETATM   61  O   UNK N   1      21.953  21.688   2.692  0.00  0.00    -0.399 OA
HETATM   62  H   UNK N   1      21.917  22.611   2.393  0.00  0.00     0.209 HD
ENDBRANCH  60  61
ENDBRANCH  59  60
ENDBRANCH  58  59
ENDBRANCH  11  58
TORSDOF 25
ENDMDL
