MODEL 1
REMARK VINA RESULT:      -5.1      0.000      0.000
REMARK  6 active torsions:
REMARK  status: ('A' for Active; 'I' for Inactive)
REMARK    1  A    between atoms: C_1  and  O_11 
REMARK    2  A    between atoms: C_2  and  O_9 
REMARK    3  A    between atoms: C_3  and  O_10 
REMARK    4  A    between atoms: C_4  and  O_12 
REMARK    5  A    between atoms: C_5  and  O_7 
REMARK    6  A    between atoms: C_6  and  O_8 
ROOT
HETATM    1  C   UNK N   1      20.983  20.079   2.601  0.00  0.00     0.180 A 
HETATM    2  C   UNK N   1      20.746  19.511   1.207  0.00  0.00     0.180 A 
HETATM    3  C   UNK N   1      20.325  18.059   1.038  0.00  0.00     0.180 A 
HETATM    4  C   UNK N   1      20.140  17.171   2.262  0.00  0.00     0.180 A 
HETATM    5  C   UNK N   1      20.377  17.739   3.656  0.00  0.00     0.180 A 
HETATM    6  C   UNK N   1      20.798  19.192   3.825  0.00  0.00     0.180 A 
ENDROOT
BRANCH   1   7
HETATM    7  O   UNK N   1      21.368  21.411   2.756  0.00  0.00    -0.390 OA
HETATM    8  H   UNK N   1      21.389  21.810   3.639  0.00  0.00     0.210 HD
ENDBRANCH   1   7
BRANCH   2   9
HETATM    9  O   UNK N   1      20.915  20.324   0.086  0.00  0.00    -0.390 OA
HETATM   10  H   UNK N   1      21.130  19.928  -0.773  0.00  0.00     0.210 HD
ENDBRANCH   2   9
BRANCH   6  11
HETATM   11  O   UNK N   1      21.015  19.712   5.101  0.00  0.00    -0.390 OA
HETATM   12  H   UNK N   1      20.840  19.166   5.884  0.00  0.00     0.210 HD
ENDBRANCH   6  11
BRANCH   3  13
HETATM   13  O   UNK N   1      20.108  17.539  -0.238  0.00  0.00    -0.390 OA
HETATM   14  H   UNK N   1      20.515  17.962  -1.011  0.00  0.00     0.210 HD
ENDBRANCH   3  13
BRANCH   5  15
HETATM   15  O   UNK N   1      20.208  16.926   4.777  0.00  0.00    -0.390 OA
HETATM   16  H   UNK N   1      20.111  17.325   5.655  0.00  0.00     0.210 HD
ENDBRANCH   5  15
BRANCH   4  17
HETATM   17  O   UNK N   1      19.755  15.840   2.107  0.00  0.00    -0.390 OA
HETATM   18  H   UNK N   1      19.548  15.301   2.887  0.00  0.00     0.210 HD
ENDBRANCH   4  17
TORSDOF 6
ENDMDL
MODEL 2
REMARK VINA RESULT:      -5.1      0.059      3.292
REMARK  6 active torsions:
REMARK  status: ('A' for Active; 'I' for Inactive)
REMARK    1  A    between atoms: C_1  and  O_11 
REMARK    2  A    between atoms: C_2  and  O_9 
REMARK    3  A    between atoms: C_3  and  O_10 
REMARK    4  A    between atoms: C_4  and  O_12 
REMARK    5  A    between atoms: C_5  and  O_7 
REMARK    6  A    between atoms: C_6  and  O_8 
ROOT
HETATM    1  C   UNK N   1      20.321  18.084   0.988  0.00  0.00     0.180 A 
HETATM    2  C   UNK N   1      20.729  19.542   1.159  0.00  0.00     0.180 A 
HETATM    3  C   UNK N   1      20.960  20.109   2.552  0.00  0.00     0.180 A 
HETATM    4  C   UNK N   1      20.784  19.220   3.776  0.00  0.00     0.180 A 
HETATM    5  C   UNK N   1      20.377  17.762   3.605  0.00  0.00     0.180 A 
HETATM    6  C   UNK N   1      20.146  17.195   2.212  0.00  0.00     0.180 A 
ENDROOT
BRANCH   1   7
HETATM    7  O   UNK N   1      20.109  17.564  -0.289  0.00  0.00    -0.390 OA
HETATM    8  H   UNK N   1      19.208  17.489  -0.639  0.00  0.00     0.210 HD
ENDBRANCH   1   7
BRANCH   2   9
HETATM    9  O   UNK N   1      20.890  20.357   0.038  0.00  0.00    -0.390 OA
HETATM   10  H   UNK N   1      20.113  20.735  -0.402  0.00  0.00     0.210 HD
ENDBRANCH   2   9
BRANCH   6  11
HETATM   11  O   UNK N   1      19.773  15.859   2.055  0.00  0.00    -0.390 OA
HETATM   12  H   UNK N   1      18.834  15.617   2.033  0.00  0.00     0.210 HD
ENDBRANCH   6  11
BRANCH   3  13
HETATM   13  O   UNK N   1      21.333  21.444   2.709  0.00  0.00    -0.390 OA
HETATM   14  H   UNK N   1      20.659  22.119   2.888  0.00  0.00     0.210 HD
ENDBRANCH   3  13
BRANCH   5  15
HETATM   15  O   UNK N   1      20.216  16.947   4.726  0.00  0.00    -0.390 OA
HETATM   16  H   UNK N   1      20.535  17.244   5.592  0.00  0.00     0.210 HD
ENDBRANCH   5  15
BRANCH   4  17
HETATM   17  O   UNK N   1      20.996  19.740   5.053  0.00  0.00    -0.390 OA
HETATM   18  H   UNK N   1      21.727  19.406   5.597  0.00  0.00     0.210 HD
ENDBRANCH   4  17
TORSDOF 6
ENDMDL
MODEL 3
REMARK VINA RESULT:      -5.1      0.096      3.292
REMARK  6 active torsions:
REMARK  status: ('A' for Active; 'I' for Inactive)
REMARK    1  A    between atoms: C_1  and  O_11 
REMARK    2  A    between atoms: C_2  and  O_9 
REMARK    3  A    between atoms: C_3  and  O_10 
REMARK    4  A    between atoms: C_4  and  O_12 
REMARK    5  A    between atoms: C_5  and  O_7 
REMARK    6  A    between atoms: C_6  and  O_8 
ROOT
HETATM    1  C   UNK N   1      20.406  17.783   3.598  0.00  0.00     0.180 A 
HETATM    2  C   UNK N   1      20.168  17.219   2.203  0.00  0.00     0.180 A 
HETATM    3  C   UNK N   1      20.311  18.118   0.983  0.00  0.00     0.180 A 
HETATM    4  C   UNK N   1      20.692  19.583   1.157  0.00  0.00     0.180 A 
HETATM    5  C   UNK N   1      20.930  20.147   2.552  0.00  0.00     0.180 A 
HETATM    6  C   UNK N   1      20.787  19.248   3.771  0.00  0.00     0.180 A 
ENDROOT
BRANCH   1   7
HETATM    7  O   UNK N   1      20.276  16.959   4.716  0.00  0.00    -0.390 OA
HETATM    8  H   UNK N   1      19.405  16.825   5.120  0.00  0.00     0.210 HD
ENDBRANCH   1   7
BRANCH   2   9
HETATM    9  O   UNK N   1      19.819  15.877   2.044  0.00  0.00    -0.390 OA
HETATM   10  H   UNK N   1      20.156  15.375   1.287  0.00  0.00     0.210 HD
ENDBRANCH   2   9
BRANCH   6  11
HETATM   11  O   UNK N   1      21.006  19.765   5.049  0.00  0.00    -0.390 OA
HETATM   12  H   UNK N   1      20.346  20.347   5.456  0.00  0.00     0.210 HD
ENDBRANCH   6  11
BRANCH   3  13
HETATM   13  O   UNK N   1      20.092  17.601  -0.294  0.00  0.00    -0.390 OA
HETATM   14  H   UNK N   1      19.192  17.559  -0.653  0.00  0.00     0.210 HD
ENDBRANCH   3  13
BRANCH   5  15
HETATM   15  O   UNK N   1      21.279  21.488   2.710  0.00  0.00    -0.390 OA
HETATM   16  H   UNK N   1      20.860  22.020   3.405  0.00  0.00     0.210 HD
ENDBRANCH   5  15
BRANCH   4  17
HETATM   17  O   UNK N   1      20.822  20.407   0.039  0.00  0.00    -0.390 OA
HETATM   18  H   UNK N   1      20.139  21.065  -0.161  0.00  0.00     0.210 HD
ENDBRANCH   4  17
TORSDOF 6
ENDMDL
MODEL 4
REMARK VINA RESULT:      -5.1      0.101      4.029
REMARK  6 active torsions:
REMARK  status: ('A' for Active; 'I' for Inactive)
REMARK    1  A    between atoms: C_1  and  O_11 
REMARK    2  A    between atoms: C_2  and  O_9 
REMARK    3  A    between atoms: C_3  and  O_10 
REMARK    4  A    between atoms: C_4  and  O_12 
REMARK    5  A    between atoms: C_5  and  O_7 
REMARK    6  A    between atoms: C_6  and  O_8 
ROOT
HETATM    1  C   UNK N   1      20.310  18.124   0.979  0.00  0.00     0.180 A 
HETATM    2  C   UNK N   1      20.167  17.223   2.199  0.00  0.00     0.180 A 
HETATM    3  C   UNK N   1      20.404  17.786   3.593  0.00  0.00     0.180 A 
HETATM    4  C   UNK N   1      20.785  19.250   3.769  0.00  0.00     0.180 A 
HETATM    5  C   UNK N   1      20.929  20.151   2.549  0.00  0.00     0.180 A 
HETATM    6  C   UNK N   1      20.691  19.589   1.155  0.00  0.00     0.180 A 
ENDROOT
BRANCH   1   7
HETATM    7  O   UNK N   1      20.093  17.609  -0.299  0.00  0.00    -0.390 OA
HETATM    8  H   UNK N   1      20.791  17.103  -0.743  0.00  0.00     0.210 HD
ENDBRANCH   1   7
BRANCH   2   9
HETATM    9  O   UNK N   1      19.818  15.882   2.037  0.00  0.00    -0.390 OA
HETATM   10  H   UNK N   1      19.356  15.412   2.748  0.00  0.00     0.210 HD
ENDBRANCH   2   9
BRANCH   6  11
HETATM   11  O   UNK N   1      20.823  20.414   0.038  0.00  0.00    -0.390 OA
HETATM   12  H   UNK N   1      21.434  20.171  -0.676  0.00  0.00     0.210 HD
ENDBRANCH   6  11
BRANCH   3  13
HETATM   13  O   UNK N   1      20.273  16.961   4.710  0.00  0.00    -0.390 OA
HETATM   14  H   UNK N   1      20.619  17.248   5.569  0.00  0.00     0.210 HD
ENDBRANCH   3  13
BRANCH   5  15
HETATM   15  O   UNK N   1      21.278  21.492   2.710  0.00  0.00    -0.390 OA
HETATM   16  H   UNK N   1      20.721  22.188   2.328  0.00  0.00     0.210 HD
ENDBRANCH   5  15
BRANCH   4  17
HETATM   17  O   UNK N   1      21.002  19.766   5.047  0.00  0.00    -0.390 OA
HETATM   18  H   UNK N   1      21.896  20.026   5.319  0.00  0.00     0.210 HD
ENDBRANCH   4  17
TORSDOF 6
ENDMDL
MODEL 5
REMARK VINA RESULT:      -5.1      0.097      3.293
REMARK  6 active torsions:
REMARK  status: ('A' for Active; 'I' for Inactive)
REMARK    1  A    between atoms: C_1  and  O_11 
REMARK    2  A    between atoms: C_2  and  O_9 
REMARK    3  A    between atoms: C_3  and  O_10 
REMARK    4  A    between atoms: C_4  and  O_12 
REMARK    5  A    between atoms: C_5  and  O_7 
REMARK    6  A    between atoms: C_6  and  O_8 
ROOT
HETATM    1  C   UNK N   1      20.928  20.150   2.550  0.00  0.00     0.180 A 
HETATM    2  C   UNK N   1      20.783  19.251   3.771  0.00  0.00     0.180 A 
HETATM    3  C   UNK N   1      20.401  17.788   3.599  0.00  0.00     0.180 A 
HETATM    4  C   UNK N   1      20.163  17.221   2.205  0.00  0.00     0.180 A 
HETATM    5  C   UNK N   1      20.309  18.120   0.983  0.00  0.00     0.180 A 
HETATM    6  C   UNK N   1      20.691  19.583   1.156  0.00  0.00     0.180 A 
ENDROOT
BRANCH   1   7
HETATM    7  O   UNK N   1      21.278  21.491   2.709  0.00  0.00    -0.390 OA
HETATM    8  H   UNK N   1      21.916  21.900   2.104  0.00  0.00     0.210 HD
ENDBRANCH   1   7
BRANCH   2   9
HETATM    9  O   UNK N   1      21.000  19.769   5.048  0.00  0.00    -0.390 OA
HETATM   10  H   UNK N   1      20.425  19.506   5.783  0.00  0.00     0.210 HD
ENDBRANCH   2   9
BRANCH   6  11
HETATM   11  O   UNK N   1      20.824  20.407   0.038  0.00  0.00    -0.390 OA
HETATM   12  H   UNK N   1      21.695  20.758  -0.206  0.00  0.00     0.210 HD
ENDBRANCH   6  11
BRANCH   3  13
HETATM   13  O   UNK N   1      20.267  16.964   4.717  0.00  0.00    -0.390 OA
HETATM   14  H   UNK N   1      20.927  17.000   5.427  0.00  0.00     0.210 HD
ENDBRANCH   3  13
BRANCH   5  15
HETATM   15  O   UNK N   1      20.092  17.602  -0.293  0.00  0.00    -0.390 OA
HETATM   16  H   UNK N   1      20.647  17.889  -1.035  0.00  0.00     0.210 HD
ENDBRANCH   5  15
BRANCH   4  17
HETATM   17  O   UNK N   1      19.813  15.880   2.046  0.00  0.00    -0.390 OA
HETATM   18  H   UNK N   1      19.618  15.335   2.824  0.00  0.00     0.210 HD
ENDBRANCH   4  17
TORSDOF 6
ENDMDL
MODEL 6
REMARK VINA RESULT:      -5.1      0.097      2.327
REMARK  6 active torsions:
REMARK  status: ('A' for Active; 'I' for Inactive)
REMARK    1  A    between atoms: C_1  and  O_11 
REMARK    2  A    between atoms: C_2  and  O_9 
REMARK    3  A    between atoms: C_3  and  O_10 
REMARK    4  A    between atoms: C_4  and  O_12 
REMARK    5  A    between atoms: C_5  and  O_7 
REMARK    6  A    between atoms: C_6  and  O_8 
ROOT
HETATM    1  C   UNK N   1      20.695  19.584   1.153  0.00  0.00     0.180 A 
HETATM    2  C   UNK N   1      20.311  18.120   0.980  0.00  0.00     0.180 A 
HETATM    3  C   UNK N   1      20.164  17.222   2.201  0.00  0.00     0.180 A 
HETATM    4  C   UNK N   1      20.400  17.788   3.595  0.00  0.00     0.180 A 
HETATM    5  C   UNK N   1      20.785  19.251   3.768  0.00  0.00     0.180 A 
HETATM    6  C   UNK N   1      20.932  20.149   2.548  0.00  0.00     0.180 A 
ENDROOT
BRANCH   1   7
HETATM    7  O   UNK N   1      20.831  20.406   0.034  0.00  0.00    -0.390 OA
HETATM    8  H   UNK N   1      20.055  20.617  -0.509  0.00  0.00     0.210 HD
ENDBRANCH   1   7
BRANCH   2   9
HETATM    9  O   UNK N   1      20.095  17.602  -0.297  0.00  0.00    -0.390 OA
HETATM   10  H   UNK N   1      19.827  16.677  -0.407  0.00  0.00     0.210 HD
ENDBRANCH   2   9
BRANCH   6  11
HETATM   11  O   UNK N   1      21.284  21.490   2.706  0.00  0.00    -0.390 OA
HETATM   12  H   UNK N   1      21.753  21.955   1.996  0.00  0.00     0.210 HD
ENDBRANCH   6  11
BRANCH   3  13
HETATM   13  O   UNK N   1      19.812  15.882   2.043  0.00  0.00    -0.390 OA
HETATM   14  H   UNK N   1      20.426  15.183   2.318  0.00  0.00     0.210 HD
ENDBRANCH   3  13
BRANCH   5  15
HETATM   15  O   UNK N   1      21.001  19.769   5.045  0.00  0.00    -0.390 OA
HETATM   16  H   UNK N   1      20.674  19.293   5.824  0.00  0.00     0.210 HD
ENDBRANCH   5  15
BRANCH   4  17
HETATM   17  O   UNK N   1      20.265  16.965   4.714  0.00  0.00    -0.390 OA
HETATM   18  H   UNK N   1      20.865  16.213   4.838  0.00  0.00     0.210 HD
ENDBRANCH   4  17
TORSDOF 6
ENDMDL
MODEL 7
REMARK VINA RESULT:      -5.0      0.180      4.653
REMARK  6 active torsions:
REMARK  status: ('A' for Active; 'I' for Inactive)
REMARK    1  A    between atoms: C_1  and  O_11 
REMARK    2  A    between atoms: C_2  and  O_9 
REMARK    3  A    between atoms: C_3  and  O_10 
REMARK    4  A    between atoms: C_4  and  O_12 
REMARK    5  A    between atoms: C_5  and  O_7 
REMARK    6  A    between atoms: C_6  and  O_8 
ROOT
HETATM    1  C   UNK N   1      20.322  17.179   2.198  0.00  0.00     0.180 A 
HETATM    2  C   UNK N   1      20.555  17.746   3.593  0.00  0.00     0.180 A 
HETATM    3  C   UNK N   1      20.851  19.227   3.773  0.00  0.00     0.180 A 
HETATM    4  C   UNK N   1      20.916  20.145   2.558  0.00  0.00     0.180 A 
HETATM    5  C   UNK N   1      20.684  19.578   1.163  0.00  0.00     0.180 A 
HETATM    6  C   UNK N   1      20.387  18.096   0.983  0.00  0.00     0.180 A 
ENDROOT
BRANCH   1   7
HETATM    7  O   UNK N   1      20.051  15.821   2.033  0.00  0.00    -0.390 OA
HETATM    8  H   UNK N   1      19.726  15.297   2.781  0.00  0.00     0.210 HD
ENDBRANCH   1   7
BRANCH   2   9
HETATM    9  O   UNK N   1      20.495  16.905   4.705  0.00  0.00    -0.390 OA
HETATM   10  H   UNK N   1      20.272  15.968   4.594  0.00  0.00     0.210 HD
ENDBRANCH   2   9
BRANCH   6  11
HETATM   11  O   UNK N   1      20.174  17.577  -0.294  0.00  0.00    -0.390 OA
HETATM   12  H   UNK N   1      20.800  17.774  -1.008  0.00  0.00     0.210 HD
ENDBRANCH   6  11
BRANCH   3  13
HETATM   13  O   UNK N   1      21.064  19.747   5.050  0.00  0.00    -0.390 OA
HETATM   14  H   UNK N   1      21.525  20.593   5.159  0.00  0.00     0.210 HD
ENDBRANCH   3  13
BRANCH   5  15
HETATM   15  O   UNK N   1      20.743  20.418   0.051  0.00  0.00    -0.390 OA
HETATM   16  H   UNK N   1      20.601  20.058  -0.837  0.00  0.00     0.210 HD
ENDBRANCH   5  15
BRANCH   4  17
HETATM   17  O   UNK N   1      21.188  21.503   2.723  0.00  0.00    -0.390 OA
HETATM   18  H   UNK N   1      21.942  21.906   2.265  0.00  0.00     0.210 HD
ENDBRANCH   4  17
TORSDOF 6
ENDMDL
MODEL 8
REMARK VINA RESULT:      -5.0      0.177      2.336
REMARK  6 active torsions:
REMARK  status: ('A' for Active; 'I' for Inactive)
REMARK    1  A    between atoms: C_1  and  O_11 
REMARK    2  A    between atoms: C_2  and  O_9 
REMARK    3  A    between atoms: C_3  and  O_10 
REMARK    4  A    between atoms: C_4  and  O_12 
REMARK    5  A    between atoms: C_5  and  O_7 
REMARK    6  A    between atoms: C_6  and  O_8 
ROOT
HETATM    1  C   UNK N   1      20.859  19.223   3.771  0.00  0.00     0.180 A 
HETATM    2  C   UNK N   1      20.924  20.141   2.557  0.00  0.00     0.180 A 
HETATM    3  C   UNK N   1      20.688  19.577   1.163  0.00  0.00     0.180 A 
HETATM    4  C   UNK N   1      20.386  18.095   0.981  0.00  0.00     0.180 A 
HETATM    5  C   UNK N   1      20.321  17.177   2.196  0.00  0.00     0.180 A 
HETATM    6  C   UNK N   1      20.557  17.741   3.590  0.00  0.00     0.180 A 
ENDROOT
BRANCH   1   7
HETATM    7  O   UNK N   1      21.075  19.740   5.049  0.00  0.00    -0.390 OA
HETATM    8  H   UNK N   1      20.962  20.689   5.213  0.00  0.00     0.210 HD
ENDBRANCH   1   7
BRANCH   2   9
HETATM    9  O   UNK N   1      21.201  21.498   2.723  0.00  0.00    -0.390 OA
HETATM   10  H   UNK N   1      21.317  22.068   1.948  0.00  0.00     0.210 HD
ENDBRANCH   2   9
BRANCH   6  11
HETATM   11  O   UNK N   1      20.496  16.901   4.702  0.00  0.00    -0.390 OA
HETATM   12  H   UNK N   1      20.202  15.982   4.601  0.00  0.00     0.210 HD
ENDBRANCH   6  11
BRANCH   3  13
HETATM   13  O   UNK N   1      20.748  20.417   0.051  0.00  0.00    -0.390 OA
HETATM   14  H   UNK N   1      21.371  20.226  -0.668  0.00  0.00     0.210 HD
ENDBRANCH   3  13
BRANCH   5  15
HETATM   15  O   UNK N   1      20.044  15.820   2.029  0.00  0.00    -0.390 OA
HETATM   16  H   UNK N   1      19.258  15.542   1.535  0.00  0.00     0.210 HD
ENDBRANCH   5  15
BRANCH   4  17
HETATM   17  O   UNK N   1      20.170  17.578  -0.296  0.00  0.00    -0.390 OA
HETATM   18  H   UNK N   1      20.812  16.964  -0.686  0.00  0.00     0.210 HD
ENDBRANCH   4  17
TORSDOF 6
ENDMDL
MODEL 9
REMARK VINA RESULT:      -5.0     14.032     15.077
REMARK  6 active torsions:
REMARK  status: ('A' for Active; 'I' for Inactive)
REMARK    1  A    between atoms: C_1  and  O_11 
REMARK    2  A    between atoms: C_2  and  O_9 
REMARK    3  A    between atoms: C_3  and  O_10 
REMARK    4  A    between atoms: C_4  and  O_12 
REMARK    5  A    between atoms: C_5  and  O_7 
REMARK    6  A    between atoms: C_6  and  O_8 
ROOT
HETATM    1  C   UNK N   1      34.433  16.881   9.729  0.00  0.00     0.180 A 
HETATM    2  C   UNK N   1      33.652  15.573   9.715  0.00  0.00     0.180 A 
HETATM    3  C   UNK N   1      33.015  15.081   8.423  0.00  0.00     0.180 A 
HETATM    4  C   UNK N   1      33.158  15.896   7.144  0.00  0.00     0.180 A 
HETATM    5  C   UNK N   1      33.940  17.203   7.158  0.00  0.00     0.180 A 
HETATM    6  C   UNK N   1      34.577  17.696   8.450  0.00  0.00     0.180 A 
ENDROOT
BRANCH   1   7
HETATM    7  O   UNK N   1      35.017  17.332  10.913  0.00  0.00    -0.390 OA
HETATM    8  H   UNK N   1      35.138  18.283  11.063  0.00  0.00     0.210 HD
ENDBRANCH   1   7
BRANCH   2   9
HETATM    9  O   UNK N   1      33.521  14.827  10.887  0.00  0.00    -0.390 OA
HETATM   10  H   UNK N   1      34.294  14.384  11.269  0.00  0.00     0.210 HD
ENDBRANCH   2   9
BRANCH   6  11
HETATM   11  O   UNK N   1      35.292  18.893   8.463  0.00  0.00    -0.390 OA
HETATM   12  H   UNK N   1      34.952  19.667   7.987  0.00  0.00     0.210 HD
ENDBRANCH   6  11
BRANCH   3  13
HETATM   13  O   UNK N   1      32.299  13.884   8.410  0.00  0.00    -0.390 OA
HETATM   14  H   UNK N   1      31.903  13.564   7.585  0.00  0.00     0.210 HD
ENDBRANCH   3  13
BRANCH   5  15
HETATM   15  O   UNK N   1      34.071  17.949   5.987  0.00  0.00    -0.390 OA
HETATM   16  H   UNK N   1      33.803  17.568   5.136  0.00  0.00     0.210 HD
ENDBRANCH   5  15
BRANCH   4  17
HETATM   17  O   UNK N   1      32.574  15.445   5.960  0.00  0.00    -0.390 OA
HETATM   18  H   UNK N   1      31.661  15.692   5.745  0.00  0.00     0.210 HD
ENDBRANCH   4  17
TORSDOF 6
ENDMDL
