MODEL 1
REMARK VINA RESULT:      -4.3      0.000      0.000
REMARK  17 active torsions:
REMARK  status: ('A' for Active; 'I' for Inactive)
REMARK    1  A    between atoms: C_2  and  N_3 
REMARK    2  A    between atoms: N_3  and  C_4 
REMARK    3  A    between atoms: C_4  and  C_5 
REMARK    4  A    between atoms: C_5  and  C_6 
REMARK    5  A    between atoms: C_6  and  C_7 
REMARK    6  A    between atoms: C_7  and  N_8 
REMARK    7  A    between atoms: N_8  and  C_9 
REMARK    8  A    between atoms: C_9  and  C_10 
REMARK    9  A    between atoms: C_10  and  C_11 
REMARK   10  A    between atoms: C_11  and  C_12 
REMARK   11  A    between atoms: C_12  and  N_13 
REMARK   12  A    between atoms: N_13  and  C_14 
REMARK   13  A    between atoms: C_14  and  C_15 
REMARK   14  A    between atoms: C_15  and  C_16 
REMARK   15  A    between atoms: C_16  and  C_17 
REMARK   16  A    between atoms: C_17  and  N_18 
REMARK   17  A    between atoms: N_18  and  C_19 
ROOT
HETATM    1  C   UNK N   1      34.911  14.361  11.535  0.00  0.00     0.021 C 
ENDROOT
BRANCH   1   2
HETATM    2  C   UNK N   1      35.866  13.233  11.894  0.00  0.00     0.113 C 
BRANCH   2   3
HETATM    3  N   UNK N   1      36.900  13.734  12.786  0.00  0.00    -0.421 N 
HETATM    4  H   UNK N   1      37.533  14.511  12.598  0.00  0.00     0.153 HD
BRANCH   3   5
HETATM    5  C   UNK N   1      36.868  12.924  13.998  0.00  0.00     0.113 C 
BRANCH   5   6
HETATM    6  C   UNK N   1      36.766  13.807  15.231  0.00  0.00     0.021 C 
BRANCH   6   7
HETATM    7  C   UNK N   1      35.779  13.220  16.224  0.00  0.00     0.021 C 
BRANCH   7   8
HETATM    8  C   UNK N   1      34.691  12.452  15.491  0.00  0.00     0.113 C 
BRANCH   8   9
HETATM    9  N   UNK N   1      34.513  11.135  16.085  0.00  0.00    -0.421 N 
HETATM   10  H   UNK N   1      34.333  10.936  17.069  0.00  0.00     0.153 HD
BRANCH   9  11
HETATM   11  C   UNK N   1      34.640  10.158  15.018  0.00  0.00     0.109 C 
HETATM   12  C   UNK N   1      33.811  10.600  13.830  0.00  0.00     0.026 C 
ENDBRANCH   9  11
ENDBRANCH   8   9
ENDBRANCH   7   8
ENDBRANCH   6   7
ENDBRANCH   5   6
ENDBRANCH   3   5
ENDBRANCH   2   3
ENDBRANCH   1   2
BRANCH   1  13
HETATM   13  C   UNK N   1      35.517  15.727  11.807  0.00  0.00     0.021 C 
BRANCH  13  14
HETATM   14  C   UNK N   1      35.646  16.556  10.535  0.00  0.00     0.113 C 
BRANCH  14  15
HETATM   15  N   UNK N   1      34.326  16.935  10.050  0.00  0.00    -0.421 N 
HETATM   16  H   UNK N   1      33.441  16.787  10.534  0.00  0.00     0.153 HD
BRANCH  15  17
HETATM   17  C   UNK N   1      34.498  17.564   8.747  0.00  0.00     0.113 C 
BRANCH  17  18
HETATM   18  C   UNK N   1      33.143  17.943   8.171  0.00  0.00     0.021 C 
BRANCH  18  19
HETATM   19  C   UNK N   1      32.403  16.708   7.698  0.00  0.00     0.021 C 
BRANCH  19  20
HETATM   20  C   UNK N   1      31.078  17.104   7.082  0.00  0.00     0.113 C 
BRANCH  20  21
HETATM   21  N   UNK N   1      30.330  17.915   8.024  0.00  0.00    -0.421 N 
HETATM   22  H   UNK N   1      30.642  18.776   8.472  0.00  0.00     0.153 HD
BRANCH  21  23
HETATM   23  C   UNK N   1      29.049  17.258   8.200  0.00  0.00     0.109 C 
HETATM   24  C   UNK N   1      28.270  17.954   9.295  0.00  0.00     0.026 C 
ENDBRANCH  21  23
ENDBRANCH  20  21
ENDBRANCH  19  20
ENDBRANCH  18  19
ENDBRANCH  17  18
ENDBRANCH  15  17
ENDBRANCH  14  15
ENDBRANCH  13  14
ENDBRANCH   1  13
TORSDOF 17
ENDMDL
MODEL 2
REMARK VINA RESULT:      -4.2      1.770      4.350
REMARK  17 active torsions:
REMARK  status: ('A' for Active; 'I' for Inactive)
REMARK    1  A    between atoms: C_2  and  N_3 
REMARK    2  A    between atoms: N_3  and  C_4 
REMARK    3  A    between atoms: C_4  and  C_5 
REMARK    4  A    between atoms: C_5  and  C_6 
REMARK    5  A    between atoms: C_6  and  C_7 
REMARK    6  A    between atoms: C_7  and  N_8 
REMARK    7  A    between atoms: N_8  and  C_9 
REMARK    8  A    between atoms: C_9  and  C_10 
REMARK    9  A    between atoms: C_10  and  C_11 
REMARK   10  A    between atoms: C_11  and  C_12 
REMARK   11  A    between atoms: C_12  and  N_13 
REMARK   12  A    between atoms: N_13  and  C_14 
REMARK   13  A    between atoms: C_14  and  C_15 
REMARK   14  A    between atoms: C_15  and  C_16 
REMARK   15  A    between atoms: C_16  and  C_17 
REMARK   16  A    between atoms: C_17  and  N_18 
REMARK   17  A    between atoms: N_18  and  C_19 
ROOT
HETATM    1  C   UNK N   1      33.446  18.296   8.040  0.00  0.00     0.021 C 
ENDROOT
BRANCH   1   2
HETATM    2  C   UNK N   1      34.674  17.666   8.680  0.00  0.00     0.113 C 
BRANCH   2   3
HETATM    3  N   UNK N   1      34.300  17.033   9.935  0.00  0.00    -0.421 N 
HETATM    4  H   UNK N   1      33.352  16.926  10.297  0.00  0.00     0.153 HD
BRANCH   3   5
HETATM    5  C   UNK N   1      35.524  16.578  10.583  0.00  0.00     0.113 C 
BRANCH   5   6
HETATM    6  C   UNK N   1      35.205  15.631  11.729  0.00  0.00     0.021 C 
BRANCH   6   7
HETATM    7  C   UNK N   1      36.277  14.562  11.849  0.00  0.00     0.021 C 
BRANCH   7   8
HETATM    8  C   UNK N   1      35.920  13.583  12.955  0.00  0.00     0.113 C 
BRANCH   8   9
HETATM    9  N   UNK N   1      37.103  12.850  13.384  0.00  0.00    -0.421 N 
HETATM   10  H   UNK N   1      37.848  12.500  12.781  0.00  0.00     0.153 HD
BRANCH   9  11
HETATM   11  C   UNK N   1      37.026  12.710  14.827  0.00  0.00     0.109 C 
HETATM   12  C   UNK N   1      35.734  13.325  15.324  0.00  0.00     0.026 C 
ENDBRANCH   9  11
ENDBRANCH   8   9
ENDBRANCH   7   8
ENDBRANCH   6   7
ENDBRANCH   5   6
ENDBRANCH   3   5
ENDBRANCH   2   3
ENDBRANCH   1   2
BRANCH   1  13
HETATM   13  C   UNK N   1      32.236  17.380   8.111  0.00  0.00     0.021 C 
BRANCH  13  14
HETATM   14  C   UNK N   1      32.182  16.415   6.933  0.00  0.00     0.113 C 
BRANCH  14  15
HETATM   15  N   UNK N   1      31.425  17.006   5.838  0.00  0.00    -0.421 N 
HETATM   16  H   UNK N   1      31.801  17.591   5.093  0.00  0.00     0.153 HD
BRANCH  15  17
HETATM   17  C   UNK N   1      30.032  16.609   5.999  0.00  0.00     0.113 C 
BRANCH  17  18
HETATM   18  C   UNK N   1      29.116  17.714   5.497  0.00  0.00     0.021 C 
BRANCH  18  19
HETATM   19  C   UNK N   1      28.578  18.525   6.659  0.00  0.00     0.021 C 
BRANCH  19  20
HETATM   20  C   UNK N   1      27.889  17.613   7.650  0.00  0.00     0.113 C 
BRANCH  20  21
HETATM   21  N   UNK N   1      27.685  18.322   8.899  0.00  0.00    -0.421 N 
HETATM   22  H   UNK N   1      26.810  18.713   9.245  0.00  0.00     0.153 HD
BRANCH  21  23
HETATM   23  C   UNK N   1      28.976  18.364   9.559  0.00  0.00     0.109 C 
HETATM   24  C   UNK N   1      29.228  17.047  10.261  0.00  0.00     0.026 C 
ENDBRANCH  21  23
ENDBRANCH  20  21
ENDBRANCH  19  20
ENDBRANCH  18  19
ENDBRANCH  17  18
ENDBRANCH  15  17
ENDBRANCH  14  15
ENDBRANCH  13  14
ENDBRANCH   1  13
TORSDOF 17
ENDMDL
MODEL 3
REMARK VINA RESULT:      -4.2      1.489      8.885
REMARK  17 active torsions:
REMARK  status: ('A' for Active; 'I' for Inactive)
REMARK    1  A    between atoms: C_2  and  N_3 
REMARK    2  A    between atoms: N_3  and  C_4 
REMARK    3  A    between atoms: C_4  and  C_5 
REMARK    4  A    between atoms: C_5  and  C_6 
REMARK    5  A    between atoms: C_6  and  C_7 
REMARK    6  A    between atoms: C_7  and  N_8 
REMARK    7  A    between atoms: N_8  and  C_9 
REMARK    8  A    between atoms: C_9  and  C_10 
REMARK    9  A    between atoms: C_10  and  C_11 
REMARK   10  A    between atoms: C_11  and  C_12 
REMARK   11  A    between atoms: C_12  and  N_13 
REMARK   12  A    between atoms: N_13  and  C_14 
REMARK   13  A    between atoms: C_14  and  C_15 
REMARK   14  A    between atoms: C_15  and  C_16 
REMARK   15  A    between atoms: C_16  and  C_17 
REMARK   16  A    between atoms: C_17  and  N_18 
REMARK   17  A    between atoms: N_18  and  C_19 
ROOT
HETATM    1  C   UNK N   1      35.488  14.902  10.340  0.00  0.00     0.021 C 
ENDROOT
BRANCH   1   2
HETATM    2  C   UNK N   1      35.830  16.207  11.042  0.00  0.00     0.113 C 
BRANCH   2   3
HETATM    3  N   UNK N   1      35.038  17.288  10.477  0.00  0.00    -0.421 N 
HETATM    4  H   UNK N   1      34.789  18.161  10.944  0.00  0.00     0.153 HD
BRANCH   3   5
HETATM    5  C   UNK N   1      34.662  16.900   9.123  0.00  0.00     0.113 C 
BRANCH   5   6
HETATM    6  C   UNK N   1      34.289  18.122   8.299  0.00  0.00     0.021 C 
BRANCH   6   7
HETATM    7  C   UNK N   1      32.788  18.170   8.070  0.00  0.00     0.021 C 
BRANCH   7   8
HETATM    8  C   UNK N   1      32.165  16.823   8.394  0.00  0.00     0.113 C 
BRANCH   8   9
HETATM    9  N   UNK N   1      30.712  16.929   8.413  0.00  0.00    -0.421 N 
HETATM   10  H   UNK N   1      30.050  16.162   8.298  0.00  0.00     0.153 HD
BRANCH   9  11
HETATM   11  C   UNK N   1      30.383  18.327   8.627  0.00  0.00     0.109 C 
HETATM   12  C   UNK N   1      29.550  18.461   9.885  0.00  0.00     0.026 C 
ENDBRANCH   9  11
ENDBRANCH   8   9
ENDBRANCH   7   8
ENDBRANCH   6   7
ENDBRANCH   5   6
ENDBRANCH   3   5
ENDBRANCH   2   3
ENDBRANCH   1   2
BRANCH   1  13
HETATM   13  C   UNK N   1      35.523  13.718  11.292  0.00  0.00     0.021 C 
BRANCH  13  14
HETATM   14  C   UNK N   1      36.920  13.479  11.852  0.00  0.00     0.113 C 
BRANCH  14  15
HETATM   15  N   UNK N   1      36.922  13.688  13.293  0.00  0.00    -0.421 N 
HETATM   16  H   UNK N   1      37.725  13.956  13.861  0.00  0.00     0.153 HD
BRANCH  15  17
HETATM   17  C   UNK N   1      35.569  13.442  13.777  0.00  0.00     0.113 C 
BRANCH  17  18
HETATM   18  C   UNK N   1      35.607  12.497  14.967  0.00  0.00     0.021 C 
BRANCH  18  19
HETATM   19  C   UNK N   1      34.370  11.623  14.989  0.00  0.00     0.021 C 
BRANCH  19  20
HETATM   20  C   UNK N   1      34.588  10.442  15.910  0.00  0.00     0.113 C 
BRANCH  20  21
HETATM   21  N   UNK N   1      35.573  10.790  16.917  0.00  0.00    -0.421 N 
HETATM   22  H   UNK N   1      36.481  11.224  16.760  0.00  0.00     0.153 HD
BRANCH  21  23
HETATM   23  C   UNK N   1      35.006  10.396  18.193  0.00  0.00     0.109 C 
HETATM   24  C   UNK N   1      35.542  11.297  19.284  0.00  0.00     0.026 C 
ENDBRANCH  21  23
ENDBRANCH  20  21
ENDBRANCH  19  20
ENDBRANCH  18  19
ENDBRANCH  17  18
ENDBRANCH  15  17
ENDBRANCH  14  15
ENDBRANCH  13  14
ENDBRANCH   1  13
TORSDOF 17
ENDMDL
MODEL 4
REMARK VINA RESULT:      -4.1      6.737     10.218
REMARK  17 active torsions:
REMARK  status: ('A' for Active; 'I' for Inactive)
REMARK    1  A    between atoms: C_2  and  N_3 
REMARK    2  A    between atoms: N_3  and  C_4 
REMARK    3  A    between atoms: C_4  and  C_5 
REMARK    4  A    between atoms: C_5  and  C_6 
REMARK    5  A    between atoms: C_6  and  C_7 
REMARK    6  A    between atoms: C_7  and  N_8 
REMARK    7  A    between atoms: N_8  and  C_9 
REMARK    8  A    between atoms: C_9  and  C_10 
REMARK    9  A    between atoms: C_10  and  C_11 
REMARK   10  A    between atoms: C_11  and  C_12 
REMARK   11  A    between atoms: C_12  and  N_13 
REMARK   12  A    between atoms: N_13  and  C_14 
REMARK   13  A    between atoms: C_14  and  C_15 
REMARK   14  A    between atoms: C_15  and  C_16 
REMARK   15  A    between atoms: C_16  and  C_17 
REMARK   16  A    between atoms: C_17  and  N_18 
REMARK   17  A    between atoms: N_18  and  C_19 
ROOT
HETATM    1  C   UNK N   1      29.727  17.913   8.063  0.00  0.00     0.021 C 
ENDROOT
BRANCH   1   2
HETATM    2  C   UNK N   1      28.734  18.268   9.160  0.00  0.00     0.113 C 
BRANCH   2   3
HETATM    3  N   UNK N   1      27.620  19.009   8.589  0.00  0.00    -0.421 N 
HETATM    4  H   UNK N   1      26.772  19.296   9.079  0.00  0.00     0.153 HD
BRANCH   3   5
HETATM    5  C   UNK N   1      27.933  19.269   7.189  0.00  0.00     0.113 C 
BRANCH   5   6
HETATM    6  C   UNK N   1      27.389  20.623   6.760  0.00  0.00     0.021 C 
BRANCH   6   7
HETATM    7  C   UNK N   1      27.236  20.678   5.250  0.00  0.00     0.021 C 
BRANCH   7   8
HETATM    8  C   UNK N   1      26.901  19.300   4.705  0.00  0.00     0.113 C 
BRANCH   8   9
HETATM    9  N   UNK N   1      27.926  18.863   3.767  0.00  0.00    -0.421 N 
HETATM   10  H   UNK N   1      28.512  19.466   3.190  0.00  0.00     0.153 HD
BRANCH   9  11
HETATM   11  C   UNK N   1      27.958  17.412   3.805  0.00  0.00     0.109 C 
HETATM   12  C   UNK N   1      29.220  16.955   4.505  0.00  0.00     0.026 C 
ENDBRANCH   9  11
ENDBRANCH   8   9
ENDBRANCH   7   8
ENDBRANCH   6   7
ENDBRANCH   5   6
ENDBRANCH   3   5
ENDBRANCH   2   3
ENDBRANCH   1   2
BRANCH   1  13
HETATM   13  C   UNK N   1      30.840  17.015   8.575  0.00  0.00     0.021 C 
BRANCH  13  14
HETATM   14  C   UNK N   1      31.604  16.350   7.436  0.00  0.00     0.113 C 
BRANCH  14  15
HETATM   15  N   UNK N   1      32.534  17.297   6.838  0.00  0.00    -0.421 N 
HETATM   16  H   UNK N   1      32.803  18.202   7.224  0.00  0.00     0.153 HD
BRANCH  15  17
HETATM   17  C   UNK N   1      33.013  16.718   5.589  0.00  0.00     0.113 C 
BRANCH  17  18
HETATM   18  C   UNK N   1      32.794  17.697   4.446  0.00  0.00     0.021 C 
BRANCH  18  19
HETATM   19  C   UNK N   1      32.731  16.962   3.123  0.00  0.00     0.021 C 
BRANCH  19  20
HETATM   20  C   UNK N   1      33.020  15.492   3.335  0.00  0.00     0.113 C 
BRANCH  20  21
HETATM   21  N   UNK N   1      33.838  14.997   2.244  0.00  0.00    -0.421 N 
HETATM   22  H   UNK N   1      33.830  15.322   1.278  0.00  0.00     0.153 HD
BRANCH  21  23
HETATM   23  C   UNK N   1      34.669  13.948   2.802  0.00  0.00     0.109 C 
HETATM   24  C   UNK N   1      34.012  13.390   4.046  0.00  0.00     0.026 C 
ENDBRANCH  21  23
ENDBRANCH  20  21
ENDBRANCH  19  20
ENDBRANCH  18  19
ENDBRANCH  17  18
ENDBRANCH  15  17
ENDBRANCH  14  15
ENDBRANCH  13  14
ENDBRANCH   1  13
TORSDOF 17
ENDMDL
MODEL 5
REMARK VINA RESULT:      -4.1      2.162      2.562
REMARK  17 active torsions:
REMARK  status: ('A' for Active; 'I' for Inactive)
REMARK    1  A    between atoms: C_2  and  N_3 
REMARK    2  A    between atoms: N_3  and  C_4 
REMARK    3  A    between atoms: C_4  and  C_5 
REMARK    4  A    between atoms: C_5  and  C_6 
REMARK    5  A    between atoms: C_6  and  C_7 
REMARK    6  A    between atoms: C_7  and  N_8 
REMARK    7  A    between atoms: N_8  and  C_9 
REMARK    8  A    between atoms: C_9  and  C_10 
REMARK    9  A    between atoms: C_10  and  C_11 
REMARK   10  A    between atoms: C_11  and  C_12 
REMARK   11  A    between atoms: C_12  and  N_13 
REMARK   12  A    between atoms: N_13  and  C_14 
REMARK   13  A    between atoms: C_14  and  C_15 
REMARK   14  A    between atoms: C_15  and  C_16 
REMARK   15  A    between atoms: C_16  and  C_17 
REMARK   16  A    between atoms: C_17  and  N_18 
REMARK   17  A    between atoms: N_18  and  C_19 
ROOT
HETATM    1  C   UNK N   1      35.600  14.204  12.005  0.00  0.00     0.021 C 
ENDROOT
BRANCH   1   2
HETATM    2  C   UNK N   1      36.679  13.133  11.974  0.00  0.00     0.113 C 
BRANCH   2   3
HETATM    3  N   UNK N   1      37.204  12.929  13.315  0.00  0.00    -0.421 N 
HETATM    4  H   UNK N   1      37.954  12.288  13.577  0.00  0.00     0.153 HD
BRANCH   3   5
HETATM    5  C   UNK N   1      36.467  13.805  14.216  0.00  0.00     0.113 C 
BRANCH   5   6
HETATM    6  C   UNK N   1      36.274  13.142  15.571  0.00  0.00     0.021 C 
BRANCH   6   7
HETATM    7  C   UNK N   1      34.795  12.994  15.884  0.00  0.00     0.021 C 
BRANCH   7   8
HETATM    8  C   UNK N   1      34.236  11.755  15.205  0.00  0.00     0.113 C 
BRANCH   8   9
HETATM    9  N   UNK N   1      35.188  10.657  15.292  0.00  0.00    -0.421 N 
HETATM   10  H   UNK N   1      35.837  10.480  16.059  0.00  0.00     0.153 HD
BRANCH   9  11
HETATM   11  C   UNK N   1      35.043   9.861  14.086  0.00  0.00     0.109 C 
HETATM   12  C   UNK N   1      33.976  10.475  13.204  0.00  0.00     0.026 C 
ENDBRANCH   9  11
ENDBRANCH   8   9
ENDBRANCH   7   8
ENDBRANCH   6   7
ENDBRANCH   5   6
ENDBRANCH   3   5
ENDBRANCH   2   3
ENDBRANCH   1   2
BRANCH   1  13
HETATM   13  C   UNK N   1      35.647  15.095  10.775  0.00  0.00     0.021 C 
BRANCH  13  14
HETATM   14  C   UNK N   1      35.312  16.544  11.108  0.00  0.00     0.113 C 
BRANCH  14  15
HETATM   15  N   UNK N   1      34.719  17.198   9.950  0.00  0.00    -0.421 N 
HETATM   16  H   UNK N   1      34.370  18.155   9.912  0.00  0.00     0.153 HD
BRANCH  15  17
HETATM   17  C   UNK N   1      34.713  16.236   8.855  0.00  0.00     0.113 C 
BRANCH  17  18
HETATM   18  C   UNK N   1      33.519  16.489   7.948  0.00  0.00     0.021 C 
BRANCH  18  19
HETATM   19  C   UNK N   1      33.715  17.765   7.156  0.00  0.00     0.021 C 
BRANCH  19  20
HETATM   20  C   UNK N   1      33.565  17.483   5.677  0.00  0.00     0.113 C 
BRANCH  20  21
HETATM   21  N   UNK N   1      33.438  16.053   5.468  0.00  0.00    -0.421 N 
HETATM   22  H   UNK N   1      33.940  15.316   5.962  0.00  0.00     0.153 HD
BRANCH  21  23
HETATM   23  C   UNK N   1      32.454  15.881   4.416  0.00  0.00     0.109 C 
HETATM   24  C   UNK N   1      32.734  16.860   3.297  0.00  0.00     0.026 C 
ENDBRANCH  21  23
ENDBRANCH  20  21
ENDBRANCH  19  20
ENDBRANCH  18  19
ENDBRANCH  17  18
ENDBRANCH  15  17
ENDBRANCH  14  15
ENDBRANCH  13  14
ENDBRANCH   1  13
TORSDOF 17
ENDMDL
MODEL 6
REMARK VINA RESULT:      -4.1      1.456      1.979
REMARK  17 active torsions:
REMARK  status: ('A' for Active; 'I' for Inactive)
REMARK    1  A    between atoms: C_2  and  N_3 
REMARK    2  A    between atoms: N_3  and  C_4 
REMARK    3  A    between atoms: C_4  and  C_5 
REMARK    4  A    between atoms: C_5  and  C_6 
REMARK    5  A    between atoms: C_6  and  C_7 
REMARK    6  A    between atoms: C_7  and  N_8 
REMARK    7  A    between atoms: N_8  and  C_9 
REMARK    8  A    between atoms: C_9  and  C_10 
REMARK    9  A    between atoms: C_10  and  C_11 
REMARK   10  A    between atoms: C_11  and  C_12 
REMARK   11  A    between atoms: C_12  and  N_13 
REMARK   12  A    between atoms: N_13  and  C_14 
REMARK   13  A    between atoms: C_14  and  C_15 
REMARK   14  A    between atoms: C_15  and  C_16 
REMARK   15  A    between atoms: C_16  and  C_17 
REMARK   16  A    between atoms: C_17  and  N_18 
REMARK   17  A    between atoms: N_18  and  C_19 
ROOT
HETATM    1  C   UNK N   1      34.973  14.366  11.609  0.00  0.00     0.021 C 
ENDROOT
BRANCH   1   2
HETATM    2  C   UNK N   1      35.870  13.162  11.857  0.00  0.00     0.113 C 
BRANCH   2   3
HETATM    3  N   UNK N   1      36.956  13.538  12.749  0.00  0.00    -0.421 N 
HETATM    4  H   UNK N   1      37.611  14.307  12.610  0.00  0.00     0.153 HD
BRANCH   3   5
HETATM    5  C   UNK N   1      36.939  12.616  13.878  0.00  0.00     0.113 C 
BRANCH   5   6
HETATM    6  C   UNK N   1      36.753  13.371  15.185  0.00  0.00     0.021 C 
BRANCH   6   7
HETATM    7  C   UNK N   1      35.349  13.161  15.724  0.00  0.00     0.021 C 
BRANCH   7   8
HETATM    8  C   UNK N   1      35.109  11.686  16.000  0.00  0.00     0.113 C 
BRANCH   8   9
HETATM    9  N   UNK N   1      35.999  11.216  17.053  0.00  0.00    -0.421 N 
HETATM   10  H   UNK N   1      37.010  11.106  16.984  0.00  0.00     0.153 HD
BRANCH   9  11
HETATM   11  C   UNK N   1      35.179  10.932  18.218  0.00  0.00     0.109 C 
HETATM   12  C   UNK N   1      35.369  12.028  19.245  0.00  0.00     0.026 C 
ENDBRANCH   9  11
ENDBRANCH   8   9
ENDBRANCH   7   8
ENDBRANCH   6   7
ENDBRANCH   5   6
ENDBRANCH   3   5
ENDBRANCH   2   3
ENDBRANCH   1   2
BRANCH   1  13
HETATM   13  C   UNK N   1      35.702  15.677  11.851  0.00  0.00     0.021 C 
BRANCH  13  14
HETATM   14  C   UNK N   1      35.809  16.511  10.581  0.00  0.00     0.113 C 
BRANCH  14  15
HETATM   15  N   UNK N   1      34.489  16.974  10.175  0.00  0.00    -0.421 N 
HETATM   16  H   UNK N   1      33.632  16.903  10.721  0.00  0.00     0.153 HD
BRANCH  15  17
HETATM   17  C   UNK N   1      34.616  17.558   8.845  0.00  0.00     0.113 C 
BRANCH  17  18
HETATM   18  C   UNK N   1      33.238  17.843   8.270  0.00  0.00     0.021 C 
BRANCH  18  19
HETATM   19  C   UNK N   1      33.239  17.645   6.768  0.00  0.00     0.021 C 
BRANCH  19  20
HETATM   20  C   UNK N   1      32.567  16.334   6.420  0.00  0.00     0.113 C 
BRANCH  20  21
HETATM   21  N   UNK N   1      31.367  16.595   5.649  0.00  0.00    -0.421 N 
HETATM   22  H   UNK N   1      31.316  16.854   4.665  0.00  0.00     0.153 HD
BRANCH  21  23
HETATM   23  C   UNK N   1      30.252  16.414   6.559  0.00  0.00     0.109 C 
HETATM   24  C   UNK N   1      29.316  17.599   6.454  0.00  0.00     0.026 C 
ENDBRANCH  21  23
ENDBRANCH  20  21
ENDBRANCH  19  20
ENDBRANCH  18  19
ENDBRANCH  17  18
ENDBRANCH  15  17
ENDBRANCH  14  15
ENDBRANCH  13  14
ENDBRANCH   1  13
TORSDOF 17
ENDMDL
MODEL 7
REMARK VINA RESULT:      -4.0     17.065     21.225
REMARK  17 active torsions:
REMARK  status: ('A' for Active; 'I' for Inactive)
REMARK    1  A    between atoms: C_2  and  N_3 
REMARK    2  A    between atoms: N_3  and  C_4 
REMARK    3  A    between atoms: C_4  and  C_5 
REMARK    4  A    between atoms: C_5  and  C_6 
REMARK    5  A    between atoms: C_6  and  C_7 
REMARK    6  A    between atoms: C_7  and  N_8 
REMARK    7  A    between atoms: N_8  and  C_9 
REMARK    8  A    between atoms: C_9  and  C_10 
REMARK    9  A    between atoms: C_10  and  C_11 
REMARK   10  A    between atoms: C_11  and  C_12 
REMARK   11  A    between atoms: C_12  and  N_13 
REMARK   12  A    between atoms: N_13  and  C_14 
REMARK   13  A    between atoms: C_14  and  C_15 
REMARK   14  A    between atoms: C_15  and  C_16 
REMARK   15  A    between atoms: C_16  and  C_17 
REMARK   16  A    between atoms: C_17  and  N_18 
REMARK   17  A    between atoms: N_18  and  C_19 
ROOT
HETATM    1  C   UNK N   1      26.839  28.226  -5.260  0.00  0.00     0.021 C 
ENDROOT
BRANCH   1   2
HETATM    2  C   UNK N   1      26.201  28.195  -3.880  0.00  0.00     0.113 C 
BRANCH   2   3
HETATM    3  N   UNK N   1      25.995  29.555  -3.406  0.00  0.00    -0.421 N 
HETATM    4  H   UNK N   1      25.097  30.027  -3.301  0.00  0.00     0.153 HD
BRANCH   3   5
HETATM    5  C   UNK N   1      27.304  30.121  -3.107  0.00  0.00     0.113 C 
BRANCH   5   6
HETATM    6  C   UNK N   1      27.915  29.450  -1.887  0.00  0.00     0.021 C 
BRANCH   6   7
HETATM    7  C   UNK N   1      29.043  30.296  -1.324  0.00  0.00     0.021 C 
BRANCH   7   8
HETATM    8  C   UNK N   1      30.266  30.203  -2.221  0.00  0.00     0.113 C 
BRANCH   8   9
HETATM    9  N   UNK N   1      31.116  29.096  -1.804  0.00  0.00    -0.421 N 
HETATM   10  H   UNK N   1      31.347  28.841  -0.844  0.00  0.00     0.153 HD
BRANCH   9  11
HETATM   11  C   UNK N   1      31.574  28.424  -3.008  0.00  0.00     0.109 C 
HETATM   12  C   UNK N   1      30.555  27.383  -3.421  0.00  0.00     0.026 C 
ENDBRANCH   9  11
ENDBRANCH   8   9
ENDBRANCH   7   8
ENDBRANCH   6   7
ENDBRANCH   5   6
ENDBRANCH   3   5
ENDBRANCH   2   3
ENDBRANCH   1   2
BRANCH   1  13
HETATM   13  C   UNK N   1      26.098  27.342  -6.249  0.00  0.00     0.021 C 
BRANCH  13  14
HETATM   14  C   UNK N   1      25.076  26.447  -5.558  0.00  0.00     0.113 C 
BRANCH  14  15
HETATM   15  N   UNK N   1      25.354  25.049  -5.856  0.00  0.00    -0.421 N 
HETATM   16  H   UNK N   1      25.248  24.594  -6.762  0.00  0.00     0.153 HD
BRANCH  15  17
HETATM   17  C   UNK N   1      25.812  24.418  -4.624  0.00  0.00     0.113 C 
BRANCH  17  18
HETATM   18  C   UNK N   1      27.319  24.225  -4.669  0.00  0.00     0.021 C 
BRANCH  18  19
HETATM   19  C   UNK N   1      27.866  23.995  -3.275  0.00  0.00     0.021 C 
BRANCH  19  20
HETATM   20  C   UNK N   1      29.374  23.869  -3.326  0.00  0.00     0.113 C 
BRANCH  20  21
HETATM   21  N   UNK N   1      29.828  23.054  -2.216  0.00  0.00    -0.421 N 
HETATM   22  H   UNK N   1      29.434  23.026  -1.276  0.00  0.00     0.153 HD
BRANCH  21  23
HETATM   23  C   UNK N   1      30.956  22.287  -2.708  0.00  0.00     0.109 C 
HETATM   24  C   UNK N   1      30.469  21.247  -3.694  0.00  0.00     0.026 C 
ENDBRANCH  21  23
ENDBRANCH  20  21
ENDBRANCH  19  20
ENDBRANCH  18  19
ENDBRANCH  17  18
ENDBRANCH  15  17
ENDBRANCH  14  15
ENDBRANCH  13  14
ENDBRANCH   1  13
TORSDOF 17
ENDMDL
MODEL 8
REMARK VINA RESULT:      -4.0      3.125     10.385
REMARK  17 active torsions:
REMARK  status: ('A' for Active; 'I' for Inactive)
REMARK    1  A    between atoms: C_2  and  N_3 
REMARK    2  A    between atoms: N_3  and  C_4 
REMARK    3  A    between atoms: C_4  and  C_5 
REMARK    4  A    between atoms: C_5  and  C_6 
REMARK    5  A    between atoms: C_6  and  C_7 
REMARK    6  A    between atoms: C_7  and  N_8 
REMARK    7  A    between atoms: N_8  and  C_9 
REMARK    8  A    between atoms: C_9  and  C_10 
REMARK    9  A    between atoms: C_10  and  C_11 
REMARK   10  A    between atoms: C_11  and  C_12 
REMARK   11  A    between atoms: C_12  and  N_13 
REMARK   12  A    between atoms: N_13  and  C_14 
REMARK   13  A    between atoms: C_14  and  C_15 
REMARK   14  A    between atoms: C_15  and  C_16 
REMARK   15  A    between atoms: C_16  and  C_17 
REMARK   16  A    between atoms: C_17  and  N_18 
REMARK   17  A    between atoms: N_18  and  C_19 
ROOT
HETATM    1  C   UNK N   1      29.579  18.017   7.920  0.00  0.00     0.021 C 
ENDROOT
BRANCH   1   2
HETATM    2  C   UNK N   1      28.625  18.394   9.042  0.00  0.00     0.113 C 
BRANCH   2   3
HETATM    3  N   UNK N   1      27.488  19.118   8.495  0.00  0.00    -0.421 N 
HETATM    4  H   UNK N   1      26.628  19.353   8.990  0.00  0.00     0.153 HD
BRANCH   3   5
HETATM    5  C   UNK N   1      27.800  19.447   7.109  0.00  0.00     0.113 C 
BRANCH   5   6
HETATM    6  C   UNK N   1      27.202  20.793   6.730  0.00  0.00     0.021 C 
BRANCH   6   7
HETATM    7  C   UNK N   1      26.814  20.806   5.261  0.00  0.00     0.021 C 
BRANCH   7   8
HETATM    8  C   UNK N   1      25.900  19.633   4.949  0.00  0.00     0.113 C 
BRANCH   8   9
HETATM    9  N   UNK N   1      26.277  19.020   3.683  0.00  0.00    -0.421 N 
HETATM   10  H   UNK N   1      26.265  19.469   2.768  0.00  0.00     0.153 HD
BRANCH   9  11
HETATM   11  C   UNK N   1      26.673  17.651   3.966  0.00  0.00     0.109 C 
HETATM   12  C   UNK N   1      28.183  17.547   3.927  0.00  0.00     0.026 C 
ENDBRANCH   9  11
ENDBRANCH   8   9
ENDBRANCH   7   8
ENDBRANCH   6   7
ENDBRANCH   5   6
ENDBRANCH   3   5
ENDBRANCH   2   3
ENDBRANCH   1   2
BRANCH   1  13
HETATM   13  C   UNK N   1      30.665  17.065   8.393  0.00  0.00     0.021 C 
BRANCH  13  14
HETATM   14  C   UNK N   1      31.503  16.536   7.235  0.00  0.00     0.113 C 
BRANCH  14  15
HETATM   15  N   UNK N   1      32.811  17.176   7.233  0.00  0.00    -0.421 N 
HETATM   16  H   UNK N   1      33.391  17.358   6.415  0.00  0.00     0.153 HD
BRANCH  15  17
HETATM   17  C   UNK N   1      33.142  17.510   8.613  0.00  0.00     0.113 C 
BRANCH  17  18
HETATM   18  C   UNK N   1      34.530  16.991   8.954  0.00  0.00     0.021 C 
BRANCH  18  19
HETATM   19  C   UNK N   1      34.502  15.488   9.143  0.00  0.00     0.021 C 
BRANCH  19  20
HETATM   20  C   UNK N   1      33.613  15.131  10.315  0.00  0.00     0.113 C 
BRANCH  20  21
HETATM   21  N   UNK N   1      34.234  14.072  11.087  0.00  0.00    -0.421 N 
HETATM   22  H   UNK N   1      33.949  13.094  11.122  0.00  0.00     0.153 HD
BRANCH  21  23
HETATM   23  C   UNK N   1      35.340  14.682  11.800  0.00  0.00     0.109 C 
HETATM   24  C   UNK N   1      35.614  13.906  13.070  0.00  0.00     0.026 C 
ENDBRANCH  21  23
ENDBRANCH  20  21
ENDBRANCH  19  20
ENDBRANCH  18  19
ENDBRANCH  17  18
ENDBRANCH  15  17
ENDBRANCH  14  15
ENDBRANCH  13  14
ENDBRANCH   1  13
TORSDOF 17
ENDMDL
MODEL 9
REMARK VINA RESULT:      -4.0     16.861     20.112
REMARK  17 active torsions:
REMARK  status: ('A' for Active; 'I' for Inactive)
REMARK    1  A    between atoms: C_2  and  N_3 
REMARK    2  A    between atoms: N_3  and  C_4 
REMARK    3  A    between atoms: C_4  and  C_5 
REMARK    4  A    between atoms: C_5  and  C_6 
REMARK    5  A    between atoms: C_6  and  C_7 
REMARK    6  A    between atoms: C_7  and  N_8 
REMARK    7  A    between atoms: N_8  and  C_9 
REMARK    8  A    between atoms: C_9  and  C_10 
REMARK    9  A    between atoms: C_10  and  C_11 
REMARK   10  A    between atoms: C_11  and  C_12 
REMARK   11  A    between atoms: C_12  and  N_13 
REMARK   12  A    between atoms: N_13  and  C_14 
REMARK   13  A    between atoms: C_14  and  C_15 
REMARK   14  A    between atoms: C_15  and  C_16 
REMARK   15  A    between atoms: C_16  and  C_17 
REMARK   16  A    between atoms: C_17  and  N_18 
REMARK   17  A    between atoms: N_18  and  C_19 
ROOT
HETATM    1  C   UNK N   1      30.287  22.879  -2.451  0.00  0.00     0.021 C 
ENDROOT
BRANCH   1   2
HETATM    2  C   UNK N   1      31.493  21.989  -2.714  0.00  0.00     0.113 C 
BRANCH   2   3
HETATM    3  N   UNK N   1      31.074  20.800  -3.439  0.00  0.00    -0.421 N 
HETATM    4  H   UNK N   1      30.251  20.231  -3.240  0.00  0.00     0.153 HD
BRANCH   3   5
HETATM    5  C   UNK N   1      32.042  20.568  -4.504  0.00  0.00     0.113 C 
BRANCH   5   6
HETATM    6  C   UNK N   1      31.336  20.227  -5.807  0.00  0.00     0.021 C 
BRANCH   6   7
HETATM    7  C   UNK N   1      30.042  21.013  -5.930  0.00  0.00     0.021 C 
BRANCH   7   8
HETATM    8  C   UNK N   1      29.303  20.610  -7.195  0.00  0.00     0.113 C 
BRANCH   8   9
HETATM    9  N   UNK N   1      28.185  21.511  -7.438  0.00  0.00    -0.421 N 
HETATM   10  H   UNK N   1      27.989  22.377  -6.936  0.00  0.00     0.153 HD
BRANCH   9  11
HETATM   11  C   UNK N   1      27.403  20.949  -8.524  0.00  0.00     0.109 C 
HETATM   12  C   UNK N   1      25.928  21.107  -8.216  0.00  0.00     0.026 C 
ENDBRANCH   9  11
ENDBRANCH   8   9
ENDBRANCH   7   8
ENDBRANCH   6   7
ENDBRANCH   5   6
ENDBRANCH   3   5
ENDBRANCH   2   3
ENDBRANCH   1   2
BRANCH   1  13
HETATM   13  C   UNK N   1      30.164  23.987  -3.483  0.00  0.00     0.021 C 
BRANCH  13  14
HETATM   14  C   UNK N   1      28.809  23.970  -4.179  0.00  0.00     0.113 C 
BRANCH  14  15
HETATM   15  N   UNK N   1      27.746  24.188  -3.208  0.00  0.00    -0.421 N 
HETATM   16  H   UNK N   1      27.857  24.247  -2.196  0.00  0.00     0.153 HD
BRANCH  15  17
HETATM   17  C   UNK N   1      26.493  24.306  -3.943  0.00  0.00     0.113 C 
BRANCH  17  18
HETATM   18  C   UNK N   1      26.688  23.843  -5.378  0.00  0.00     0.021 C 
BRANCH  18  19
HETATM   19  C   UNK N   1      25.940  24.750  -6.334  0.00  0.00     0.021 C 
BRANCH  19  20
HETATM   20  C   UNK N   1      25.292  25.884  -5.569  0.00  0.00     0.113 C 
BRANCH  20  21
HETATM   21  N   UNK N   1      25.552  27.138  -6.251  0.00  0.00    -0.421 N 
HETATM   22  H   UNK N   1      25.247  27.399  -7.187  0.00  0.00     0.153 HD
BRANCH  21  23
HETATM   23  C   UNK N   1      26.333  27.945  -5.333  0.00  0.00     0.109 C 
HETATM   24  C   UNK N   1      25.582  28.096  -4.028  0.00  0.00     0.026 C 
ENDBRANCH  21  23
ENDBRANCH  20  21
ENDBRANCH  19  20
ENDBRANCH  18  19
ENDBRANCH  17  18
ENDBRANCH  15  17
ENDBRANCH  14  15
ENDBRANCH  13  14
ENDBRANCH   1  13
TORSDOF 17
ENDMDL
