REMARK  4 active torsions:
REMARK  status: ('A' for Active; 'I' for Inactive)
REMARK    1  A    between atoms: C_4  and  N_26 
REMARK    2  A    between atoms: C_14  and  N_9 
REMARK    3  A    between atoms: C_15  and  O_25 
REMARK    4  A    between atoms: P_21  and  O_24 
ROOT
HETATM    1  C   UNK N   1      -3.271  -3.783   0.134  0.00  0.00     0.183 A 
HETATM    2  N   UNK N   1      -4.572  -3.379   0.323  0.00  0.00    -0.337 N 
ATOM      3  HN  UNK N   1      -5.303  -4.079   0.442  1.00  0.00     0.168 HD
HETATM    4  C   UNK N   1      -4.898  -2.053   0.354  0.00  0.00     0.131 A 
HETATM    5  C   UNK N   1      -3.878  -1.129   0.190  0.00  0.00     0.123 A 
HETATM    6  C   UNK N   1      -2.605  -1.546  -0.003  0.00  0.00     0.144 A 
HETATM    7  N   UNK N   1      -2.274  -2.859  -0.039  0.00  0.00    -0.336 N 
ATOM      8  HN  UNK N   1      -1.308  -3.152  -0.190  1.00  0.00     0.168 HD
HETATM    9  N   UNK N   1      -1.810  -0.476  -0.193  0.00  0.00    -0.277 N 
HETATM   10  C   UNK N   1      -2.650   0.587  -0.089  0.00  0.00     0.185 A 
HETATM   11  N   UNK N   1      -3.936   0.213   0.151  0.00  0.00    -0.326 N 
ATOM     12  HN  UNK N   1      -4.753   0.811   0.273  1.00  0.00     0.168 HD
HETATM   13 Cl   UNK N   1      -2.163   2.264  -0.270  0.00  0.00    -0.044 Cl
ENDROOT
BRANCH   9  14
HETATM   14  C   UNK N   1      -0.380  -0.409  -0.532  0.00  0.00     0.264 C 
HETATM   15  C   UNK N   1       0.394  -1.710  -0.467  0.00  0.00     0.199 C 
HETATM   16  C   UNK N   1       1.815  -1.200  -0.397  0.00  0.00     0.197 C 
HETATM   17  C   UNK N   1       1.603   0.307  -0.330  0.00  0.00     0.180 C 
HETATM   18  O   UNK N   1       2.383  -1.632   0.811  0.00  0.00    -0.286 OA
HETATM   19  O   UNK N   1       0.340   0.506   0.238  0.00  0.00    -0.353 OA
HETATM   20  C   UNK N   1       2.724   0.939   0.477  0.00  0.00     0.215 C 
HETATM   21  O   UNK N   1       3.937   0.362   0.069  0.00  0.00    -0.294 OA
HETATM   22  P   UNK N   1       4.096  -1.188   0.897  0.00  0.00     0.393 P 
HETATM   23  O   UNK N   1       4.499  -1.355  -0.597  0.00  0.00    -0.631 OA
BRANCH  15  24
HETATM   24  O   UNK N   1       0.197  -2.452  -1.631  0.00  0.00    -0.388 OA
HETATM   25  H   UNK N   1      -0.319  -2.591  -2.440  0.00  0.00     0.210 HD
ENDBRANCH  15  24
BRANCH  22  26
HETATM   26  O   UNK N   1       4.454  -2.837   0.496  0.00  0.00    -0.307 OA
HETATM   27  H   UNK N   1       3.756  -3.472   0.271  0.00  0.00     0.222 HD
ENDBRANCH  22  26
ENDBRANCH   9  14
BRANCH   4  28
HETATM   28  N   UNK N   1      -6.237  -1.645   0.520  0.00  0.00    -0.383 N 
HETATM   29  H   UNK N   1      -6.457  -0.692   0.637  0.00  0.00     0.157 HD
HETATM   30  H   UNK N   1      -6.956  -2.316   0.520  0.00  0.00     0.157 HD
ENDBRANCH   4  28
TORSDOF 4
