REMARK  6 active torsions:
REMARK  status: ('A' for Active; 'I' for Inactive)
REMARK    1  A    between atoms: C_3  and  O_23 
REMARK    2  A    between atoms: C_10  and  O_22 
REMARK    3  A    between atoms: C_11  and  O_12 
REMARK    4  A    between atoms: O_12  and  C_13 
REMARK    5  A    between atoms: C_13  and  C_15 
REMARK    6  A    between atoms: C_18  and  N_21 
ROOT
HETATM    1  C   UNK N   1      -0.899   0.775   0.362  0.00  0.00     0.054 C 
HETATM    2  C   UNK N   1       0.520   0.319   0.237  0.00  0.00     0.009 A 
HETATM    3  C   UNK N   1       1.548   1.272   0.206  0.00  0.00     0.085 A 
HETATM    4  C   UNK N   1       2.880   0.862   0.084  0.00  0.00     0.011 A 
HETATM    5  C   UNK N   1       3.915   1.807   0.043  0.00  0.00     0.015 A 
HETATM    6  C   UNK N   1       5.243   1.395  -0.088  0.00  0.00     0.001 A 
HETATM    7  C   UNK N   1       5.548   0.035  -0.178  0.00  0.00     0.001 A 
HETATM    8  C   UNK N   1       4.525  -0.914  -0.140  0.00  0.00     0.015 A 
HETATM    9  C   UNK N   1       3.187  -0.514  -0.010  0.00  0.00     0.013 A 
HETATM   10  C   UNK N   1       2.161  -1.472   0.013  0.00  0.00     0.111 A 
HETATM   11  C   UNK N   1       0.805  -1.060   0.144  0.00  0.00     0.122 A 
ENDROOT
BRANCH  11  12
HETATM   12  O   UNK N   1      -0.264  -1.911   0.151  0.00  0.00    -0.271 OA
BRANCH  12  13
HETATM   13  C   UNK N   1      -0.381  -3.261   0.304  0.00  0.00     0.298 C 
HETATM   14  O   UNK N   1       0.538  -3.940   0.729  0.00  0.00    -0.259 OA
BRANCH  13  15
HETATM   15  C   UNK N   1      -1.686  -3.890   0.036  0.00  0.00     0.040 A 
HETATM   16  C   UNK N   1      -1.850  -5.277   0.165  0.00  0.00     0.020 A 
HETATM   17  C   UNK N   1      -3.104  -5.858  -0.048  0.00  0.00     0.030 A 
HETATM   18  C   UNK N   1      -4.198  -5.056  -0.383  0.00  0.00     0.025 A 
HETATM   19  C   UNK N   1      -4.037  -3.676  -0.526  0.00  0.00     0.030 A 
HETATM   20  C   UNK N   1      -2.783  -3.095  -0.320  0.00  0.00     0.020 A 
BRANCH  18  21
HETATM   21  N   UNK N   1      -5.468  -5.637  -0.565  0.00  0.00    -0.399 N 
HETATM   22  H   UNK N   1      -6.263  -5.072  -0.691  0.00  0.00     0.156 HD
HETATM   23  H   UNK N   1      -5.560  -6.618  -0.565  0.00  0.00     0.156 HD
ENDBRANCH  18  21
ENDBRANCH  13  15
ENDBRANCH  12  13
ENDBRANCH  11  12
BRANCH  10  24
HETATM   24  O   UNK N   1       2.494  -2.767  -0.120  0.00  0.00    -0.357 OA
HETATM   25  H   UNK N   1       1.828  -3.419  -0.213  0.00  0.00     0.217 HD
ENDBRANCH  10  24
BRANCH   3  26
HETATM   26  O   UNK N   1       1.250   2.584   0.288  0.00  0.00    -0.359 OA
HETATM   27  H   UNK N   1       1.937   3.220   0.345  0.00  0.00     0.217 HD
ENDBRANCH   3  26
TORSDOF 6
