REMARK  20 active torsions:
REMARK  status: ('A' for Active; 'I' for Inactive)
REMARK    1  A    between atoms: C_18  and  C_12 
REMARK    2  A    between atoms: C_19  and  C_12 
REMARK    3  A    between atoms: C_20  and  C_13 
REMARK    4  A    between atoms: C_21  and  C_13 
REMARK    5  A    between atoms: C_22  and  C_14 
REMARK    6  A    between atoms: C_23  and  C_14 
REMARK    7  A    between atoms: C_24  and  C_15 
REMARK    8  A    between atoms: C_25  and  C_15 
REMARK    9  A    between atoms: C_26  and  C_16 
REMARK   10  A    between atoms: C_27  and  C_16 
REMARK   11  A    between atoms: C_28  and  C_17 
REMARK   12  A    between atoms: C_29  and  C_17 
REMARK   13  A    between atoms: C_35  and  C_19 
REMARK   14  A    between atoms: C_36  and  C_21 
REMARK   15  A    between atoms: C_37  and  C_23 
REMARK   16  A    between atoms: C_38  and  C_25 
REMARK   17  A    between atoms: C_39  and  C_27 
REMARK   18  A    between atoms: C_40  and  C_29 
REMARK   19  A    between atoms: C_33  and  C_32 
REMARK   20  A    between atoms: C_42  and  C_33 
ROOT
HETATM    1  C   UNK N   1       4.957   7.292  -0.561  0.00  0.00     0.031 C 
ENDROOT
BRANCH   1   2
HETATM    2  C   UNK N   1       5.876   8.120   0.273  0.00  0.00    -0.024 C 
HETATM    3  C   UNK N   1       7.188   8.185  -0.001  0.00  0.00    -0.087 C 
HETATM    4  C   UNK N   1       7.780   7.512  -1.200  0.00  0.00     0.043 C 
BRANCH   3   5
HETATM    5  C   UNK N   1       8.113   8.832   0.966  0.00  0.00     0.037 C 
BRANCH   5   6
HETATM    6  C   UNK N   1       7.702  10.241   1.327  0.00  0.00     0.031 C 
BRANCH   6   7
HETATM    7  C   UNK N   1       8.014  11.257   0.278  0.00  0.00    -0.024 C 
HETATM    8  C   UNK N   1       9.247  11.422  -0.240  0.00  0.00    -0.087 C 
HETATM    9  C   UNK N   1      10.388  10.518   0.110  0.00  0.00     0.043 C 
BRANCH   8  10
HETATM   10  C   UNK N   1       9.515  12.614  -1.092  0.00  0.00     0.037 C 
BRANCH  10  11
HETATM   11  C   UNK N   1       9.328  13.793  -0.144  0.00  0.00     0.031 C 
BRANCH  11  12
HETATM   12  C   UNK N   1      10.472  14.747  -0.059  0.00  0.00    -0.024 C 
HETATM   13  C   UNK N   1      11.766  14.392   0.098  0.00  0.00    -0.087 C 
HETATM   14  C   UNK N   1      12.216  12.972   0.176  0.00  0.00     0.043 C 
BRANCH  13  15
HETATM   15  C   UNK N   1      12.809  15.450   0.216  0.00  0.00     0.037 C 
BRANCH  15  16
HETATM   16  C   UNK N   1      12.677  16.468  -0.903  0.00  0.00     0.031 C 
BRANCH  16  17
HETATM   17  C   UNK N   1      12.676  17.828  -0.286  0.00  0.00    -0.024 C 
HETATM   18  C   UNK N   1      13.800  18.379   0.200  0.00  0.00    -0.087 C 
HETATM   19  C   UNK N   1      15.112  17.660   0.129  0.00  0.00     0.043 C 
BRANCH  18  20
HETATM   20  C   UNK N   1      13.766  19.733   0.825  0.00  0.00     0.037 C 
BRANCH  20  21
HETATM   21  C   UNK N   1      13.432  20.780  -0.225  0.00  0.00     0.031 C 
BRANCH  21  22
HETATM   22  C   UNK N   1      14.204  22.037   0.028  0.00  0.00    -0.024 C 
HETATM   23  C   UNK N   1      15.538  22.113  -0.076  0.00  0.00    -0.091 C 
HETATM   24  C   UNK N   1      16.212  23.412   0.190  0.00  0.00     0.042 C 
HETATM   25  C   UNK N   1      16.373  20.930  -0.457  0.00  0.00     0.042 C 
ENDBRANCH  21  22
ENDBRANCH  20  21
ENDBRANCH  18  20
ENDBRANCH  16  17
ENDBRANCH  15  16
ENDBRANCH  13  15
ENDBRANCH  11  12
ENDBRANCH  10  11
ENDBRANCH   8  10
ENDBRANCH   6   7
ENDBRANCH   5   6
ENDBRANCH   3   5
ENDBRANCH   1   2
BRANCH   1  26
HETATM   26  C   UNK N   1       4.721   5.993   0.201  0.00  0.00     0.037 C 
BRANCH  26  27
HETATM   27  C   UNK N   1       6.002   5.210   0.337  0.00  0.00    -0.087 C 
HETATM   28  C   UNK N   1       6.795   5.327   1.604  0.00  0.00     0.043 C 
HETATM   29  C   UNK N   1       6.424   4.429  -0.667  0.00  0.00    -0.024 C 
BRANCH  29  30
HETATM   30  C   UNK N   1       7.680   3.588  -0.545  0.00  0.00     0.031 C 
BRANCH  30  31
HETATM   31  C   UNK N   1       7.496   2.440   0.470  0.00  0.00     0.037 C 
BRANCH  31  32
HETATM   32  C   UNK N   1       6.407   1.580  -0.070  0.00  0.00    -0.087 C 
HETATM   33  C   UNK N   1       6.762   0.537  -1.086  0.00  0.00     0.043 C 
HETATM   34  C   UNK N   1       5.131   1.925   0.173  0.00  0.00    -0.020 C 
BRANCH  34  35
HETATM   35  C   UNK N   1       4.079   1.410  -0.738  0.00  0.00     0.070 C 
BRANCH  35  36
HETATM   36  C   UNK N   1       2.818   0.820  -0.223  0.00  0.00     0.006 A 
HETATM   37  C   UNK N   1       2.724  -0.522  -0.076  0.00  0.00    -0.001 A 
HETATM   38  C   UNK N   1       3.931  -1.397  -0.252  0.00  0.00     0.053 C 
HETATM   39  C   UNK N   1       1.407  -1.150   0.173  0.00  0.00     0.189 A 
HETATM   40  C   UNK N   1       0.182  -0.324   0.181  0.00  0.00     0.029 A 
HETATM   41  O   UNK N   1       1.327  -2.369   0.284  0.00  0.00    -0.287 OA
HETATM   42  C   UNK N   1      -1.083  -0.917   0.273  0.00  0.00     0.016 A 
HETATM   43  C   UNK N   1       0.287   1.077   0.060  0.00  0.00     0.029 A 
HETATM   44  C   UNK N   1      -2.235  -0.129   0.245  0.00  0.00     0.001 A 
HETATM   45  C   UNK N   1      -2.130   1.261   0.137  0.00  0.00     0.001 A 
HETATM   46  C   UNK N   1      -0.873   1.862   0.046  0.00  0.00     0.016 A 
HETATM   47  C   UNK N   1       1.619   1.688  -0.100  0.00  0.00     0.190 A 
HETATM   48  O   UNK N   1       1.728   2.907  -0.198  0.00  0.00    -0.287 OA
ENDBRANCH  35  36
ENDBRANCH  34  35
ENDBRANCH  31  32
ENDBRANCH  30  31
ENDBRANCH  29  30
ENDBRANCH  26  27
ENDBRANCH   1  26
TORSDOF 20
