MODEL 1
REMARK VINA RESULT:     -10.6      0.000      0.000
REMARK  5 active torsions:
REMARK  status: ('A' for Active; 'I' for Inactive)
REMARK    1  A    between atoms: C_19  and  C_20 
REMARK    2  A    between atoms: C_20  and  C_22 
REMARK    3  A    between atoms: C_22  and  N_23 
REMARK    4  A    between atoms: N_26  and  C_29 
REMARK    5  A    between atoms: C_31  and  N_42 
REMARK       I    between atoms: C_34  and  N_37 
ROOT
HETATM    1  N   UNK N   1      36.059  13.642   9.428  0.00  0.00     0.098 N 
HETATM    2  C   UNK N   1      37.223  13.997  10.263  0.00  0.00     0.292 C 
HETATM    3  C   UNK N   1      37.628  12.885  11.235  0.00  0.00     0.154 C 
HETATM    4  N   UNK N   1      36.427  12.296  11.785  0.00  0.00    -0.363 N 
HETATM    5  C   UNK N   1      35.382  11.825  10.902  0.00  0.00     0.154 C 
HETATM    6  C   UNK N   1      35.701  12.217   9.473  0.00  0.00     0.292 C 
ENDROOT
BRANCH   1   7
HETATM    7  C   UNK N   1      34.918  14.476   9.806  0.00  0.00     0.350 C 
BRANCH   7   8
HETATM    8  C   UNK N   1      35.040  15.874   9.252  0.00  0.00     0.160 C 
HETATM    9  O   UNK N   1      35.528  16.737   9.966  0.00  0.00    -0.296 OA
BRANCH   8  10
HETATM   10  C   UNK N   1      34.589  16.247   7.844  0.00  0.00     0.069 C 
HETATM   11  C   UNK N   1      33.218  16.891   7.670  0.00  0.00    -0.026 C 
HETATM   12  C   UNK N   1      32.122  16.093   8.404  0.00  0.00     0.038 C 
HETATM   13  C   UNK N   1      32.995  16.794   6.167  0.00  0.00     0.003 C 
HETATM   14  C   UNK N   1      33.234  18.368   8.053  0.00  0.00     0.016 C 
HETATM   15  C   UNK N   1      30.784  16.673   8.116  0.00  0.00    -0.021 C 
HETATM   16  C   UNK N   1      30.478  17.056   6.870  0.00  0.00    -0.063 C 
HETATM   17  C   UNK N   1      29.102  17.631   6.595  0.00  0.00     0.021 C 
HETATM   18  C   UNK N   1      31.505  16.853   5.752  0.00  0.00     0.021 C 
HETATM   19  C   UNK N   1      28.797  18.808   7.508  0.00  0.00    -0.004 C 
HETATM   20  C   UNK N   1      28.906  18.022   5.134  0.00  0.00    -0.060 C 
HETATM   21  C   UNK N   1      28.066  16.555   6.913  0.00  0.00     0.029 C 
HETATM   22  C   UNK N   1      27.793  19.648   7.209  0.00  0.00     0.052 C 
HETATM   23  C   UNK N   1      27.186  19.584   5.863  0.00  0.00     0.172 C 
HETATM   24  C   UNK N   1      27.928  18.879   4.794  0.00  0.00     0.059 C 
HETATM   25  O   UNK N   1      26.173  20.213   5.607  0.00  0.00    -0.289 OA
HETATM   26  C   UNK N   1      29.771  17.420   4.070  0.00  0.00     0.036 C 
HETATM   27  C   UNK N   1      31.230  17.610   4.459  0.00  0.00     0.014 C 
HETATM   28  C   UNK N   1      33.668  15.493   5.729  0.00  0.00     0.011 C 
HETATM   29  C   UNK N   1      34.542  15.053   6.905  0.00  0.00    -0.006 C 
HETATM   30  C   UNK N   1      35.929  14.650   6.441  0.00  0.00     0.011 C 
ENDBRANCH   8  10
ENDBRANCH   7   8
ENDBRANCH   1   7
BRANCH   4  31
HETATM   31  C   UNK N   1      36.271  12.118  13.175  0.00  0.00     0.122 A 
HETATM   32  C   UNK N   1      36.322  13.205  14.035  0.00  0.00     0.097 A 
HETATM   33  C   UNK N   1      36.320  12.980  15.408  0.00  0.00     0.122 A 
HETATM   34  N   UNK N   1      36.222  11.700  15.882  0.00  0.00    -0.177 N 
HETATM   35  C   UNK N   1      36.128  10.645  15.018  0.00  0.00     0.683 A 
ATOM     36  HN  UNK N   1      36.220  11.532  16.888  1.00  0.00     0.186 HD
HETATM   37  N   UNK N   1      36.180  10.867  13.684  0.00  0.00    -0.177 N 
HETATM   38  N   UNK N   1      36.024   9.312  15.494  0.00  0.00    -0.217 N 
ATOM     39  HN  UNK N   1      36.149  10.072  13.046  1.00  0.00     0.186 HD
HETATM   40  C   UNK N   1      36.059   8.972  16.882  0.00  0.00     0.141 C 
HETATM   41  C   UNK N   1      35.901   8.202  14.593  0.00  0.00     0.141 C 
HETATM   42  C   UNK N   1      36.042   7.452  16.911  0.00  0.00     0.022 C 
HETATM   43  C   UNK N   1      35.783   6.980  15.482  0.00  0.00     0.022 C 
BRANCH  33  44
HETATM   44  N   UNK N   1      36.543  14.071  16.291  0.00  0.00    -0.367 N 
HETATM   45  C   UNK N   1      35.831  14.200  17.531  0.00  0.00     0.124 A 
HETATM   46  C   UNK N   1      36.141  15.594  18.033  0.00  0.00     0.021 A 
HETATM   47  C   UNK N   1      37.017  16.261  16.974  0.00  0.00     0.021 A 
HETATM   48  C   UNK N   1      37.308  15.218  15.907  0.00  0.00     0.124 A 
ENDBRANCH  33  44
ENDBRANCH   4  31
TORSDOF 5
ENDMDL
MODEL 2
REMARK VINA RESULT:     -10.4      7.879     13.142
REMARK  5 active torsions:
REMARK  status: ('A' for Active; 'I' for Inactive)
REMARK    1  A    between atoms: C_19  and  C_20 
REMARK    2  A    between atoms: C_20  and  C_22 
REMARK    3  A    between atoms: C_22  and  N_23 
REMARK    4  A    between atoms: N_26  and  C_29 
REMARK    5  A    between atoms: C_31  and  N_42 
REMARK       I    between atoms: C_34  and  N_37 
ROOT
HETATM    1  N   UNK N   1      23.086  16.625   3.379  0.00  0.00     0.098 N 
HETATM    2  C   UNK N   1      22.987  15.206   3.773  0.00  0.00     0.292 C 
HETATM    3  C   UNK N   1      21.622  14.838   4.361  0.00  0.00     0.154 C 
HETATM    4  N   UNK N   1      21.188  15.917   5.223  0.00  0.00    -0.363 N 
HETATM    5  C   UNK N   1      21.163  17.275   4.725  0.00  0.00     0.154 C 
HETATM    6  C   UNK N   1      21.797  17.331   3.350  0.00  0.00     0.292 C 
ENDROOT
BRANCH   1   7
HETATM    7  C   UNK N   1      24.031  17.309   4.262  0.00  0.00     0.350 C 
BRANCH   7   8
HETATM    8  C   UNK N   1      25.430  17.305   3.695  0.00  0.00     0.160 C 
HETATM    9  O   UNK N   1      25.819  18.305   3.112  0.00  0.00    -0.296 OA
BRANCH   8  10
HETATM   10  C   UNK N   1      26.371  16.113   3.827  0.00  0.00     0.069 C 
HETATM   11  C   UNK N   1      27.629  16.275   4.675  0.00  0.00    -0.026 C 
HETATM   12  C   UNK N   1      28.407  17.550   4.292  0.00  0.00     0.038 C 
HETATM   13  C   UNK N   1      28.446  15.049   4.292  0.00  0.00     0.003 C 
HETATM   14  C   UNK N   1      27.320  16.194   6.167  0.00  0.00     0.016 C 
HETATM   15  C   UNK N   1      29.686  17.617   5.046  0.00  0.00    -0.021 C 
HETATM   16  C   UNK N   1      30.430  16.514   5.195  0.00  0.00    -0.063 C 
HETATM   17  C   UNK N   1      31.739  16.607   5.955  0.00  0.00     0.021 C 
HETATM   18  C   UNK N   1      29.964  15.205   4.551  0.00  0.00     0.021 C 
HETATM   19  C   UNK N   1      31.538  17.198   7.342  0.00  0.00    -0.004 C 
HETATM   20  C   UNK N   1      32.468  15.271   6.044  0.00  0.00    -0.060 C 
HETATM   21  C   UNK N   1      32.657  17.569   5.203  0.00  0.00     0.029 C 
HETATM   22  C   UNK N   1      32.493  17.061   8.276  0.00  0.00     0.052 C 
HETATM   23  C   UNK N   1      33.593  16.104   8.037  0.00  0.00     0.172 C 
HETATM   24  C   UNK N   1      33.414  15.083   6.979  0.00  0.00     0.059 C 
HETATM   25  O   UNK N   1      34.558  16.067   8.780  0.00  0.00    -0.289 OA
HETATM   26  C   UNK N   1      32.166  14.181   5.062  0.00  0.00     0.036 C 
HETATM   27  C   UNK N   1      30.663  13.943   5.042  0.00  0.00     0.014 C 
HETATM   28  C   UNK N   1      28.133  14.781   2.820  0.00  0.00     0.011 C 
HETATM   29  C   UNK N   1      26.905  15.632   2.488  0.00  0.00    -0.006 C 
HETATM   30  C   UNK N   1      25.868  14.830   1.726  0.00  0.00     0.011 C 
ENDBRANCH   8  10
ENDBRANCH   7   8
ENDBRANCH   1   7
BRANCH   4  31
HETATM   31  C   UNK N   1      20.733  15.666   6.533  0.00  0.00     0.122 A 
HETATM   32  C   UNK N   1      19.814  16.512   7.135  0.00  0.00     0.097 A 
HETATM   33  C   UNK N   1      19.503  16.325   8.479  0.00  0.00     0.122 A 
HETATM   34  N   UNK N   1      20.073  15.287   9.165  0.00  0.00    -0.177 N 
HETATM   35  C   UNK N   1      20.943  14.437   8.542  0.00  0.00     0.683 A 
ATOM     36  HN  UNK N   1      19.847  15.148  10.150  1.00  0.00     0.186 HD
HETATM   37  N   UNK N   1      21.278  14.653   7.248  0.00  0.00    -0.177 N 
HETATM   38  N   UNK N   1      21.540  13.355   9.240  0.00  0.00    -0.217 N 
ATOM     39  HN  UNK N   1      21.958  14.038   6.801  1.00  0.00     0.186 HD
HETATM   40  C   UNK N   1      21.323  13.106  10.631  0.00  0.00     0.141 C 
HETATM   41  C   UNK N   1      22.436  12.445   8.586  0.00  0.00     0.141 C 
HETATM   42  C   UNK N   1      22.245  11.945  10.966  0.00  0.00     0.022 C 
HETATM   43  C   UNK N   1      22.820  11.433   9.647  0.00  0.00     0.022 C 
BRANCH  33  44
HETATM   44  N   UNK N   1      18.696  17.287   9.145  0.00  0.00    -0.367 N 
HETATM   45  C   UNK N   1      19.262  18.456   9.755  0.00  0.00     0.124 A 
HETATM   46  C   UNK N   1      18.144  19.066  10.575  0.00  0.00     0.021 A 
HETATM   47  C   UNK N   1      16.938  18.138  10.437  0.00  0.00     0.021 A 
HETATM   48  C   UNK N   1      17.319  17.047   9.450  0.00  0.00     0.124 A 
ENDBRANCH  33  44
ENDBRANCH   4  31
TORSDOF 5
ENDMDL
MODEL 3
REMARK VINA RESULT:     -10.3      2.143      4.446
REMARK  5 active torsions:
REMARK  status: ('A' for Active; 'I' for Inactive)
REMARK    1  A    between atoms: C_19  and  C_20 
REMARK    2  A    between atoms: C_20  and  C_22 
REMARK    3  A    between atoms: C_22  and  N_23 
REMARK    4  A    between atoms: N_26  and  C_29 
REMARK    5  A    between atoms: C_31  and  N_42 
REMARK       I    between atoms: C_34  and  N_37 
ROOT
HETATM    1  N   UNK N   1      33.533  16.133   8.609  0.00  0.00     0.098 N 
HETATM    2  C   UNK N   1      32.932  15.036   9.391  0.00  0.00     0.292 C 
HETATM    3  C   UNK N   1      33.526  14.902  10.795  0.00  0.00     0.154 C 
HETATM    4  N   UNK N   1      34.956  15.103  10.710  0.00  0.00    -0.363 N 
HETATM    5  C   UNK N   1      35.484  16.283  10.060  0.00  0.00     0.154 C 
HETATM    6  C   UNK N   1      34.357  17.055   9.403  0.00  0.00     0.292 C 
ENDROOT
BRANCH   1   7
HETATM    7  C   UNK N   1      34.306  15.572   7.500  0.00  0.00     0.350 C 
BRANCH   7   8
HETATM    8  C   UNK N   1      34.004  16.272   6.198  0.00  0.00     0.160 C 
HETATM    9  O   UNK N   1      34.620  17.293   5.935  0.00  0.00    -0.296 OA
BRANCH   8  10
HETATM   10  C   UNK N   1      32.975  15.752   5.200  0.00  0.00     0.069 C 
HETATM   11  C   UNK N   1      31.715  16.579   4.963  0.00  0.00    -0.026 C 
HETATM   12  C   UNK N   1      31.042  16.974   6.292  0.00  0.00     0.038 C 
HETATM   13  C   UNK N   1      30.818  15.606   4.210  0.00  0.00     0.003 C 
HETATM   14  C   UNK N   1      31.986  17.775   4.056  0.00  0.00     0.016 C 
HETATM   15  C   UNK N   1      29.755  17.671   6.029  0.00  0.00    -0.021 C 
HETATM   16  C   UNK N   1      28.929  17.209   5.082  0.00  0.00    -0.063 C 
HETATM   17  C   UNK N   1      27.615  17.926   4.839  0.00  0.00     0.021 C 
HETATM   18  C   UNK N   1      29.310  15.943   4.309  0.00  0.00     0.021 C 
HETATM   19  C   UNK N   1      27.830  19.404   4.558  0.00  0.00    -0.004 C 
HETATM   20  C   UNK N   1      26.787  17.285   3.730  0.00  0.00    -0.060 C 
HETATM   21  C   UNK N   1      26.786  17.844   6.120  0.00  0.00     0.029 C 
HETATM   22  C   UNK N   1      26.848  20.133   4.002  0.00  0.00     0.052 C 
HETATM   23  C   UNK N   1      25.686  19.434   3.415  0.00  0.00     0.172 C 
HETATM   24  C   UNK N   1      25.811  17.987   3.131  0.00  0.00     0.059 C 
HETATM   25  O   UNK N   1      24.705  20.058   3.048  0.00  0.00    -0.289 OA
HETATM   26  C   UNK N   1      27.029  15.861   3.337  0.00  0.00     0.036 C 
HETATM   27  C   UNK N   1      28.510  15.679   3.040  0.00  0.00     0.014 C 
HETATM   28  C   UNK N   1      31.141  14.221   4.770  0.00  0.00     0.011 C 
HETATM   29  C   UNK N   1      32.435  14.381   5.572  0.00  0.00    -0.006 C 
HETATM   30  C   UNK N   1      33.426  13.280   5.244  0.00  0.00     0.011 C 
ENDBRANCH   8  10
ENDBRANCH   7   8
ENDBRANCH   1   7
BRANCH   4  31
HETATM   31  C   UNK N   1      35.858  14.192  11.298  0.00  0.00     0.122 A 
HETATM   32  C   UNK N   1      36.878  13.626  10.549  0.00  0.00     0.097 A 
HETATM   33  C   UNK N   1      37.653  12.618  11.117  0.00  0.00     0.122 A 
HETATM   34  N   UNK N   1      37.424  12.239  12.411  0.00  0.00    -0.177 N 
HETATM   35  C   UNK N   1      36.442  12.841  13.148  0.00  0.00     0.683 A 
ATOM     36  HN  UNK N   1      37.989  11.501  12.829  1.00  0.00     0.186 HD
HETATM   37  N   UNK N   1      35.661  13.786  12.575  0.00  0.00    -0.177 N 
HETATM   38  N   UNK N   1      36.195  12.460  14.493  0.00  0.00    -0.217 N 
ATOM     39  HN  UNK N   1      34.905  14.203  13.118  1.00  0.00     0.186 HD
HETATM   40  C   UNK N   1      36.902  11.407  15.150  0.00  0.00     0.141 C 
HETATM   41  C   UNK N   1      35.182  13.104  15.279  0.00  0.00     0.141 C 
HETATM   42  C   UNK N   1      36.228  11.274  16.507  0.00  0.00     0.022 C 
HETATM   43  C   UNK N   1      35.257  12.445  16.642  0.00  0.00     0.022 C 
BRANCH  33  44
HETATM   44  N   UNK N   1      38.584  11.917  10.303  0.00  0.00    -0.367 N 
HETATM   45  C   UNK N   1      39.438  12.597   9.372  0.00  0.00     0.124 A 
HETATM   46  C   UNK N   1      40.064  11.508   8.526  0.00  0.00     0.021 A 
HETATM   47  C   UNK N   1      39.465  10.184   8.997  0.00  0.00     0.021 A 
HETATM   48  C   UNK N   1      38.573  10.490  10.189  0.00  0.00     0.124 A 
ENDBRANCH  33  44
ENDBRANCH   4  31
TORSDOF 5
ENDMDL
MODEL 4
REMARK VINA RESULT:     -10.2      3.889     11.377
REMARK  5 active torsions:
REMARK  status: ('A' for Active; 'I' for Inactive)
REMARK    1  A    between atoms: C_19  and  C_20 
REMARK    2  A    between atoms: C_20  and  C_22 
REMARK    3  A    between atoms: C_22  and  N_23 
REMARK    4  A    between atoms: N_26  and  C_29 
REMARK    5  A    between atoms: C_31  and  N_42 
REMARK       I    between atoms: C_34  and  N_37 
ROOT
HETATM    1  N   UNK N   1      35.395  13.772   6.675  0.00  0.00     0.098 N 
HETATM    2  C   UNK N   1      34.271  12.920   6.239  0.00  0.00     0.292 C 
HETATM    3  C   UNK N   1      33.421  13.561   5.139  0.00  0.00     0.154 C 
HETATM    4  N   UNK N   1      33.259  14.967   5.443  0.00  0.00    -0.363 N 
HETATM    5  C   UNK N   1      34.421  15.787   5.713  0.00  0.00     0.154 C 
HETATM    6  C   UNK N   1      35.658  14.916   5.791  0.00  0.00     0.292 C 
ENDROOT
BRANCH   1   7
HETATM    7  C   UNK N   1      35.160  14.222   8.047  0.00  0.00     0.350 C 
BRANCH   7   8
HETATM    8  C   UNK N   1      36.343  13.935   8.940  0.00  0.00     0.160 C 
HETATM    9  O   UNK N   1      37.265  13.279   8.482  0.00  0.00    -0.296 OA
BRANCH   8  10
HETATM   10  C   UNK N   1      36.434  14.438  10.376  0.00  0.00     0.069 C 
HETATM   11  C   UNK N   1      36.443  13.410  11.503  0.00  0.00    -0.026 C 
HETATM   12  C   UNK N   1      35.295  12.394  11.349  0.00  0.00     0.038 C 
HETATM   13  C   UNK N   1      36.197  14.269  12.736  0.00  0.00     0.003 C 
HETATM   14  C   UNK N   1      37.809  12.746  11.652  0.00  0.00     0.016 C 
HETATM   15  C   UNK N   1      35.254  11.483  12.523  0.00  0.00    -0.021 C 
HETATM   16  C   UNK N   1      35.421  11.976  13.756  0.00  0.00    -0.063 C 
HETATM   17  C   UNK N   1      35.361  11.032  14.941  0.00  0.00     0.021 C 
HETATM   18  C   UNK N   1      35.615  13.485  13.937  0.00  0.00     0.021 C 
HETATM   19  C   UNK N   1      36.344   9.882  14.787  0.00  0.00    -0.004 C 
HETATM   20  C   UNK N   1      35.573  11.741  16.274  0.00  0.00    -0.060 C 
HETATM   21  C   UNK N   1      33.967  10.409  14.981  0.00  0.00     0.029 C 
HETATM   22  C   UNK N   1      36.677   9.135  15.852  0.00  0.00     0.052 C 
HETATM   23  C   UNK N   1      36.310   9.614  17.201  0.00  0.00     0.172 C 
HETATM   24  C   UNK N   1      35.931  11.036  17.360  0.00  0.00     0.059 C 
HETATM   25  O   UNK N   1      36.451   8.894  18.176  0.00  0.00    -0.289 OA
HETATM   26  C   UNK N   1      35.339  13.216  16.388  0.00  0.00     0.036 C 
HETATM   27  C   UNK N   1      36.134  13.924  15.300  0.00  0.00     0.014 C 
HETATM   28  C   UNK N   1      35.275  15.400  12.280  0.00  0.00     0.011 C 
HETATM   29  C   UNK N   1      35.289  15.365  10.750  0.00  0.00    -0.006 C 
HETATM   30  C   UNK N   1      35.478  16.753  10.168  0.00  0.00     0.011 C 
ENDBRANCH   8  10
ENDBRANCH   7   8
ENDBRANCH   1   7
BRANCH   4  31
HETATM   31  C   UNK N   1      31.988  15.574   5.431  0.00  0.00     0.122 A 
HETATM   32  C   UNK N   1      31.605  16.430   6.452  0.00  0.00     0.097 A 
HETATM   33  C   UNK N   1      30.292  16.891   6.491  0.00  0.00     0.122 A 
HETATM   34  N   UNK N   1      29.421  16.529   5.500  0.00  0.00    -0.177 N 
HETATM   35  C   UNK N   1      29.829  15.720   4.477  0.00  0.00     0.683 A 
ATOM     36  HN  UNK N   1      28.458  16.864   5.526  1.00  0.00     0.186 HD
HETATM   37  N   UNK N   1      31.094  15.236   4.471  0.00  0.00    -0.177 N 
HETATM   38  N   UNK N   1      28.938  15.337   3.441  0.00  0.00    -0.217 N 
ATOM     39  HN  UNK N   1      31.380  14.602   3.726  1.00  0.00     0.186 HD
HETATM   40  C   UNK N   1      27.560  15.718   3.414  0.00  0.00     0.141 C 
HETATM   41  C   UNK N   1      29.367  14.507   2.352  0.00  0.00     0.141 C 
HETATM   42  C   UNK N   1      26.979  14.990   2.212  0.00  0.00     0.022 C 
HETATM   43  C   UNK N   1      28.150  14.362   1.460  0.00  0.00     0.022 C 
BRANCH  33  44
HETATM   44  N   UNK N   1      29.847  17.628   7.622  0.00  0.00    -0.367 N 
HETATM   45  C   UNK N   1      30.751  18.044   8.657  0.00  0.00     0.124 A 
HETATM   46  C   UNK N   1      29.873  18.543   9.785  0.00  0.00     0.021 A 
HETATM   47  C   UNK N   1      28.425  18.327   9.347  0.00  0.00     0.021 A 
HETATM   48  C   UNK N   1      28.459  17.803   7.920  0.00  0.00     0.124 A 
ENDBRANCH  33  44
ENDBRANCH   4  31
TORSDOF 5
ENDMDL
MODEL 5
REMARK VINA RESULT:     -10.0      3.959     11.665
REMARK  5 active torsions:
REMARK  status: ('A' for Active; 'I' for Inactive)
REMARK    1  A    between atoms: C_19  and  C_20 
REMARK    2  A    between atoms: C_20  and  C_22 
REMARK    3  A    between atoms: C_22  and  N_23 
REMARK    4  A    between atoms: N_26  and  C_29 
REMARK    5  A    between atoms: C_31  and  N_42 
REMARK       I    between atoms: C_34  and  N_37 
ROOT
HETATM    1  N   UNK N   1      35.303  13.883   6.498  0.00  0.00     0.098 N 
HETATM    2  C   UNK N   1      34.334  12.879   6.019  0.00  0.00     0.292 C 
HETATM    3  C   UNK N   1      33.324  13.446   5.017  0.00  0.00     0.154 C 
HETATM    4  N   UNK N   1      32.923  14.762   5.464  0.00  0.00    -0.363 N 
HETATM    5  C   UNK N   1      33.926  15.758   5.774  0.00  0.00     0.154 C 
HETATM    6  C   UNK N   1      35.305  15.132   5.723  0.00  0.00     0.292 C 
ENDROOT
BRANCH   1   7
HETATM    7  C   UNK N   1      35.061  14.155   7.915  0.00  0.00     0.350 C 
BRANCH   7   8
HETATM    8  C   UNK N   1      36.313  13.978   8.740  0.00  0.00     0.160 C 
HETATM    9  O   UNK N   1      37.268  13.419   8.226  0.00  0.00    -0.296 OA
BRANCH   8  10
HETATM   10  C   UNK N   1      36.433  14.477  10.176  0.00  0.00     0.069 C 
HETATM   11  C   UNK N   1      36.461  13.446  11.300  0.00  0.00    -0.026 C 
HETATM   12  C   UNK N   1      35.309  12.431  11.164  0.00  0.00     0.038 C 
HETATM   13  C   UNK N   1      36.240  14.302  12.540  0.00  0.00     0.003 C 
HETATM   14  C   UNK N   1      37.828  12.779  11.420  0.00  0.00     0.016 C 
HETATM   15  C   UNK N   1      35.289  11.517  12.336  0.00  0.00    -0.021 C 
HETATM   16  C   UNK N   1      35.481  12.007  13.567  0.00  0.00    -0.063 C 
HETATM   17  C   UNK N   1      35.442  11.059  14.750  0.00  0.00     0.021 C 
HETATM   18  C   UNK N   1      35.680  13.515  13.749  0.00  0.00     0.021 C 
HETATM   19  C   UNK N   1      36.419   9.908  14.574  0.00  0.00    -0.004 C 
HETATM   20  C   UNK N   1      35.680  11.764  16.081  0.00  0.00    -0.060 C 
HETATM   21  C   UNK N   1      34.048  10.438  14.816  0.00  0.00     0.029 C 
HETATM   22  C   UNK N   1      36.772   9.158  15.631  0.00  0.00     0.052 C 
HETATM   23  C   UNK N   1      36.432   9.633  16.988  0.00  0.00     0.172 C 
HETATM   24  C   UNK N   1      36.058  11.055  17.158  0.00  0.00     0.059 C 
HETATM   25  O   UNK N   1      36.590   8.910  17.957  0.00  0.00    -0.289 OA
HETATM   26  C   UNK N   1      35.451  13.239  16.204  0.00  0.00     0.036 C 
HETATM   27  C   UNK N   1      36.226  13.948  15.103  0.00  0.00     0.014 C 
HETATM   28  C   UNK N   1      35.312  15.435  12.104  0.00  0.00     0.011 C 
HETATM   29  C   UNK N   1      35.296  15.404  10.574  0.00  0.00    -0.006 C 
HETATM   30  C   UNK N   1      35.476  16.793   9.993  0.00  0.00     0.011 C 
ENDBRANCH   8  10
ENDBRANCH   7   8
ENDBRANCH   1   7
BRANCH   4  31
HETATM   31  C   UNK N   1      31.563  15.119   5.555  0.00  0.00     0.122 A 
HETATM   32  C   UNK N   1      30.668  14.747   4.562  0.00  0.00     0.097 A 
HETATM   33  C   UNK N   1      29.368  15.245   4.605  0.00  0.00     0.122 A 
HETATM   34  N   UNK N   1      28.988  16.050   5.643  0.00  0.00    -0.177 N 
HETATM   35  C   UNK N   1      29.871  16.369   6.636  0.00  0.00     0.683 A 
ATOM     36  HN  UNK N   1      28.036  16.416   5.676  1.00  0.00     0.186 HD
HETATM   37  N   UNK N   1      31.147  15.922   6.564  0.00  0.00    -0.177 N 
HETATM   38  N   UNK N   1      29.490  17.201   7.720  0.00  0.00    -0.217 N 
ATOM     39  HN  UNK N   1      31.812  16.195   7.287  1.00  0.00     0.186 HD
HETATM   40  C   UNK N   1      28.197  17.799   7.830  0.00  0.00     0.141 C 
HETATM   41  C   UNK N   1      30.406  17.520   8.777  0.00  0.00     0.141 C 
HETATM   42  C   UNK N   1      28.283  18.688   9.060  0.00  0.00     0.022 C 
HETATM   43  C   UNK N   1      29.618  18.387   9.739  0.00  0.00     0.022 C 
BRANCH  33  44
HETATM   44  N   UNK N   1      28.499  15.008   3.505  0.00  0.00    -0.367 N 
HETATM   45  C   UNK N   1      27.397  15.880   3.211  0.00  0.00     0.124 A 
HETATM   46  C   UNK N   1      26.575  15.154   2.166  0.00  0.00     0.021 A 
HETATM   47  C   UNK N   1      27.246  13.801   1.937  0.00  0.00     0.021 A 
HETATM   48  C   UNK N   1      28.520  13.783   2.767  0.00  0.00     0.124 A 
ENDBRANCH  33  44
ENDBRANCH   4  31
TORSDOF 5
ENDMDL
MODEL 6
REMARK VINA RESULT:     -10.0      3.473     12.360
REMARK  5 active torsions:
REMARK  status: ('A' for Active; 'I' for Inactive)
REMARK    1  A    between atoms: C_19  and  C_20 
REMARK    2  A    between atoms: C_20  and  C_22 
REMARK    3  A    between atoms: C_22  and  N_23 
REMARK    4  A    between atoms: N_26  and  C_29 
REMARK    5  A    between atoms: C_31  and  N_42 
REMARK       I    between atoms: C_34  and  N_37 
ROOT
HETATM    1  N   UNK N   1      36.035  14.511  11.050  0.00  0.00     0.098 N 
HETATM    2  C   UNK N   1      36.222  13.886   9.727  0.00  0.00     0.292 C 
HETATM    3  C   UNK N   1      35.842  14.809   8.566  0.00  0.00     0.154 C 
HETATM    4  N   UNK N   1      34.637  15.525   8.924  0.00  0.00    -0.363 N 
HETATM    5  C   UNK N   1      34.570  16.250  10.175  0.00  0.00     0.154 C 
HETATM    6  C   UNK N   1      35.807  15.962  11.002  0.00  0.00     0.292 C 
ENDROOT
BRANCH   1   7
HETATM    7  C   UNK N   1      34.942  13.839  11.754  0.00  0.00     0.350 C 
BRANCH   7   8
HETATM    8  C   UNK N   1      35.418  13.181  13.026  0.00  0.00     0.160 C 
HETATM    9  O   UNK N   1      35.651  13.892  13.991  0.00  0.00    -0.296 OA
BRANCH   8  10
HETATM   10  C   UNK N   1      35.609  11.674  13.155  0.00  0.00     0.069 C 
HETATM   11  C   UNK N   1      35.174  10.997  14.451  0.00  0.00    -0.026 C 
HETATM   12  C   UNK N   1      35.735  11.730  15.686  0.00  0.00     0.038 C 
HETATM   13  C   UNK N   1      35.820   9.623  14.340  0.00  0.00     0.003 C 
HETATM   14  C   UNK N   1      33.661  10.808  14.509  0.00  0.00     0.016 C 
HETATM   15  C   UNK N   1      35.398  10.980  16.924  0.00  0.00    -0.021 C 
HETATM   16  C   UNK N   1      35.511   9.646  16.948  0.00  0.00    -0.063 C 
HETATM   17  C   UNK N   1      35.177   8.902  18.226  0.00  0.00     0.021 C 
HETATM   18  C   UNK N   1      36.024   8.917  15.702  0.00  0.00     0.021 C 
HETATM   19  C   UNK N   1      33.777   9.237  18.716  0.00  0.00    -0.004 C 
HETATM   20  C   UNK N   1      35.351   7.393  18.095  0.00  0.00    -0.060 C 
HETATM   21  C   UNK N   1      36.141   9.371  19.314  0.00  0.00     0.029 C 
HETATM   22  C   UNK N   1      33.177   8.452  19.626  0.00  0.00     0.052 C 
HETATM   23  C   UNK N   1      33.764   7.129  19.923  0.00  0.00     0.172 C 
HETATM   24  C   UNK N   1      34.748   6.570  18.970  0.00  0.00     0.059 C 
HETATM   25  O   UNK N   1      33.345   6.458  20.851  0.00  0.00    -0.289 OA
HETATM   26  C   UNK N   1      36.227   6.826  17.022  0.00  0.00     0.036 C 
HETATM   27  C   UNK N   1      35.803   7.410  15.683  0.00  0.00     0.014 C 
HETATM   28  C   UNK N   1      37.138   9.840  13.595  0.00  0.00     0.011 C 
HETATM   29  C   UNK N   1      37.061  11.249  13.003  0.00  0.00    -0.006 C 
HETATM   30  C   UNK N   1      37.499  11.261  11.551  0.00  0.00     0.011 C 
ENDBRANCH   8  10
ENDBRANCH   7   8
ENDBRANCH   1   7
BRANCH   4  31
HETATM   31  C   UNK N   1      33.532  15.578   8.049  0.00  0.00     0.122 A 
HETATM   32  C   UNK N   1      33.600  14.998   6.792  0.00  0.00     0.097 A 
HETATM   33  C   UNK N   1      32.552  15.200   5.898  0.00  0.00     0.122 A 
HETATM   34  N   UNK N   1      31.462  15.927   6.290  0.00  0.00    -0.177 N 
HETATM   35  C   UNK N   1      31.394  16.455   7.549  0.00  0.00     0.683 A 
ATOM     36  HN  UNK N   1      30.693  16.078   5.637  1.00  0.00     0.186 HD
HETATM   37  N   UNK N   1      32.437  16.295   8.398  0.00  0.00    -0.177 N 
HETATM   38  N   UNK N   1      30.269  17.209   7.971  0.00  0.00    -0.217 N 
ATOM     39  HN  UNK N   1      32.397  16.724   9.322  1.00  0.00     0.186 HD
HETATM   40  C   UNK N   1      29.165  17.512   7.115  0.00  0.00     0.141 C 
HETATM   41  C   UNK N   1      30.182  17.745   9.299  0.00  0.00     0.141 C 
HETATM   42  C   UNK N   1      28.274  18.428   7.940  0.00  0.00     0.022 C 
HETATM   43  C   UNK N   1      28.836  18.441   9.360  0.00  0.00     0.022 C 
BRANCH  33  44
HETATM   44  N   UNK N   1      32.689  14.754   4.555  0.00  0.00    -0.367 N 
HETATM   45  C   UNK N   1      31.845  13.731   4.008  0.00  0.00     0.124 A 
HETATM   46  C   UNK N   1      32.471  13.356   2.681  0.00  0.00     0.021 A 
HETATM   47  C   UNK N   1      33.747  14.184   2.545  0.00  0.00     0.021 A 
HETATM   48  C   UNK N   1      33.807  15.121   3.741  0.00  0.00     0.124 A 
ENDBRANCH  33  44
ENDBRANCH   4  31
TORSDOF 5
ENDMDL
MODEL 7
REMARK VINA RESULT:      -9.9      6.344     12.873
REMARK  5 active torsions:
REMARK  status: ('A' for Active; 'I' for Inactive)
REMARK    1  A    between atoms: C_19  and  C_20 
REMARK    2  A    between atoms: C_20  and  C_22 
REMARK    3  A    between atoms: C_22  and  N_23 
REMARK    4  A    between atoms: N_26  and  C_29 
REMARK    5  A    between atoms: C_31  and  N_42 
REMARK       I    between atoms: C_34  and  N_37 
ROOT
HETATM    1  N   UNK N   1      27.881  15.276   4.266  0.00  0.00     0.098 N 
HETATM    2  C   UNK N   1      27.241  14.185   5.025  0.00  0.00     0.292 C 
HETATM    3  C   UNK N   1      25.822  13.868   4.544  0.00  0.00     0.154 C 
HETATM    4  N   UNK N   1      25.147  15.115   4.255  0.00  0.00    -0.363 N 
HETATM    5  C   UNK N   1      25.763  16.085   3.375  0.00  0.00     0.154 C 
HETATM    6  C   UNK N   1      27.172  15.646   3.033  0.00  0.00     0.292 C 
ENDROOT
BRANCH   1   7
HETATM    7  C   UNK N   1      28.047  16.441   5.136  0.00  0.00     0.350 C 
BRANCH   7   8
HETATM    8  C   UNK N   1      29.402  17.082   4.960  0.00  0.00     0.160 C 
HETATM    9  O   UNK N   1      29.804  17.277   3.824  0.00  0.00    -0.296 OA
BRANCH   8  10
HETATM   10  C   UNK N   1      30.276  17.501   6.137  0.00  0.00     0.069 C 
HETATM   11  C   UNK N   1      31.562  16.723   6.396  0.00  0.00    -0.026 C 
HETATM   12  C   UNK N   1      31.306  15.202   6.415  0.00  0.00     0.038 C 
HETATM   13  C   UNK N   1      31.954  17.188   7.792  0.00  0.00     0.003 C 
HETATM   14  C   UNK N   1      32.672  17.126   5.431  0.00  0.00     0.016 C 
HETATM   15  C   UNK N   1      32.549  14.478   6.791  0.00  0.00    -0.021 C 
HETATM   16  C   UNK N   1      33.317  14.943   7.784  0.00  0.00    -0.063 C 
HETATM   17  C   UNK N   1      34.572  14.180   8.161  0.00  0.00     0.021 C 
HETATM   18  C   UNK N   1      32.880  16.199   8.542  0.00  0.00     0.021 C 
HETATM   19  C   UNK N   1      35.479  13.969   6.959  0.00  0.00    -0.004 C 
HETATM   20  C   UNK N   1      35.341  14.835   9.303  0.00  0.00    -0.060 C 
HETATM   21  C   UNK N   1      34.157  12.790   8.639  0.00  0.00     0.029 C 
HETATM   22  C   UNK N   1      36.763  13.617   7.138  0.00  0.00     0.052 C 
HETATM   23  C   UNK N   1      37.347  13.716   8.492  0.00  0.00     0.172 C 
HETATM   24  C   UNK N   1      36.635  14.528   9.504  0.00  0.00     0.059 C 
HETATM   25  O   UNK N   1      38.451  13.257   8.728  0.00  0.00    -0.289 OA
HETATM   26  C   UNK N   1      34.649  15.784  10.231  0.00  0.00     0.036 C 
HETATM   27  C   UNK N   1      33.950  16.854   9.405  0.00  0.00     0.014 C 
HETATM   28  C   UNK N   1      30.641  17.432   8.536  0.00  0.00     0.011 C 
HETATM   29  C   UNK N   1      29.545  17.433   7.468  0.00  0.00    -0.006 C 
HETATM   30  C   UNK N   1      28.601  18.606   7.649  0.00  0.00     0.011 C 
ENDBRANCH   8  10
ENDBRANCH   7   8
ENDBRANCH   1   7
BRANCH   4  31
HETATM   31  C   UNK N   1      23.864  15.387   4.772  0.00  0.00     0.122 A 
HETATM   32  C   UNK N   1      23.023  16.287   4.136  0.00  0.00     0.097 A 
HETATM   33  C   UNK N   1      21.829  16.648   4.754  0.00  0.00     0.122 A 
HETATM   34  N   UNK N   1      21.489  16.078   5.950  0.00  0.00    -0.177 N 
HETATM   35  C   UNK N   1      22.311  15.159   6.541  0.00  0.00     0.683 A 
ATOM     36  HN  UNK N   1      20.616  16.341   6.406  1.00  0.00     0.186 HD
HETATM   37  N   UNK N   1      23.493  14.848   5.958  0.00  0.00    -0.177 N 
HETATM   38  N   UNK N   1      21.971  14.557   7.780  0.00  0.00    -0.217 N 
ATOM     39  HN  UNK N   1      24.119  14.191   6.424  1.00  0.00     0.186 HD
HETATM   40  C   UNK N   1      20.793  14.895   8.516  0.00  0.00     0.141 C 
HETATM   41  C   UNK N   1      22.818  13.575   8.393  0.00  0.00     0.141 C 
HETATM   42  C   UNK N   1      20.907  14.108   9.813  0.00  0.00     0.022 C 
HETATM   43  C   UNK N   1      22.097  13.163   9.661  0.00  0.00     0.022 C 
BRANCH  33  44
HETATM   44  N   UNK N   1      21.046  17.693   4.193  0.00  0.00    -0.367 N 
HETATM   45  C   UNK N   1      19.926  17.424   3.336  0.00  0.00     0.124 A 
HETATM   46  C   UNK N   1      19.540  18.762   2.742  0.00  0.00     0.021 A 
HETATM   47  C   UNK N   1      20.544  19.785   3.268  0.00  0.00     0.021 A 
HETATM   48  C   UNK N   1      21.449  19.065   4.254  0.00  0.00     0.124 A 
ENDBRANCH  33  44
ENDBRANCH   4  31
TORSDOF 5
ENDMDL
MODEL 8
REMARK VINA RESULT:      -9.8      3.434     12.075
REMARK  5 active torsions:
REMARK  status: ('A' for Active; 'I' for Inactive)
REMARK    1  A    between atoms: C_19  and  C_20 
REMARK    2  A    between atoms: C_20  and  C_22 
REMARK    3  A    between atoms: C_22  and  N_23 
REMARK    4  A    between atoms: N_26  and  C_29 
REMARK    5  A    between atoms: C_31  and  N_42 
REMARK       I    between atoms: C_34  and  N_37 
ROOT
HETATM    1  N   UNK N   1      36.105  14.402  11.099  0.00  0.00     0.098 N 
HETATM    2  C   UNK N   1      36.326  13.871   9.740  0.00  0.00     0.292 C 
HETATM    3  C   UNK N   1      36.063  14.904   8.641  0.00  0.00     0.154 C 
HETATM    4  N   UNK N   1      34.885  15.665   8.997  0.00  0.00    -0.363 N 
HETATM    5  C   UNK N   1      34.795  16.292  10.298  0.00  0.00     0.154 C 
HETATM    6  C   UNK N   1      35.967  15.863  11.158  0.00  0.00     0.292 C 
ENDROOT
BRANCH   1   7
HETATM    7  C   UNK N   1      34.939  13.747  11.693  0.00  0.00     0.350 C 
BRANCH   7   8
HETATM    8  C   UNK N   1      35.272  13.106  13.018  0.00  0.00     0.160 C 
HETATM    9  O   UNK N   1      35.351  13.824  14.003  0.00  0.00    -0.296 OA
BRANCH   8  10
HETATM   10  C   UNK N   1      35.504  11.607  13.175  0.00  0.00     0.069 C 
HETATM   11  C   UNK N   1      35.079  10.942  14.481  0.00  0.00    -0.026 C 
HETATM   12  C   UNK N   1      35.612  11.713  15.705  0.00  0.00     0.038 C 
HETATM   13  C   UNK N   1      35.763   9.585  14.399  0.00  0.00     0.003 C 
HETATM   14  C   UNK N   1      33.571  10.713  14.534  0.00  0.00     0.016 C 
HETATM   15  C   UNK N   1      35.288  10.976  16.956  0.00  0.00    -0.021 C 
HETATM   16  C   UNK N   1      35.437   9.647  17.004  0.00  0.00    -0.063 C 
HETATM   17  C   UNK N   1      35.115   8.918  18.294  0.00  0.00     0.021 C 
HETATM   18  C   UNK N   1      35.978   8.910  15.775  0.00  0.00     0.021 C 
HETATM   19  C   UNK N   1      33.704   9.223  18.770  0.00  0.00    -0.004 C 
HETATM   20  C   UNK N   1      35.331   7.412  18.191  0.00  0.00    -0.060 C 
HETATM   21  C   UNK N   1      36.059   9.432  19.379  0.00  0.00     0.029 C 
HETATM   22  C   UNK N   1      33.120   8.438  19.690  0.00  0.00     0.052 C 
HETATM   23  C   UNK N   1      33.740   7.137  20.015  0.00  0.00     0.172 C 
HETATM   24  C   UNK N   1      34.746   6.588  19.077  0.00  0.00     0.059 C 
HETATM   25  O   UNK N   1      33.335   6.471  20.952  0.00  0.00    -0.289 OA
HETATM   26  C   UNK N   1      36.230   6.850  17.134  0.00  0.00     0.036 C 
HETATM   27  C   UNK N   1      35.798   7.398  15.782  0.00  0.00     0.014 C 
HETATM   28  C   UNK N   1      37.079   9.825  13.658  0.00  0.00     0.011 C 
HETATM   29  C   UNK N   1      36.967  11.220  13.040  0.00  0.00    -0.006 C 
HETATM   30  C   UNK N   1      37.415  11.218  11.590  0.00  0.00     0.011 C 
ENDBRANCH   8  10
ENDBRANCH   7   8
ENDBRANCH   1   7
BRANCH   4  31
HETATM   31  C   UNK N   1      33.833  15.856   8.078  0.00  0.00     0.122 A 
HETATM   32  C   UNK N   1      32.682  16.532   8.453  0.00  0.00     0.097 A 
HETATM   33  C   UNK N   1      31.604  16.570   7.573  0.00  0.00     0.122 A 
HETATM   34  N   UNK N   1      31.716  15.981   6.344  0.00  0.00    -0.177 N 
HETATM   35  C   UNK N   1      32.875  15.357   5.975  0.00  0.00     0.683 A 
ATOM     36  HN  UNK N   1      30.928  16.006   5.697  1.00  0.00     0.186 HD
HETATM   37  N   UNK N   1      33.903  15.282   6.853  0.00  0.00    -0.177 N 
HETATM   38  N   UNK N   1      33.007  14.744   4.702  0.00  0.00    -0.217 N 
ATOM     39  HN  UNK N   1      34.750  14.782   6.586  1.00  0.00     0.186 HD
HETATM   40  C   UNK N   1      31.945  14.687   3.747  0.00  0.00     0.141 C 
HETATM   41  C   UNK N   1      34.229  14.109   4.300  0.00  0.00     0.141 C 
HETATM   42  C   UNK N   1      32.493  13.843   2.607  0.00  0.00     0.022 C 
HETATM   43  C   UNK N   1      33.977  13.618   2.888  0.00  0.00     0.022 C 
BRANCH  33  44
HETATM   44  N   UNK N   1      30.366  17.110   8.015  0.00  0.00    -0.367 N 
HETATM   45  C   UNK N   1      29.172  17.012   7.225  0.00  0.00     0.124 A 
HETATM   46  C   UNK N   1      28.166  17.924   7.895  0.00  0.00     0.021 A 
HETATM   47  C   UNK N   1      28.884  18.585   9.070  0.00  0.00     0.021 A 
HETATM   48  C   UNK N   1      30.274  17.975   9.151  0.00  0.00     0.124 A 
ENDBRANCH  33  44
ENDBRANCH   4  31
TORSDOF 5
ENDMDL
MODEL 9
REMARK VINA RESULT:      -9.8      4.120     11.472
REMARK  5 active torsions:
REMARK  status: ('A' for Active; 'I' for Inactive)
REMARK    1  A    between atoms: C_19  and  C_20 
REMARK    2  A    between atoms: C_20  and  C_22 
REMARK    3  A    between atoms: C_22  and  N_23 
REMARK    4  A    between atoms: N_26  and  C_29 
REMARK    5  A    between atoms: C_31  and  N_42 
REMARK       I    between atoms: C_34  and  N_37 
ROOT
HETATM    1  N   UNK N   1      34.671  15.586   6.010  0.00  0.00     0.098 N 
HETATM    2  C   UNK N   1      34.105  14.908   4.827  0.00  0.00     0.292 C 
HETATM    3  C   UNK N   1      33.075  15.760   4.081  0.00  0.00     0.154 C 
HETATM    4  N   UNK N   1      32.250  16.442   5.055  0.00  0.00    -0.363 N 
HETATM    5  C   UNK N   1      32.868  17.221   6.107  0.00  0.00     0.154 C 
HETATM    6  C   UNK N   1      34.370  17.023   6.079  0.00  0.00     0.292 C 
ENDROOT
BRANCH   1   7
HETATM    7  C   UNK N   1      34.220  14.903   7.223  0.00  0.00     0.350 C 
BRANCH   7   8
HETATM    8  C   UNK N   1      35.373  14.296   7.984  0.00  0.00     0.160 C 
HETATM    9  O   UNK N   1      36.032  13.426   7.436  0.00  0.00    -0.296 OA
BRANCH   8  10
HETATM   10  C   UNK N   1      35.750  14.730   9.396  0.00  0.00     0.069 C 
HETATM   11  C   UNK N   1      35.905  13.654  10.466  0.00  0.00    -0.026 C 
HETATM   12  C   UNK N   1      34.693  12.702  10.489  0.00  0.00     0.038 C 
HETATM   13  C   UNK N   1      35.934  14.469  11.753  0.00  0.00     0.003 C 
HETATM   14  C   UNK N   1      37.236  12.918  10.340  0.00  0.00     0.016 C 
HETATM   15  C   UNK N   1      34.814  11.743  11.618  0.00  0.00    -0.021 C 
HETATM   16  C   UNK N   1      35.228  12.173  12.817  0.00  0.00    -0.063 C 
HETATM   17  C   UNK N   1      35.331  11.181  13.959  0.00  0.00     0.021 C 
HETATM   18  C   UNK N   1      35.535  13.661  13.012  0.00  0.00     0.021 C 
HETATM   19  C   UNK N   1      36.204   9.993  13.589  0.00  0.00    -0.004 C 
HETATM   20  C   UNK N   1      35.818  11.820  15.255  0.00  0.00    -0.060 C 
HETATM   21  C   UNK N   1      33.935  10.626  14.232  0.00  0.00     0.029 C 
HETATM   22  C   UNK N   1      36.682   9.185  14.549  0.00  0.00     0.052 C 
HETATM   23  C   UNK N   1      36.592   9.620  15.958  0.00  0.00     0.172 C 
HETATM   24  C   UNK N   1      36.327  11.051  16.232  0.00  0.00     0.059 C 
HETATM   25  O   UNK N   1      36.865   8.853  16.865  0.00  0.00    -0.289 OA
HETATM   26  C   UNK N   1      35.691  13.298  15.461  0.00  0.00     0.036 C 
HETATM   27  C   UNK N   1      36.315  14.013  14.272  0.00  0.00     0.014 C 
HETATM   28  C   UNK N   1      35.009  15.662  11.512  0.00  0.00     0.011 C 
HETATM   29  C   UNK N   1      34.744  15.693  10.005  0.00  0.00    -0.006 C 
HETATM   30  C   UNK N   1      34.902  17.095   9.446  0.00  0.00     0.011 C 
ENDBRANCH   8  10
ENDBRANCH   7   8
ENDBRANCH   1   7
BRANCH   4  31
HETATM   31  C   UNK N   1      30.844  16.410   4.971  0.00  0.00     0.122 A 
HETATM   32  C   UNK N   1      30.104  17.578   5.076  0.00  0.00     0.097 A 
HETATM   33  C   UNK N   1      28.716  17.495   5.144  0.00  0.00     0.122 A 
HETATM   34  N   UNK N   1      28.109  16.271   5.061  0.00  0.00    -0.177 N 
HETATM   35  C   UNK N   1      28.854  15.134   4.914  0.00  0.00     0.683 A 
ATOM     36  HN  UNK N   1      27.093  16.207   5.111  1.00  0.00     0.186 HD
HETATM   37  N   UNK N   1      30.205  15.218   4.897  0.00  0.00    -0.177 N 
HETATM   38  N   UNK N   1      28.239  13.859   4.824  0.00  0.00    -0.217 N 
ATOM     39  HN  UNK N   1      30.755  14.363   4.826  1.00  0.00     0.186 HD
HETATM   40  C   UNK N   1      26.827  13.662   4.930  0.00  0.00     0.141 C 
HETATM   41  C   UNK N   1      29.013  12.665   4.646  0.00  0.00     0.141 C 
HETATM   42  C   UNK N   1      26.642  12.153   4.903  0.00  0.00     0.022 C 
HETATM   43  C   UNK N   1      27.999  11.541   4.565  0.00  0.00     0.022 C 
BRANCH  33  44
HETATM   44  N   UNK N   1      27.962  18.667   5.422  0.00  0.00    -0.367 N 
HETATM   45  C   UNK N   1      27.441  19.498   4.374  0.00  0.00     0.124 A 
HETATM   46  C   UNK N   1      26.953  20.756   5.060  0.00  0.00     0.021 A 
HETATM   47  C   UNK N   1      27.287  20.609   6.543  0.00  0.00     0.021 A 
HETATM   48  C   UNK N   1      27.869  19.219   6.739  0.00  0.00     0.124 A 
ENDBRANCH  33  44
ENDBRANCH   4  31
TORSDOF 5
ENDMDL
