MODEL 1
REMARK VINA RESULT:      -8.3      0.000      0.000
REMARK  7 active torsions:
REMARK  status: ('A' for Active; 'I' for Inactive)
REMARK    1  A    between atoms: C_3  and  C_23 
REMARK    2  A    between atoms: N_9  and  C_13 
REMARK    3  A    between atoms: C_13  and  C_14 
REMARK    4  A    between atoms: C_14  and  C_15 
REMARK    5  A    between atoms: C_14  and  O_22 
REMARK    6  A    between atoms: C_15  and  N_16 
REMARK    7  A    between atoms: C_23  and  C_24 
ROOT
HETATM    1  C   UNK N   1      32.476  18.085   8.201  0.00  0.00     0.052 C 
HETATM    2  C   UNK N   1      32.173  16.742   7.621  0.00  0.00    -0.018 A 
HETATM    3  C   UNK N   1      30.984  16.334   7.087  0.00  0.00     0.040 A 
HETATM    4  N   UNK N   1      31.063  15.072   6.616  0.00  0.00    -0.358 N 
HETATM    5  C   UNK N   1      32.318  14.669   6.903  0.00  0.00     0.026 A 
HETATM    6  C   UNK N   1      33.015  15.686   7.518  0.00  0.00     0.062 A 
HETATM    7  C   UNK N   1      34.384  15.647   8.016  0.00  0.00     0.256 C 
HETATM    8  O   UNK N   1      35.066  16.659   7.992  0.00  0.00    -0.267 OA
HETATM    9  N   UNK N   1      34.837  14.517   8.623  0.00  0.00    -0.345 N 
HETATM   10  C   UNK N   1      33.966  13.381   8.861  0.00  0.00     0.126 C 
HETATM   11  C   UNK N   1      33.624  12.587   7.597  0.00  0.00     0.026 C 
HETATM   12  C   UNK N   1      32.899  13.356   6.488  0.00  0.00     0.059 C 
HETATM   13  H   UNK N   1      30.358  14.556   6.162  0.00  0.00     0.166 HD
ENDROOT
BRANCH   3  14
HETATM   14  C   UNK N   1      29.904  17.269   6.920  0.00  0.00     0.048 C 
BRANCH  14  15
HETATM   15  C   UNK N   1      29.196  17.494   5.832  0.00  0.00     0.047 A 
HETATM   16  C   UNK N   1      28.248  18.565   5.846  0.00  0.00     0.009 A 
HETATM   17  C   UNK N   1      27.808  19.324   6.923  0.00  0.00     0.057 A 
HETATM   18  C   UNK N   1      28.006  18.915   4.543  0.00  0.00     0.046 A 
HETATM   19  C   UNK N   1      27.077  20.479   6.653  0.00  0.00     0.117 A 
HETATM   20  C   UNK N   1      26.825  20.860   5.314  0.00  0.00     0.044 A 
HETATM   21  F   UNK N   1      26.656  21.253   7.681  0.00  0.00    -0.206 F 
HETATM   22  C   UNK N   1      27.294  20.073   4.239  0.00  0.00     0.033 A 
HETATM   23  N   UNK N   1      28.688  18.059   3.647  0.00  0.00    -0.322 N 
HETATM   24  C   UNK N   1      29.415  17.207   4.406  0.00  0.00     0.257 A 
HETATM   25  H   UNK N   1      28.643  18.079   2.664  0.00  0.00     0.169 HD
HETATM   26  O   UNK N   1      30.160  16.360   3.940  0.00  0.00    -0.267 OA
ENDBRANCH  14  15
ENDBRANCH   3  14
BRANCH   9  27
HETATM   27  C   UNK N   1      36.113  14.534   9.283  0.00  0.00     0.159 C 
BRANCH  27  28
HETATM   28  C   UNK N   1      36.007  15.056  10.706  0.00  0.00     0.164 C 
BRANCH  28  29
HETATM   29  C   UNK N   1      36.378  13.934  11.674  0.00  0.00     0.305 C 
BRANCH  29  30
HETATM   30  N   UNK N   1      35.332  13.594  12.661  0.00  0.00     0.095 N 
HETATM   31  C   UNK N   1      35.857  13.893  13.996  0.00  0.00     0.298 C 
HETATM   32  C   UNK N   1      36.883  12.829  14.413  0.00  0.00     0.198 C 
HETATM   33  O   UNK N   1      36.266  11.566  14.441  0.00  0.00    -0.388 OA
HETATM   34  C   UNK N   1      35.957  11.242  13.111  0.00  0.00     0.198 C 
HETATM   35  C   UNK N   1      34.872  12.192  12.607  0.00  0.00     0.298 C 
ENDBRANCH  29  30
ENDBRANCH  28  29
BRANCH  28  36
HETATM   36  O   UNK N   1      36.853  16.149  10.914  0.00  0.00    -0.392 OA
HETATM   37  H   UNK N   1      36.676  17.070  10.667  0.00  0.00     0.210 HD
ENDBRANCH  28  36
ENDBRANCH  27  28
ENDBRANCH   9  27
TORSDOF 7
ENDMDL
MODEL 2
REMARK VINA RESULT:      -8.2      4.439     11.500
REMARK  7 active torsions:
REMARK  status: ('A' for Active; 'I' for Inactive)
REMARK    1  A    between atoms: C_3  and  C_23 
REMARK    2  A    between atoms: N_9  and  C_13 
REMARK    3  A    between atoms: C_13  and  C_14 
REMARK    4  A    between atoms: C_14  and  C_15 
REMARK    5  A    between atoms: C_14  and  O_22 
REMARK    6  A    between atoms: C_15  and  N_16 
REMARK    7  A    between atoms: C_23  and  C_24 
ROOT
HETATM    1  C   UNK N   1      34.143  10.141  12.547  0.00  0.00     0.052 C 
HETATM    2  C   UNK N   1      34.653  11.444  13.071  0.00  0.00    -0.018 A 
HETATM    3  C   UNK N   1      34.754  11.813  14.382  0.00  0.00     0.040 A 
HETATM    4  N   UNK N   1      35.293  13.043  14.507  0.00  0.00    -0.358 N 
HETATM    5  C   UNK N   1      35.493  13.468  13.243  0.00  0.00     0.026 A 
HETATM    6  C   UNK N   1      35.108  12.495  12.347  0.00  0.00     0.062 A 
HETATM    7  C   UNK N   1      35.131  12.571  10.892  0.00  0.00     0.256 C 
HETATM    8  O   UNK N   1      35.337  11.562  10.236  0.00  0.00    -0.267 OA
HETATM    9  N   UNK N   1      34.789  13.738  10.284  0.00  0.00    -0.345 N 
HETATM   10  C   UNK N   1      34.323  14.884  11.043  0.00  0.00     0.126 C 
HETATM   11  C   UNK N   1      35.427  15.595  11.831  0.00  0.00     0.026 C 
HETATM   12  C   UNK N   1      36.161  14.755  12.880  0.00  0.00     0.059 C 
HETATM   13  H   UNK N   1      35.496  13.527  15.340  0.00  0.00     0.166 HD
ENDROOT
BRANCH   3  14
HETATM   14  C   UNK N   1      34.474  10.864  15.426  0.00  0.00     0.048 C 
BRANCH  14  15
HETATM   15  C   UNK N   1      35.341  10.192  16.156  0.00  0.00     0.047 A 
HETATM   16  C   UNK N   1      35.617  10.652  17.481  0.00  0.00     0.009 A 
HETATM   17  C   UNK N   1      35.237  11.845  18.085  0.00  0.00     0.057 A 
HETATM   18  C   UNK N   1      36.125   9.593  18.186  0.00  0.00     0.046 A 
HETATM   19  C   UNK N   1      35.402  11.960  19.464  0.00  0.00     0.117 A 
HETATM   20  C   UNK N   1      35.917  10.873  20.209  0.00  0.00     0.044 A 
HETATM   21  F   UNK N   1      35.017  13.100  20.085  0.00  0.00    -0.206 F 
HETATM   22  C   UNK N   1      36.284   9.669  19.567  0.00  0.00     0.033 A 
HETATM   23  N   UNK N   1      36.286   8.457  17.358  0.00  0.00    -0.322 N 
HETATM   24  C   UNK N   1      35.810   8.798  16.139  0.00  0.00     0.257 A 
HETATM   25  H   UNK N   1      36.669   7.589  17.618  0.00  0.00     0.169 HD
HETATM   26  O   UNK N   1      35.761   8.025  15.196  0.00  0.00    -0.267 OA
ENDBRANCH  14  15
ENDBRANCH   3  14
BRANCH   9  27
HETATM   27  C   UNK N   1      34.624  13.769   8.856  0.00  0.00     0.159 C 
BRANCH  27  28
HETATM   28  C   UNK N   1      33.165  13.912   8.458  0.00  0.00     0.164 C 
BRANCH  28  29
HETATM   29  C   UNK N   1      33.082  14.715   7.160  0.00  0.00     0.305 C 
BRANCH  29  30
HETATM   30  N   UNK N   1      32.406  16.024   7.282  0.00  0.00     0.095 N 
HETATM   31  C   UNK N   1      32.393  16.649   5.957  0.00  0.00     0.298 C 
HETATM   32  C   UNK N   1      33.793  17.176   5.605  0.00  0.00     0.198 C 
HETATM   33  O   UNK N   1      34.188  18.133   6.555  0.00  0.00    -0.388 OA
HETATM   34  C   UNK N   1      34.374  17.445   7.764  0.00  0.00     0.198 C 
HETATM   35  C   UNK N   1      33.021  16.941   8.263  0.00  0.00     0.298 C 
ENDBRANCH  29  30
ENDBRANCH  28  29
BRANCH  28  36
HETATM   36  O   UNK N   1      32.559  12.666   8.274  0.00  0.00    -0.392 OA
HETATM   37  H   UNK N   1      33.004  11.804   8.270  0.00  0.00     0.210 HD
ENDBRANCH  28  36
ENDBRANCH  27  28
ENDBRANCH   9  27
TORSDOF 7
ENDMDL
MODEL 3
REMARK VINA RESULT:      -8.2      2.059      3.002
REMARK  7 active torsions:
REMARK  status: ('A' for Active; 'I' for Inactive)
REMARK    1  A    between atoms: C_3  and  C_23 
REMARK    2  A    between atoms: N_9  and  C_13 
REMARK    3  A    between atoms: C_13  and  C_14 
REMARK    4  A    between atoms: C_14  and  C_15 
REMARK    5  A    between atoms: C_14  and  O_22 
REMARK    6  A    between atoms: C_15  and  N_16 
REMARK    7  A    between atoms: C_23  and  C_24 
ROOT
HETATM    1  C   UNK N   1      34.602  17.270   9.350  0.00  0.00     0.052 C 
HETATM    2  C   UNK N   1      34.516  15.963   8.630  0.00  0.00    -0.018 A 
HETATM    3  C   UNK N   1      33.713  15.670   7.565  0.00  0.00     0.040 A 
HETATM    4  N   UNK N   1      33.911  14.409   7.131  0.00  0.00    -0.358 N 
HETATM    5  C   UNK N   1      34.828  13.889   7.973  0.00  0.00     0.026 A 
HETATM    6  C   UNK N   1      35.213  14.833   8.899  0.00  0.00     0.062 A 
HETATM    7  C   UNK N   1      36.154  14.664   9.999  0.00  0.00     0.256 C 
HETATM    8  O   UNK N   1      36.838  15.608  10.361  0.00  0.00    -0.267 OA
HETATM    9  N   UNK N   1      36.159  13.494  10.693  0.00  0.00    -0.345 N 
HETATM   10  C   UNK N   1      35.196  12.444  10.420  0.00  0.00     0.126 C 
HETATM   11  C   UNK N   1      35.455  11.691   9.111  0.00  0.00     0.026 C 
HETATM   12  C   UNK N   1      35.431  12.529   7.830  0.00  0.00     0.059 C 
HETATM   13  H   UNK N   1      33.481  13.963   6.366  0.00  0.00     0.166 HD
ENDROOT
BRANCH   3  14
HETATM   14  C   UNK N   1      32.932  16.704   6.939  0.00  0.00     0.048 C 
BRANCH  14  15
HETATM   15  C   UNK N   1      31.678  16.636   6.541  0.00  0.00     0.047 A 
HETATM   16  C   UNK N   1      30.671  17.238   7.357  0.00  0.00     0.009 A 
HETATM   17  C   UNK N   1      30.785  17.749   8.645  0.00  0.00     0.057 A 
HETATM   18  C   UNK N   1      29.582  17.473   6.560  0.00  0.00     0.046 A 
HETATM   19  C   UNK N   1      29.732  18.517   9.137  0.00  0.00     0.117 A 
HETATM   20  C   UNK N   1      28.604  18.777   8.324  0.00  0.00     0.044 A 
HETATM   21  F   UNK N   1      29.824  19.051  10.378  0.00  0.00    -0.206 F 
HETATM   22  C   UNK N   1      28.522  18.252   7.015  0.00  0.00     0.033 A 
HETATM   23  N   UNK N   1      29.786  16.968   5.253  0.00  0.00    -0.322 N 
HETATM   24  C   UNK N   1      31.044  16.472   5.224  0.00  0.00     0.257 A 
HETATM   25  H   UNK N   1      29.139  16.976   4.512  0.00  0.00     0.169 HD
HETATM   26  O   UNK N   1      31.556  15.996   4.223  0.00  0.00    -0.267 OA
ENDBRANCH  14  15
ENDBRANCH   3  14
BRANCH   9  27
HETATM   27  C   UNK N   1      36.944  13.388  11.891  0.00  0.00     0.159 C 
BRANCH  27  28
HETATM   28  C   UNK N   1      36.160  13.813  13.121  0.00  0.00     0.164 C 
BRANCH  28  29
HETATM   29  C   UNK N   1      36.425  12.814  14.247  0.00  0.00     0.305 C 
BRANCH  29  30
HETATM   30  N   UNK N   1      35.233  12.072  14.711  0.00  0.00     0.095 N 
HETATM   31  C   UNK N   1      34.545  12.901  15.704  0.00  0.00     0.298 C 
HETATM   32  C   UNK N   1      35.319  12.893  17.030  0.00  0.00     0.198 C 
HETATM   33  O   UNK N   1      35.404  11.577  17.518  0.00  0.00    -0.388 OA
HETATM   34  C   UNK N   1      36.234  10.874  16.632  0.00  0.00     0.198 C 
HETATM   35  C   UNK N   1      35.526  10.743  15.284  0.00  0.00     0.298 C 
ENDBRANCH  29  30
ENDBRANCH  28  29
BRANCH  28  36
HETATM   36  O   UNK N   1      36.524  15.096  13.542  0.00  0.00    -0.392 OA
HETATM   37  H   UNK N   1      37.357  15.347  13.971  0.00  0.00     0.210 HD
ENDBRANCH  28  36
ENDBRANCH  27  28
ENDBRANCH   9  27
TORSDOF 7
ENDMDL
MODEL 4
REMARK VINA RESULT:      -8.1      4.857     11.407
REMARK  7 active torsions:
REMARK  status: ('A' for Active; 'I' for Inactive)
REMARK    1  A    between atoms: C_3  and  C_23 
REMARK    2  A    between atoms: N_9  and  C_13 
REMARK    3  A    between atoms: C_13  and  C_14 
REMARK    4  A    between atoms: C_14  and  C_15 
REMARK    5  A    between atoms: C_14  and  O_22 
REMARK    6  A    between atoms: C_15  and  N_16 
REMARK    7  A    between atoms: C_23  and  C_24 
ROOT
HETATM    1  C   UNK N   1      34.166  10.721  13.066  0.00  0.00     0.052 C 
HETATM    2  C   UNK N   1      35.515  11.325  12.852  0.00  0.00    -0.018 A 
HETATM    3  C   UNK N   1      36.485  11.509  13.796  0.00  0.00     0.040 A 
HETATM    4  N   UNK N   1      37.600  12.046  13.258  0.00  0.00    -0.358 N 
HETATM    5  C   UNK N   1      37.302  12.241  11.957  0.00  0.00     0.026 A 
HETATM    6  C   UNK N   1      36.025  11.800  11.690  0.00  0.00     0.062 A 
HETATM    7  C   UNK N   1      35.313  11.861  10.419  0.00  0.00     0.256 C 
HETATM    8  O   UNK N   1      34.508  10.989  10.134  0.00  0.00    -0.267 OA
HETATM    9  N   UNK N   1      35.458  12.959   9.631  0.00  0.00    -0.345 N 
HETATM   10  C   UNK N   1      36.237  14.106  10.060  0.00  0.00     0.126 C 
HETATM   11  C   UNK N   1      37.750  13.869  10.041  0.00  0.00     0.026 C 
HETATM   12  C   UNK N   1      38.271  12.739  10.934  0.00  0.00     0.059 C 
HETATM   13  H   UNK N   1      38.447  12.252  13.715  0.00  0.00     0.166 HD
ENDROOT
BRANCH   3  14
HETATM   14  C   UNK N   1      36.313  10.987  15.125  0.00  0.00     0.048 C 
BRANCH  14  15
HETATM   15  C   UNK N   1      35.595  11.498  16.104  0.00  0.00     0.047 A 
HETATM   16  C   UNK N   1      35.793  10.997  17.428  0.00  0.00     0.009 A 
HETATM   17  C   UNK N   1      36.522   9.887  17.838  0.00  0.00     0.057 A 
HETATM   18  C   UNK N   1      35.342  11.952  18.300  0.00  0.00     0.046 A 
HETATM   19  C   UNK N   1      36.783   9.744  19.199  0.00  0.00     0.117 A 
HETATM   20  C   UNK N   1      36.333  10.726  20.113  0.00  0.00     0.044 A 
HETATM   21  F   UNK N   1      37.513   8.687  19.627  0.00  0.00    -0.206 F 
HETATM   22  C   UNK N   1      35.603  11.849  19.664  0.00  0.00     0.033 A 
HETATM   23  N   UNK N   1      34.764  13.044  17.611  0.00  0.00    -0.322 N 
HETATM   24  C   UNK N   1      34.918  12.790  16.291  0.00  0.00     0.257 A 
HETATM   25  H   UNK N   1      34.335  13.833  18.012  0.00  0.00     0.169 HD
HETATM   26  O   UNK N   1      34.564  13.562  15.413  0.00  0.00    -0.267 OA
ENDBRANCH  14  15
ENDBRANCH   3  14
BRANCH   9  27
HETATM   27  C   UNK N   1      34.619  13.114   8.474  0.00  0.00     0.159 C 
BRANCH  27  28
HETATM   28  C   UNK N   1      33.402  13.974   8.769  0.00  0.00     0.164 C 
BRANCH  28  29
HETATM   29  C   UNK N   1      33.062  14.794   7.526  0.00  0.00     0.305 C 
BRANCH  29  30
HETATM   30  N   UNK N   1      32.500  16.133   7.800  0.00  0.00     0.095 N 
HETATM   31  C   UNK N   1      32.310  16.813   6.516  0.00  0.00     0.298 C 
HETATM   32  C   UNK N   1      33.664  17.272   5.953  0.00  0.00     0.198 C 
HETATM   33  O   UNK N   1      34.271  18.164   6.854  0.00  0.00    -0.388 OA
HETATM   34  C   UNK N   1      34.609  17.416   7.992  0.00  0.00     0.198 C 
HETATM   35  C   UNK N   1      33.326  16.971   8.693  0.00  0.00     0.298 C 
ENDBRANCH  29  30
ENDBRANCH  28  29
BRANCH  28  36
HETATM   36  O   UNK N   1      32.299  13.194   9.129  0.00  0.00    -0.392 OA
HETATM   37  H   UNK N   1      31.996  13.004  10.031  0.00  0.00     0.210 HD
ENDBRANCH  28  36
ENDBRANCH  27  28
ENDBRANCH   9  27
TORSDOF 7
ENDMDL
MODEL 5
REMARK VINA RESULT:      -8.1      2.032      2.573
REMARK  7 active torsions:
REMARK  status: ('A' for Active; 'I' for Inactive)
REMARK    1  A    between atoms: C_3  and  C_23 
REMARK    2  A    between atoms: N_9  and  C_13 
REMARK    3  A    between atoms: C_13  and  C_14 
REMARK    4  A    between atoms: C_14  and  C_15 
REMARK    5  A    between atoms: C_14  and  O_22 
REMARK    6  A    between atoms: C_15  and  N_16 
REMARK    7  A    between atoms: C_23  and  C_24 
ROOT
HETATM    1  C   UNK N   1      32.776  17.855   8.236  0.00  0.00     0.052 C 
HETATM    2  C   UNK N   1      33.545  16.940   7.339  0.00  0.00    -0.018 A 
HETATM    3  C   UNK N   1      33.289  16.685   6.021  0.00  0.00     0.040 A 
HETATM    4  N   UNK N   1      34.201  15.840   5.498  0.00  0.00    -0.358 N 
HETATM    5  C   UNK N   1      35.018  15.527   6.524  0.00  0.00     0.026 A 
HETATM    6  C   UNK N   1      34.631  16.198   7.663  0.00  0.00     0.062 A 
HETATM    7  C   UNK N   1      35.228  16.111   8.990  0.00  0.00     0.256 C 
HETATM    8  O   UNK N   1      35.224  17.088   9.720  0.00  0.00    -0.267 OA
HETATM    9  N   UNK N   1      35.659  14.903   9.444  0.00  0.00    -0.345 N 
HETATM   10  C   UNK N   1      35.464  13.688   8.676  0.00  0.00     0.126 C 
HETATM   11  C   UNK N   1      36.379  13.576   7.452  0.00  0.00     0.026 C 
HETATM   12  C   UNK N   1      36.244  14.680   6.400  0.00  0.00     0.059 C 
HETATM   13  H   UNK N   1      34.258  15.520   4.568  0.00  0.00     0.166 HD
ENDROOT
BRANCH   3  14
HETATM   14  C   UNK N   1      32.270  17.423   5.324  0.00  0.00     0.048 C 
BRANCH  14  15
HETATM   15  C   UNK N   1      31.354  16.951   4.504  0.00  0.00     0.047 A 
HETATM   16  C   UNK N   1      30.003  16.869   4.967  0.00  0.00     0.009 A 
HETATM   17  C   UNK N   1      29.512  17.047   6.255  0.00  0.00     0.057 A 
HETATM   18  C   UNK N   1      29.193  16.829   3.864  0.00  0.00     0.046 A 
HETATM   19  C   UNK N   1      28.134  17.173   6.417  0.00  0.00     0.117 A 
HETATM   20  C   UNK N   1      27.283  17.143   5.287  0.00  0.00     0.044 A 
HETATM   21  F   UNK N   1      27.628  17.374   7.656  0.00  0.00    -0.206 F 
HETATM   22  C   UNK N   1      27.813  16.970   3.989  0.00  0.00     0.033 A 
HETATM   23  N   UNK N   1      29.953  16.790   2.671  0.00  0.00    -0.322 N 
HETATM   24  C   UNK N   1      31.252  16.873   3.039  0.00  0.00     0.257 A 
HETATM   25  H   UNK N   1      29.605  16.717   1.753  0.00  0.00     0.169 HD
HETATM   26  O   UNK N   1      32.176  16.909   2.242  0.00  0.00    -0.267 OA
ENDBRANCH  14  15
ENDBRANCH   3  14
BRANCH   9  27
HETATM   27  C   UNK N   1      36.071  14.771  10.814  0.00  0.00     0.159 C 
BRANCH  27  28
HETATM   28  C   UNK N   1      35.010  14.087  11.661  0.00  0.00     0.164 C 
BRANCH  28  29
HETATM   29  C   UNK N   1      35.518  13.979  13.098  0.00  0.00     0.305 C 
BRANCH  29  30
HETATM   30  N   UNK N   1      36.156  12.689  13.436  0.00  0.00     0.095 N 
HETATM   31  C   UNK N   1      35.113  11.660  13.446  0.00  0.00     0.298 C 
HETATM   32  C   UNK N   1      34.247  11.794  14.707  0.00  0.00     0.198 C 
HETATM   33  O   UNK N   1      35.051  11.637  15.849  0.00  0.00    -0.388 OA
HETATM   34  C   UNK N   1      35.902  12.753  15.897  0.00  0.00     0.198 C 
HETATM   35  C   UNK N   1      36.878  12.683  14.723  0.00  0.00     0.298 C 
ENDBRANCH  29  30
ENDBRANCH  28  29
BRANCH  28  36
HETATM   36  O   UNK N   1      33.806  14.796  11.644  0.00  0.00    -0.392 OA
HETATM   37  H   UNK N   1      33.183  14.891  12.381  0.00  0.00     0.210 HD
ENDBRANCH  28  36
ENDBRANCH  27  28
ENDBRANCH   9  27
TORSDOF 7
ENDMDL
MODEL 6
REMARK VINA RESULT:      -8.1      1.924      2.474
REMARK  7 active torsions:
REMARK  status: ('A' for Active; 'I' for Inactive)
REMARK    1  A    between atoms: C_3  and  C_23 
REMARK    2  A    between atoms: N_9  and  C_13 
REMARK    3  A    between atoms: C_13  and  C_14 
REMARK    4  A    between atoms: C_14  and  C_15 
REMARK    5  A    between atoms: C_14  and  O_22 
REMARK    6  A    between atoms: C_15  and  N_16 
REMARK    7  A    between atoms: C_23  and  C_24 
ROOT
HETATM    1  C   UNK N   1      29.753  17.576   8.753  0.00  0.00     0.052 C 
HETATM    2  C   UNK N   1      30.270  17.127   7.425  0.00  0.00    -0.018 A 
HETATM    3  C   UNK N   1      29.536  16.599   6.401  0.00  0.00     0.040 A 
HETATM    4  N   UNK N   1      30.308  16.335   5.327  0.00  0.00    -0.358 N 
HETATM    5  C   UNK N   1      31.559  16.667   5.705  0.00  0.00     0.026 A 
HETATM    6  C   UNK N   1      31.553  17.159   6.992  0.00  0.00     0.062 A 
HETATM    7  C   UNK N   1      32.699  17.595   7.780  0.00  0.00     0.256 C 
HETATM    8  O   UNK N   1      32.566  18.496   8.593  0.00  0.00    -0.267 OA
HETATM    9  N   UNK N   1      33.865  16.901   7.694  0.00  0.00    -0.345 N 
HETATM   10  C   UNK N   1      33.973  15.690   6.902  0.00  0.00     0.126 C 
HETATM   11  C   UNK N   1      33.987  15.938   5.391  0.00  0.00     0.026 C 
HETATM   12  C   UNK N   1      32.753  16.630   4.805  0.00  0.00     0.059 C 
HETATM   13  H   UNK N   1      30.022  15.979   4.455  0.00  0.00     0.166 HD
ENDROOT
BRANCH   3  14
HETATM   14  C   UNK N   1      28.101  16.550   6.487  0.00  0.00     0.048 C 
BRANCH  14  15
HETATM   15  C   UNK N   1      27.227  16.918   5.572  0.00  0.00     0.047 A 
HETATM   16  C   UNK N   1      26.985  18.315   5.385  0.00  0.00     0.009 A 
HETATM   17  C   UNK N   1      27.406  19.383   6.167  0.00  0.00     0.057 A 
HETATM   18  C   UNK N   1      26.458  18.476   4.131  0.00  0.00     0.046 A 
HETATM   19  C   UNK N   1      27.267  20.668   5.646  0.00  0.00     0.117 A 
HETATM   20  C   UNK N   1      26.733  20.852   4.349  0.00  0.00     0.044 A 
HETATM   21  F   UNK N   1      27.692  21.728   6.374  0.00  0.00    -0.206 F 
HETATM   22  C   UNK N   1      26.322  19.745   3.574  0.00  0.00     0.033 A 
HETATM   23  N   UNK N   1      26.253  17.227   3.497  0.00  0.00    -0.322 N 
HETATM   24  C   UNK N   1      26.719  16.283   4.347  0.00  0.00     0.257 A 
HETATM   25  H   UNK N   1      25.849  17.075   2.613  0.00  0.00     0.169 HD
HETATM   26  O   UNK N   1      26.732  15.091   4.084  0.00  0.00    -0.267 OA
ENDBRANCH  14  15
ENDBRANCH   3  14
BRANCH   9  27
HETATM   27  C   UNK N   1      34.935  17.204   8.604  0.00  0.00     0.159 C 
BRANCH  27  28
HETATM   28  C   UNK N   1      34.830  16.401   9.890  0.00  0.00     0.164 C 
BRANCH  28  29
HETATM   29  C   UNK N   1      35.931  15.341   9.903  0.00  0.00     0.305 C 
BRANCH  29  30
HETATM   30  N   UNK N   1      35.472  13.975  10.231  0.00  0.00     0.095 N 
HETATM   31  C   UNK N   1      35.093  13.954  11.646  0.00  0.00     0.298 C 
HETATM   32  C   UNK N   1      36.347  13.965  12.532  0.00  0.00     0.198 C 
HETATM   33  O   UNK N   1      37.130  12.831  12.255  0.00  0.00    -0.388 OA
HETATM   34  C   UNK N   1      37.628  12.996  10.953  0.00  0.00     0.198 C 
HETATM   35  C   UNK N   1      36.466  12.916   9.963  0.00  0.00     0.298 C 
ENDBRANCH  29  30
ENDBRANCH  28  29
BRANCH  28  36
HETATM   36  O   UNK N   1      34.957  17.219  11.016  0.00  0.00    -0.392 OA
HETATM   37  H   UNK N   1      35.683  17.206  11.659  0.00  0.00     0.210 HD
ENDBRANCH  28  36
ENDBRANCH  27  28
ENDBRANCH   9  27
TORSDOF 7
ENDMDL
MODEL 7
REMARK VINA RESULT:      -7.9      5.341     12.273
REMARK  7 active torsions:
REMARK  status: ('A' for Active; 'I' for Inactive)
REMARK    1  A    between atoms: C_3  and  C_23 
REMARK    2  A    between atoms: N_9  and  C_13 
REMARK    3  A    between atoms: C_13  and  C_14 
REMARK    4  A    between atoms: C_14  and  C_15 
REMARK    5  A    between atoms: C_14  and  O_22 
REMARK    6  A    between atoms: C_15  and  N_16 
REMARK    7  A    between atoms: C_23  and  C_24 
ROOT
HETATM    1  C   UNK N   1      36.577  13.428  15.689  0.00  0.00     0.052 C 
HETATM    2  C   UNK N   1      35.811  12.233  15.222  0.00  0.00    -0.018 A 
HETATM    3  C   UNK N   1      35.594  11.079  15.920  0.00  0.00     0.040 A 
HETATM    4  N   UNK N   1      34.829  10.217  15.221  0.00  0.00    -0.358 N 
HETATM    5  C   UNK N   1      34.599  10.829  14.041  0.00  0.00     0.026 A 
HETATM    6  C   UNK N   1      35.194  12.072  14.027  0.00  0.00     0.062 A 
HETATM    7  C   UNK N   1      35.212  13.034  12.932  0.00  0.00     0.256 C 
HETATM    8  O   UNK N   1      35.225  14.229  13.176  0.00  0.00    -0.267 OA
HETATM    9  N   UNK N   1      35.351  12.583  11.656  0.00  0.00    -0.345 N 
HETATM   10  C   UNK N   1      35.564  11.177  11.365  0.00  0.00     0.126 C 
HETATM   11  C   UNK N   1      34.316  10.309  11.557  0.00  0.00     0.026 C 
HETATM   12  C   UNK N   1      33.715  10.287  12.965  0.00  0.00     0.059 C 
HETATM   13  H   UNK N   1      34.506   9.331  15.508  0.00  0.00     0.166 HD
ENDROOT
BRANCH   3  14
HETATM   14  C   UNK N   1      36.009  10.974  17.294  0.00  0.00     0.048 C 
BRANCH  14  15
HETATM   15  C   UNK N   1      35.265  11.118  18.372  0.00  0.00     0.047 A 
HETATM   16  C   UNK N   1      34.676   9.952  18.954  0.00  0.00     0.009 A 
HETATM   17  C   UNK N   1      34.612   8.662  18.442  0.00  0.00     0.057 A 
HETATM   18  C   UNK N   1      34.384  10.248  20.260  0.00  0.00     0.046 A 
HETATM   19  C   UNK N   1      34.217   7.638  19.301  0.00  0.00     0.117 A 
HETATM   20  C   UNK N   1      33.921   7.924  20.655  0.00  0.00     0.044 A 
HETATM   21  F   UNK N   1      34.170   6.366  18.838  0.00  0.00    -0.206 F 
HETATM   22  C   UNK N   1      34.005   9.245  21.148  0.00  0.00     0.033 A 
HETATM   23  N   UNK N   1      34.674  11.601  20.555  0.00  0.00    -0.322 N 
HETATM   24  C   UNK N   1      35.212  12.133  19.434  0.00  0.00     0.257 A 
HETATM   25  H   UNK N   1      34.514  12.064  21.409  0.00  0.00     0.169 HD
HETATM   26  O   UNK N   1      35.617  13.283  19.364  0.00  0.00    -0.267 OA
ENDBRANCH  14  15
ENDBRANCH   3  14
BRANCH   9  27
HETATM   27  C   UNK N   1      35.560  13.526  10.593  0.00  0.00     0.159 C 
BRANCH  27  28
HETATM   28  C   UNK N   1      34.276  14.243  10.211  0.00  0.00     0.164 C 
BRANCH  28  29
HETATM   29  C   UNK N   1      34.584  15.260   9.113  0.00  0.00     0.305 C 
BRANCH  29  30
HETATM   30  N   UNK N   1      33.396  15.888   8.498  0.00  0.00     0.095 N 
HETATM   31  C   UNK N   1      33.437  15.616   7.059  0.00  0.00     0.298 C 
HETATM   32  C   UNK N   1      34.503  16.492   6.384  0.00  0.00     0.198 C 
HETATM   33  O   UNK N   1      34.191  17.849   6.580  0.00  0.00    -0.388 OA
HETATM   34  C   UNK N   1      34.356  18.103   7.951  0.00  0.00     0.198 C 
HETATM   35  C   UNK N   1      33.284  17.342   8.731  0.00  0.00     0.298 C 
ENDBRANCH  29  30
ENDBRANCH  28  29
BRANCH  28  36
HETATM   36  O   UNK N   1      33.305  13.346   9.756  0.00  0.00    -0.392 OA
HETATM   37  H   UNK N   1      32.383  13.294  10.054  0.00  0.00     0.210 HD
ENDBRANCH  28  36
ENDBRANCH  27  28
ENDBRANCH   9  27
TORSDOF 7
ENDMDL
MODEL 8
REMARK VINA RESULT:      -7.8      3.181      4.888
REMARK  7 active torsions:
REMARK  status: ('A' for Active; 'I' for Inactive)
REMARK    1  A    between atoms: C_3  and  C_23 
REMARK    2  A    between atoms: N_9  and  C_13 
REMARK    3  A    between atoms: C_13  and  C_14 
REMARK    4  A    between atoms: C_14  and  C_15 
REMARK    5  A    between atoms: C_14  and  O_22 
REMARK    6  A    between atoms: C_15  and  N_16 
REMARK    7  A    between atoms: C_23  and  C_24 
ROOT
HETATM    1  C   UNK N   1      29.905  16.594   4.142  0.00  0.00     0.052 C 
HETATM    2  C   UNK N   1      29.313  17.332   5.298  0.00  0.00    -0.018 A 
HETATM    3  C   UNK N   1      28.284  18.230   5.253  0.00  0.00     0.040 A 
HETATM    4  N   UNK N   1      27.971  18.682   6.484  0.00  0.00    -0.358 N 
HETATM    5  C   UNK N   1      28.852  18.085   7.312  0.00  0.00     0.026 A 
HETATM    6  C   UNK N   1      29.683  17.248   6.599  0.00  0.00     0.062 A 
HETATM    7  C   UNK N   1      30.788  16.448   7.112  0.00  0.00     0.256 C 
HETATM    8  O   UNK N   1      31.055  15.379   6.588  0.00  0.00    -0.267 OA
HETATM    9  N   UNK N   1      31.590  16.969   8.079  0.00  0.00    -0.345 N 
HETATM   10  C   UNK N   1      31.423  18.330   8.554  0.00  0.00     0.126 C 
HETATM   11  C   UNK N   1      30.190  18.530   9.441  0.00  0.00     0.026 C 
HETATM   12  C   UNK N   1      28.835  18.215   8.801  0.00  0.00     0.059 C 
HETATM   13  H   UNK N   1      27.253  19.312   6.727  0.00  0.00     0.166 HD
ENDROOT
BRANCH   3  14
HETATM   14  C   UNK N   1      27.568  18.451   4.025  0.00  0.00     0.048 C 
BRANCH  14  15
HETATM   15  C   UNK N   1      26.267  18.584   3.865  0.00  0.00     0.047 A 
HETATM   16  C   UNK N   1      25.518  17.457   3.404  0.00  0.00     0.009 A 
HETATM   17  C   UNK N   1      25.985  16.247   2.905  0.00  0.00     0.057 A 
HETATM   18  C   UNK N   1      24.213  17.655   3.768  0.00  0.00     0.046 A 
HETATM   19  C   UNK N   1      25.072  15.205   2.761  0.00  0.00     0.117 A 
HETATM   20  C   UNK N   1      23.721  15.388   3.141  0.00  0.00     0.044 A 
HETATM   21  F   UNK N   1      25.502  14.005   2.302  0.00  0.00    -0.206 F 
HETATM   22  C   UNK N   1      23.279  16.628   3.654  0.00  0.00     0.033 A 
HETATM   23  N   UNK N   1      24.037  18.919   4.381  0.00  0.00    -0.322 N 
HETATM   24  C   UNK N   1      25.264  19.483   4.455  0.00  0.00     0.257 A 
HETATM   25  H   UNK N   1      23.190  19.309   4.692  0.00  0.00     0.169 HD
HETATM   26  O   UNK N   1      25.474  20.568   4.975  0.00  0.00    -0.267 OA
ENDBRANCH  14  15
ENDBRANCH   3  14
BRANCH   9  27
HETATM   27  C   UNK N   1      32.788  16.271   8.454  0.00  0.00     0.159 C 
BRANCH  27  28
HETATM   28  C   UNK N   1      33.946  17.224   8.698  0.00  0.00     0.164 C 
BRANCH  28  29
HETATM   29  C   UNK N   1      34.910  16.587   9.698  0.00  0.00     0.305 C 
BRANCH  29  30
HETATM   30  N   UNK N   1      34.744  15.129   9.877  0.00  0.00     0.095 N 
HETATM   31  C   UNK N   1      34.572  14.867  11.308  0.00  0.00     0.298 C 
HETATM   32  C   UNK N   1      35.915  15.010  12.039  0.00  0.00     0.198 C 
HETATM   33  O   UNK N   1      36.837  14.086  11.516  0.00  0.00    -0.388 OA
HETATM   34  C   UNK N   1      37.115  14.497  10.203  0.00  0.00     0.198 C 
HETATM   35  C   UNK N   1      35.860  14.318   9.349  0.00  0.00     0.298 C 
ENDBRANCH  29  30
ENDBRANCH  28  29
BRANCH  28  36
HETATM   36  O   UNK N   1      34.628  17.515   7.514  0.00  0.00    -0.392 OA
HETATM   37  H   UNK N   1      35.401  17.044   7.163  0.00  0.00     0.210 HD
ENDBRANCH  28  36
ENDBRANCH  27  28
ENDBRANCH   9  27
TORSDOF 7
ENDMDL
MODEL 9
REMARK VINA RESULT:      -7.8     13.156     15.368
REMARK  7 active torsions:
REMARK  status: ('A' for Active; 'I' for Inactive)
REMARK    1  A    between atoms: C_3  and  C_23 
REMARK    2  A    between atoms: N_9  and  C_13 
REMARK    3  A    between atoms: C_13  and  C_14 
REMARK    4  A    between atoms: C_14  and  C_15 
REMARK    5  A    between atoms: C_14  and  O_22 
REMARK    6  A    between atoms: C_15  and  N_16 
REMARK    7  A    between atoms: C_23  and  C_24 
ROOT
HETATM    1  C   UNK N   1      29.600  22.764  -1.826  0.00  0.00     0.052 C 
HETATM    2  C   UNK N   1      29.773  22.831  -3.308  0.00  0.00    -0.018 A 
HETATM    3  C   UNK N   1      28.883  23.337  -4.211  0.00  0.00     0.040 A 
HETATM    4  N   UNK N   1      29.369  23.279  -5.468  0.00  0.00    -0.358 N 
HETATM    5  C   UNK N   1      30.573  22.684  -5.350  0.00  0.00     0.026 A 
HETATM    6  C   UNK N   1      30.839  22.404  -4.028  0.00  0.00     0.062 A 
HETATM    7  C   UNK N   1      32.013  21.735  -3.482  0.00  0.00     0.256 C 
HETATM    8  O   UNK N   1      32.422  22.041  -2.373  0.00  0.00    -0.267 OA
HETATM    9  N   UNK N   1      32.554  20.688  -4.159  0.00  0.00    -0.345 N 
HETATM   10  C   UNK N   1      31.944  20.167  -5.368  0.00  0.00     0.126 C 
HETATM   11  C   UNK N   1      32.120  21.074  -6.591  0.00  0.00     0.026 C 
HETATM   12  C   UNK N   1      31.531  22.483  -6.481  0.00  0.00     0.059 C 
HETATM   13  H   UNK N   1      28.939  23.602  -6.294  0.00  0.00     0.166 HD
ENDROOT
BRANCH   3  14
HETATM   14  C   UNK N   1      27.688  24.000  -3.760  0.00  0.00     0.048 C 
BRANCH  14  15
HETATM   15  C   UNK N   1      26.633  24.331  -4.474  0.00  0.00     0.047 A 
HETATM   16  C   UNK N   1      26.115  25.658  -4.349  0.00  0.00     0.009 A 
HETATM   17  C   UNK N   1      26.450  26.640  -3.424  0.00  0.00     0.057 A 
HETATM   18  C   UNK N   1      25.381  25.921  -5.476  0.00  0.00     0.046 A 
HETATM   19  C   UNK N   1      26.000  27.938  -3.658  0.00  0.00     0.117 A 
HETATM   20  C   UNK N   1      25.250  28.228  -4.822  0.00  0.00     0.044 A 
HETATM   21  F   UNK N   1      26.333  28.921  -2.789  0.00  0.00    -0.206 F 
HETATM   22  C   UNK N   1      24.933  27.210  -5.749  0.00  0.00     0.033 A 
HETATM   23  N   UNK N   1      25.312  24.785  -6.318  0.00  0.00    -0.322 N 
HETATM   24  C   UNK N   1      26.067  23.826  -5.734  0.00  0.00     0.257 A 
HETATM   25  H   UNK N   1      24.812  24.708  -7.162  0.00  0.00     0.169 HD
HETATM   26  O   UNK N   1      26.256  22.726  -6.229  0.00  0.00    -0.267 OA
ENDBRANCH  14  15
ENDBRANCH   3  14
BRANCH   9  27
HETATM   27  C   UNK N   1      33.588  19.905  -3.540  0.00  0.00     0.159 C 
BRANCH  27  28
HETATM   28  C   UNK N   1      33.946  18.684  -4.368  0.00  0.00     0.164 C 
BRANCH  28  29
HETATM   29  C   UNK N   1      35.354  18.866  -4.936  0.00  0.00     0.305 C 
BRANCH  29  30
HETATM   30  N   UNK N   1      35.407  19.148  -6.385  0.00  0.00     0.095 N 
HETATM   31  C   UNK N   1      34.611  18.128  -7.073  0.00  0.00     0.298 C 
HETATM   32  C   UNK N   1      35.369  16.792  -7.098  0.00  0.00     0.198 C 
HETATM   33  O   UNK N   1      36.586  16.954  -7.781  0.00  0.00    -0.388 OA
HETATM   34  C   UNK N   1      37.386  17.787  -6.983  0.00  0.00     0.198 C 
HETATM   35  C   UNK N   1      36.771  19.185  -6.951  0.00  0.00     0.298 C 
ENDBRANCH  29  30
ENDBRANCH  28  29
BRANCH  28  36
HETATM   36  O   UNK N   1      33.900  17.514  -3.604  0.00  0.00    -0.392 OA
HETATM   37  H   UNK N   1      34.184  16.630  -3.884  0.00  0.00     0.210 HD
ENDBRANCH  28  36
ENDBRANCH  27  28
ENDBRANCH   9  27
TORSDOF 7
ENDMDL
