MODEL 1
REMARK VINA RESULT:      -9.1      0.000      0.000
REMARK  9 active torsions:
REMARK  status: ('A' for Active; 'I' for Inactive)
REMARK       I    between atoms: N_2  and  C_3 
REMARK    1  A    between atoms: C_3  and  C_5 
REMARK    2  A    between atoms: C_10  and  N_11 
REMARK    3  A    between atoms: N_11  and  C_12 
REMARK       I    between atoms: C_17  and  N_20 
REMARK    4  A    between atoms: N_20  and  C_21 
REMARK    5  A    between atoms: C_26  and  O_27 
REMARK    6  A    between atoms: C_32  and  N_34 
REMARK    7  A    between atoms: N_37  and  C_40 
REMARK    8  A    between atoms: C_40  and  C_41 
REMARK    9  A    between atoms: C_41  and  O_42 
ROOT
HETATM    1  C   UNK N   1      23.535  18.620   5.111  0.00  0.00     0.144 A 
HETATM    2  C   UNK N   1      22.949  18.991   3.868  0.00  0.00     0.094 A 
HETATM    3  C   UNK N   1      23.630  19.915   3.063  0.00  0.00     0.133 A 
HETATM    4  N   UNK N   1      24.868  20.362   3.402  0.00  0.00    -0.200 N 
ATOM      5  HN  UNK N   1      25.360  21.017   2.792  1.00  0.00     0.183 HD
HETATM    6  C   UNK N   1      25.443  19.941   4.543  0.00  0.00     0.684 A 
HETATM    7  N   UNK N   1      24.754  19.132   5.388  0.00  0.00    -0.175 N 
ATOM      8  HN  UNK N   1      25.182  18.898   6.284  1.00  0.00     0.186 HD
HETATM    9  N   UNK N   1      26.856  20.081   4.719  0.00  0.00    -0.189 N 
HETATM   10 Cl   UNK N   1      21.496  18.334   3.150  0.00  0.00    -0.079 Cl
HETATM   11  H   UNK N   1      27.318  20.885   4.390  0.00  0.00     0.184 HD
ENDROOT
BRANCH   9  12
HETATM   12  C   UNK N   1      27.594  19.044   5.374  0.00  0.00     0.083 A 
HETATM   13  C   UNK N   1      28.011  19.251   6.703  0.00  0.00     0.033 A 
HETATM   14  C   UNK N   1      28.879  18.406   7.339  0.00  0.00     0.010 A 
HETATM   15  C   UNK N   1      29.327  17.287   6.677  0.00  0.00    -0.047 A 
HETATM   16  C   UNK N   1      28.843  16.959   5.394  0.00  0.00    -0.016 A 
HETATM   17  C   UNK N   1      30.508  16.601   7.225  0.00  0.00     0.075 C 
HETATM   18  C   UNK N   1      27.967  17.835   4.724  0.00  0.00     0.102 A 
HETATM   19  C   UNK N   1      29.349  15.723   4.691  0.00  0.00     0.042 C 
HETATM   20  C   UNK N   1      30.878  15.653   4.517  0.00  0.00     0.007 C 
HETATM   21  C   UNK N   1      31.609  16.950   4.880  0.00  0.00     0.036 C 
HETATM   22  C   UNK N   1      31.705  17.170   6.405  0.00  0.00     0.227 C 
BRANCH  18  23
HETATM   23  O   UNK N   1      27.579  17.507   3.463  0.00  0.00    -0.353 OA
HETATM   24  C   UNK N   1      26.406  16.879   3.121  0.00  0.00     0.210 C 
ENDBRANCH  18  23
BRANCH  22  25
HETATM   25  N   UNK N   1      33.010  16.782   6.927  0.00  0.00     0.096 N 
HETATM   26  C   UNK N   1      32.914  15.371   7.336  0.00  0.00     0.303 C 
HETATM   27  C   UNK N   1      33.978  15.001   8.337  0.00  0.00     0.302 C 
HETATM   28  N   UNK N   1      33.830  15.900   9.467  0.00  0.00     0.093 N 
HETATM   29  C   UNK N   1      34.325  17.187   9.016  0.00  0.00     0.302 C 
HETATM   30  C   UNK N   1      33.325  17.739   8.007  0.00  0.00     0.303 C 
BRANCH  28  31
HETATM   31  C   UNK N   1      34.648  15.411  10.560  0.00  0.00     0.298 C 
BRANCH  31  32
HETATM   32  C   UNK N   1      35.607  16.508  11.007  0.00  0.00     0.194 C 
BRANCH  32  33
HETATM   33  O   UNK N   1      36.930  16.071  10.903  0.00  0.00    -0.399 OA
HETATM   34  H   UNK N   1      37.161  15.274  10.402  0.00  0.00     0.209 HD
ENDBRANCH  32  33
ENDBRANCH  31  32
ENDBRANCH  28  31
ENDBRANCH  22  25
ENDBRANCH   9  12
BRANCH   1  35
HETATM   35  N   UNK N   1      23.073  17.619   6.034  0.00  0.00    -0.340 N 
HETATM   36  H   UNK N   1      23.421  17.762   6.943  0.00  0.00     0.167 HD
BRANCH  35  37
HETATM   37  C   UNK N   1      22.234  16.471   5.953  0.00  0.00     0.049 A 
HETATM   38  C   UNK N   1      22.565  15.386   5.144  0.00  0.00     0.030 A 
HETATM   39  C   UNK N   1      21.767  14.245   5.102  0.00  0.00     0.002 A 
HETATM   40  C   UNK N   1      20.607  14.179   5.866  0.00  0.00     0.001 A 
HETATM   41  C   UNK N   1      20.228  15.269   6.647  0.00  0.00     0.019 A 
HETATM   42  C   UNK N   1      21.017  16.430   6.699  0.00  0.00     0.058 A 
BRANCH  42  43
HETATM   43  C   UNK N   1      20.533  17.562   7.546  0.00  0.00     0.253 C 
HETATM   44  N   UNK N   1      19.778  17.299   8.645  0.00  0.00    -0.361 N 
HETATM   45  C   UNK N   1      19.263  18.345   9.492  0.00  0.00     0.149 C 
HETATM   46  H   UNK N   1      19.578  16.362   8.870  0.00  0.00     0.162 HD
HETATM   47  O   UNK N   1      20.792  18.720   7.247  0.00  0.00    -0.268 OA
ENDBRANCH  42  43
ENDBRANCH  35  37
ENDBRANCH   1  35
TORSDOF 9
ENDMDL
MODEL 2
REMARK VINA RESULT:      -8.8      1.414      1.643
REMARK  9 active torsions:
REMARK  status: ('A' for Active; 'I' for Inactive)
REMARK       I    between atoms: N_2  and  C_3 
REMARK    1  A    between atoms: C_3  and  C_5 
REMARK    2  A    between atoms: C_10  and  N_11 
REMARK    3  A    between atoms: N_11  and  C_12 
REMARK       I    between atoms: C_17  and  N_20 
REMARK    4  A    between atoms: N_20  and  C_21 
REMARK    5  A    between atoms: C_26  and  O_27 
REMARK    6  A    between atoms: C_32  and  N_34 
REMARK    7  A    between atoms: N_37  and  C_40 
REMARK    8  A    between atoms: C_40  and  C_41 
REMARK    9  A    between atoms: C_41  and  O_42 
ROOT
HETATM    1  C   UNK N   1      23.463  18.181   5.113  0.00  0.00     0.144 A 
HETATM    2  C   UNK N   1      22.874  18.677   3.916  0.00  0.00     0.094 A 
HETATM    3  C   UNK N   1      23.485  19.765   3.277  0.00  0.00     0.133 A 
HETATM    4  N   UNK N   1      24.669  20.265   3.720  0.00  0.00    -0.200 N 
ATOM      5  HN  UNK N   1      25.112  21.041   3.228  1.00  0.00     0.183 HD
HETATM    6  C   UNK N   1      25.254  19.733   4.809  0.00  0.00     0.684 A 
HETATM    7  N   UNK N   1      24.624  18.752   5.504  0.00  0.00    -0.175 N 
ATOM      8  HN  UNK N   1      25.052  18.428   6.372  1.00  0.00     0.186 HD
HETATM    9  N   UNK N   1      26.644  19.969   5.053  0.00  0.00    -0.189 N 
HETATM   10 Cl   UNK N   1      21.504  18.008   3.061  0.00  0.00    -0.079 Cl
HETATM   11  H   UNK N   1      27.037  20.850   4.860  0.00  0.00     0.184 HD
ENDROOT
BRANCH   9  12
HETATM   12  C   UNK N   1      27.459  18.917   5.579  0.00  0.00     0.083 A 
HETATM   13  C   UNK N   1      27.853  18.979   6.929  0.00  0.00     0.033 A 
HETATM   14  C   UNK N   1      28.783  18.129   7.463  0.00  0.00     0.010 A 
HETATM   15  C   UNK N   1      29.321  17.145   6.668  0.00  0.00    -0.047 A 
HETATM   16  C   UNK N   1      28.870  16.950   5.346  0.00  0.00    -0.016 A 
HETATM   17  C   UNK N   1      30.550  16.487   7.140  0.00  0.00     0.075 C 
HETATM   18  C   UNK N   1      27.930  17.836   4.783  0.00  0.00     0.102 A 
HETATM   19  C   UNK N   1      29.476  15.860   4.495  0.00  0.00     0.042 C 
HETATM   20  C   UNK N   1      31.005  15.933   4.337  0.00  0.00     0.007 C 
HETATM   21  C   UNK N   1      31.630  17.225   4.876  0.00  0.00     0.036 C 
HETATM   22  C   UNK N   1      31.701  17.250   6.418  0.00  0.00     0.227 C 
BRANCH  18  23
HETATM   23  O   UNK N   1      27.575  17.645   3.484  0.00  0.00    -0.353 OA
HETATM   24  C   UNK N   1      26.511  16.896   3.044  0.00  0.00     0.210 C 
ENDBRANCH  18  23
BRANCH  22  25
HETATM   25  N   UNK N   1      33.031  16.901   6.903  0.00  0.00     0.096 N 
HETATM   26  C   UNK N   1      33.016  15.462   7.216  0.00  0.00     0.303 C 
HETATM   27  C   UNK N   1      34.109  15.084   8.183  0.00  0.00     0.302 C 
HETATM   28  N   UNK N   1      33.924  15.895   9.373  0.00  0.00     0.093 N 
HETATM   29  C   UNK N   1      34.343  17.236   9.008  0.00  0.00     0.302 C 
HETATM   30  C   UNK N   1      33.304  17.799   8.045  0.00  0.00     0.303 C 
BRANCH  28  31
HETATM   31  C   UNK N   1      34.778  15.380  10.425  0.00  0.00     0.298 C 
BRANCH  31  32
HETATM   32  C   UNK N   1      35.679  16.495  10.941  0.00  0.00     0.194 C 
BRANCH  32  33
HETATM   33  O   UNK N   1      37.020  16.109  10.874  0.00  0.00    -0.399 OA
HETATM   34  H   UNK N   1      37.300  15.344  10.348  0.00  0.00     0.209 HD
ENDBRANCH  32  33
ENDBRANCH  31  32
ENDBRANCH  28  31
ENDBRANCH  22  25
ENDBRANCH   9  12
BRANCH   1  35
HETATM   35  N   UNK N   1      23.074  17.020   5.866  0.00  0.00    -0.340 N 
HETATM   36  H   UNK N   1      22.130  17.054   6.142  0.00  0.00     0.167 HD
BRANCH  35  37
HETATM   37  C   UNK N   1      23.722  15.832   6.310  0.00  0.00     0.049 A 
HETATM   38  C   UNK N   1      25.052  15.567   5.989  0.00  0.00     0.030 A 
HETATM   39  C   UNK N   1      25.697  14.427   6.462  0.00  0.00     0.002 A 
HETATM   40  C   UNK N   1      25.009  13.520   7.261  0.00  0.00     0.001 A 
HETATM   41  C   UNK N   1      23.666  13.737   7.559  0.00  0.00     0.019 A 
HETATM   42  C   UNK N   1      22.996  14.878   7.086  0.00  0.00     0.058 A 
BRANCH  42  43
HETATM   43  C   UNK N   1      21.551  15.029   7.433  0.00  0.00     0.253 C 
HETATM   44  N   UNK N   1      21.184  15.142   8.737  0.00  0.00    -0.361 N 
HETATM   45  C   UNK N   1      19.807  15.270   9.141  0.00  0.00     0.149 C 
HETATM   46  H   UNK N   1      21.885  15.137   9.429  0.00  0.00     0.162 HD
HETATM   47  O   UNK N   1      20.696  15.031   6.558  0.00  0.00    -0.268 OA
ENDBRANCH  42  43
ENDBRANCH  35  37
ENDBRANCH   1  35
TORSDOF 9
ENDMDL
MODEL 3
REMARK VINA RESULT:      -8.8      1.661      2.323
REMARK  9 active torsions:
REMARK  status: ('A' for Active; 'I' for Inactive)
REMARK       I    between atoms: N_2  and  C_3 
REMARK    1  A    between atoms: C_3  and  C_5 
REMARK    2  A    between atoms: C_10  and  N_11 
REMARK    3  A    between atoms: N_11  and  C_12 
REMARK       I    between atoms: C_17  and  N_20 
REMARK    4  A    between atoms: N_20  and  C_21 
REMARK    5  A    between atoms: C_26  and  O_27 
REMARK    6  A    between atoms: C_32  and  N_34 
REMARK    7  A    between atoms: N_37  and  C_40 
REMARK    8  A    between atoms: C_40  and  C_41 
REMARK    9  A    between atoms: C_41  and  O_42 
ROOT
HETATM    1  C   UNK N   1      23.426  17.938   5.135  0.00  0.00     0.144 A 
HETATM    2  C   UNK N   1      22.785  18.400   3.950  0.00  0.00     0.094 A 
HETATM    3  C   UNK N   1      23.335  19.506   3.287  0.00  0.00     0.133 A 
HETATM    4  N   UNK N   1      24.509  20.056   3.694  0.00  0.00    -0.200 N 
ATOM      5  HN  UNK N   1      24.908  20.845   3.184  1.00  0.00     0.183 HD
HETATM    6  C   UNK N   1      25.144  19.557   4.771  0.00  0.00     0.684 A 
HETATM    7  N   UNK N   1      24.572  18.559   5.490  0.00  0.00    -0.175 N 
ATOM      8  HN  UNK N   1      25.036  18.259   6.348  1.00  0.00     0.186 HD
HETATM    9  N   UNK N   1      26.530  19.851   4.975  0.00  0.00    -0.189 N 
HETATM   10 Cl   UNK N   1      21.420  17.669   3.138  0.00  0.00    -0.079 Cl
HETATM   11  H   UNK N   1      26.882  20.745   4.764  0.00  0.00     0.184 HD
ENDROOT
BRANCH   9  12
HETATM   12  C   UNK N   1      27.400  18.836   5.487  0.00  0.00     0.083 A 
HETATM   13  C   UNK N   1      27.857  18.947   6.814  0.00  0.00     0.033 A 
HETATM   14  C   UNK N   1      28.836  18.138   7.323  0.00  0.00     0.010 A 
HETATM   15  C   UNK N   1      29.364  17.147   6.528  0.00  0.00    -0.047 A 
HETATM   16  C   UNK N   1      28.855  16.904   5.235  0.00  0.00    -0.016 A 
HETATM   17  C   UNK N   1      30.633  16.537   6.955  0.00  0.00     0.075 C 
HETATM   18  C   UNK N   1      27.863  17.748   4.696  0.00  0.00     0.102 A 
HETATM   19  C   UNK N   1      29.450  15.809   4.384  0.00  0.00     0.042 C 
HETATM   20  C   UNK N   1      30.967  15.921   4.148  0.00  0.00     0.007 C 
HETATM   21  C   UNK N   1      31.580  17.244   4.622  0.00  0.00     0.036 C 
HETATM   22  C   UNK N   1      31.725  17.313   6.158  0.00  0.00     0.227 C 
BRANCH  18  23
HETATM   23  O   UNK N   1      27.451  17.512   3.422  0.00  0.00    -0.353 OA
HETATM   24  C   UNK N   1      26.404  16.702   3.053  0.00  0.00     0.210 C 
ENDBRANCH  18  23
BRANCH  22  25
HETATM   25  N   UNK N   1      33.086  17.014   6.586  0.00  0.00     0.096 N 
HETATM   26  C   UNK N   1      33.090  15.631   7.092  0.00  0.00     0.303 C 
HETATM   27  C   UNK N   1      34.252  15.373   8.017  0.00  0.00     0.302 C 
HETATM   28  N   UNK N   1      34.160  16.340   9.096  0.00  0.00     0.093 N 
HETATM   29  C   UNK N   1      34.555  17.613   8.521  0.00  0.00     0.302 C 
HETATM   30  C   UNK N   1      33.448  18.055   7.570  0.00  0.00     0.303 C 
BRANCH  28  31
HETATM   31  C   UNK N   1      35.090  15.961  10.141  0.00  0.00     0.298 C 
BRANCH  31  32
HETATM   32  C   UNK N   1      34.539  14.759  10.900  0.00  0.00     0.194 C 
BRANCH  32  33
HETATM   33  O   UNK N   1      33.197  14.963  11.229  0.00  0.00    -0.399 OA
HETATM   34  H   UNK N   1      32.486  14.751  10.605  0.00  0.00     0.209 HD
ENDBRANCH  32  33
ENDBRANCH  31  32
ENDBRANCH  28  31
ENDBRANCH  22  25
ENDBRANCH   9  12
BRANCH   1  35
HETATM   35  N   UNK N   1      23.103  16.769   5.907  0.00  0.00    -0.340 N 
HETATM   36  H   UNK N   1      23.776  16.058   5.805  0.00  0.00     0.167 HD
BRANCH  35  37
HETATM   37  C   UNK N   1      22.048  16.389   6.784  0.00  0.00     0.049 A 
HETATM   38  C   UNK N   1      20.962  17.230   7.021  0.00  0.00     0.030 A 
HETATM   39  C   UNK N   1      19.909  16.838   7.843  0.00  0.00     0.002 A 
HETATM   40  C   UNK N   1      19.934  15.591   8.458  0.00  0.00     0.001 A 
HETATM   41  C   UNK N   1      21.029  14.750   8.276  0.00  0.00     0.019 A 
HETATM   42  C   UNK N   1      22.104  15.130   7.455  0.00  0.00     0.058 A 
BRANCH  42  43
HETATM   43  C   UNK N   1      23.250  14.180   7.326  0.00  0.00     0.253 C 
HETATM   44  N   UNK N   1      23.025  12.843   7.424  0.00  0.00    -0.361 N 
HETATM   45  C   UNK N   1      24.088  11.874   7.330  0.00  0.00     0.149 C 
HETATM   46  H   UNK N   1      22.104  12.526   7.565  0.00  0.00     0.162 HD
HETATM   47  O   UNK N   1      24.388  14.595   7.153  0.00  0.00    -0.268 OA
ENDBRANCH  42  43
ENDBRANCH  35  37
ENDBRANCH   1  35
TORSDOF 9
ENDMDL
MODEL 4
REMARK VINA RESULT:      -8.4      5.146      8.579
REMARK  9 active torsions:
REMARK  status: ('A' for Active; 'I' for Inactive)
REMARK       I    between atoms: N_2  and  C_3 
REMARK    1  A    between atoms: C_3  and  C_5 
REMARK    2  A    between atoms: C_10  and  N_11 
REMARK    3  A    between atoms: N_11  and  C_12 
REMARK       I    between atoms: C_17  and  N_20 
REMARK    4  A    between atoms: N_20  and  C_21 
REMARK    5  A    between atoms: C_26  and  O_27 
REMARK    6  A    between atoms: C_32  and  N_34 
REMARK    7  A    between atoms: N_37  and  C_40 
REMARK    8  A    between atoms: C_40  and  C_41 
REMARK    9  A    between atoms: C_41  and  O_42 
ROOT
HETATM    1  C   UNK N   1      24.954  17.751   3.749  0.00  0.00     0.144 A 
HETATM    2  C   UNK N   1      25.629  19.002   3.673  0.00  0.00     0.094 A 
HETATM    3  C   UNK N   1      24.862  20.159   3.473  0.00  0.00     0.133 A 
HETATM    4  N   UNK N   1      23.504  20.107   3.463  0.00  0.00    -0.200 N 
ATOM      5  HN  UNK N   1      22.960  20.962   3.341  1.00  0.00     0.183 HD
HETATM    6  C   UNK N   1      22.878  18.925   3.615  0.00  0.00     0.684 A 
HETATM    7  N   UNK N   1      23.604  17.782   3.700  0.00  0.00    -0.175 N 
ATOM      8  HN  UNK N   1      23.101  16.895   3.729  1.00  0.00     0.186 HD
HETATM    9  N   UNK N   1      21.498  18.897   3.994  0.00  0.00    -0.189 N 
HETATM   10 Cl   UNK N   1      27.336  19.295   3.915  0.00  0.00    -0.079 Cl
HETATM   11  H   UNK N   1      20.872  19.562   3.628  0.00  0.00     0.184 HD
ENDROOT
BRANCH   9  12
HETATM   12  C   UNK N   1      21.035  17.898   4.908  0.00  0.00     0.083 A 
HETATM   13  C   UNK N   1      21.413  17.994   6.260  0.00  0.00     0.033 A 
HETATM   14  C   UNK N   1      21.183  16.990   7.160  0.00  0.00     0.010 A 
HETATM   15  C   UNK N   1      20.515  15.862   6.745  0.00  0.00    -0.047 A 
HETATM   16  C   UNK N   1      19.997  15.764   5.437  0.00  0.00    -0.016 A 
HETATM   17  C   UNK N   1      20.591  14.671   7.606  0.00  0.00     0.075 C 
HETATM   18  C   UNK N   1      20.251  16.784   4.498  0.00  0.00     0.102 A 
HETATM   19  C   UNK N   1      19.265  14.516   5.007  0.00  0.00     0.042 C 
HETATM   20  C   UNK N   1      20.060  13.207   5.167  0.00  0.00     0.007 C 
HETATM   21  C   UNK N   1      21.538  13.412   5.519  0.00  0.00     0.036 C 
HETATM   22  C   UNK N   1      21.745  13.821   6.994  0.00  0.00     0.227 C 
BRANCH  18  23
HETATM   23  O   UNK N   1      19.785  16.614   3.232  0.00  0.00    -0.353 OA
HETATM   24  C   UNK N   1      20.523  16.185   2.155  0.00  0.00     0.210 C 
ENDBRANCH  18  23
BRANCH  22  25
HETATM   25  N   UNK N   1      22.139  12.686   7.819  0.00  0.00     0.096 N 
HETATM   26  C   UNK N   1      21.476  12.845   9.124  0.00  0.00     0.303 C 
HETATM   27  C   UNK N   1      22.175  12.068  10.210  0.00  0.00     0.302 C 
HETATM   28  N   UNK N   1      23.550  12.530  10.247  0.00  0.00     0.093 N 
HETATM   29  C   UNK N   1      24.187  11.971   9.068  0.00  0.00     0.302 C 
HETATM   30  C   UNK N   1      23.616  12.690   7.850  0.00  0.00     0.303 C 
BRANCH  28  31
HETATM   31  C   UNK N   1      24.184  12.011  11.443  0.00  0.00     0.298 C 
BRANCH  31  32
HETATM   32  C   UNK N   1      23.166  11.960  12.576  0.00  0.00     0.194 C 
BRANCH  32  33
HETATM   33  O   UNK N   1      23.745  12.393  13.772  0.00  0.00    -0.399 OA
HETATM   34  H   UNK N   1      24.320  13.173  13.801  0.00  0.00     0.209 HD
ENDBRANCH  32  33
ENDBRANCH  31  32
ENDBRANCH  28  31
ENDBRANCH  22  25
ENDBRANCH   9  12
BRANCH   1  35
HETATM   35  N   UNK N   1      25.522  16.466   4.055  0.00  0.00    -0.340 N 
HETATM   36  H   UNK N   1      25.179  16.100   4.902  0.00  0.00     0.167 HD
BRANCH  35  37
HETATM   37  C   UNK N   1      26.459  15.594   3.431  0.00  0.00     0.049 A 
HETATM   38  C   UNK N   1      27.829  15.729   3.644  0.00  0.00     0.030 A 
HETATM   39  C   UNK N   1      28.741  14.846   3.070  0.00  0.00     0.002 A 
HETATM   40  C   UNK N   1      28.290  13.814   2.255  0.00  0.00     0.001 A 
HETATM   41  C   UNK N   1      26.929  13.685   1.988  0.00  0.00     0.019 A 
HETATM   42  C   UNK N   1      25.995  14.568   2.553  0.00  0.00     0.058 A 
BRANCH  42  43
HETATM   43  C   UNK N   1      24.555  14.375   2.203  0.00  0.00     0.253 C 
HETATM   44  N   UNK N   1      24.223  13.923   0.965  0.00  0.00    -0.361 N 
HETATM   45  C   UNK N   1      22.854  13.734   0.556  0.00  0.00     0.149 C 
HETATM   46  H   UNK N   1      24.943  13.717   0.326  0.00  0.00     0.162 HD
HETATM   47  O   UNK N   1      23.675  14.639   3.011  0.00  0.00    -0.268 OA
ENDBRANCH  42  43
ENDBRANCH  35  37
ENDBRANCH   1  35
TORSDOF 9
ENDMDL
MODEL 5
REMARK VINA RESULT:      -8.4      3.526      8.671
REMARK  9 active torsions:
REMARK  status: ('A' for Active; 'I' for Inactive)
REMARK       I    between atoms: N_2  and  C_3 
REMARK    1  A    between atoms: C_3  and  C_5 
REMARK    2  A    between atoms: C_10  and  N_11 
REMARK    3  A    between atoms: N_11  and  C_12 
REMARK       I    between atoms: C_17  and  N_20 
REMARK    4  A    between atoms: N_20  and  C_21 
REMARK    5  A    between atoms: C_26  and  O_27 
REMARK    6  A    between atoms: C_32  and  N_34 
REMARK    7  A    between atoms: N_37  and  C_40 
REMARK    8  A    between atoms: C_40  and  C_41 
REMARK    9  A    between atoms: C_41  and  O_42 
ROOT
HETATM    1  C   UNK N   1      25.382  18.269   4.870  0.00  0.00     0.144 A 
HETATM    2  C   UNK N   1      25.946  19.559   4.656  0.00  0.00     0.094 A 
HETATM    3  C   UNK N   1      25.235  20.471   3.863  0.00  0.00     0.133 A 
HETATM    4  N   UNK N   1      23.990  20.178   3.403  0.00  0.00    -0.200 N 
ATOM      5  HN  UNK N   1      23.475  20.864   2.848  1.00  0.00     0.183 HD
HETATM    6  C   UNK N   1      23.437  18.983   3.680  0.00  0.00     0.684 A 
HETATM    7  N   UNK N   1      24.153  18.047   4.352  0.00  0.00    -0.175 N 
ATOM      8  HN  UNK N   1      23.740  17.122   4.473  1.00  0.00     0.186 HD
HETATM    9  N   UNK N   1      22.022  18.809   3.550  0.00  0.00    -0.189 N 
HETATM   10 Cl   UNK N   1      27.407  20.201   5.369  0.00  0.00    -0.079 Cl
HETATM   11  H   UNK N   1      21.538  19.237   2.807  0.00  0.00     0.184 HD
ENDROOT
BRANCH   9  12
HETATM   12  C   UNK N   1      21.317  18.011   4.505  0.00  0.00     0.083 A 
HETATM   13  C   UNK N   1      21.527  18.256   5.875  0.00  0.00     0.033 A 
HETATM   14  C   UNK N   1      21.051  17.424   6.851  0.00  0.00     0.010 A 
HETATM   15  C   UNK N   1      20.298  16.332   6.489  0.00  0.00    -0.047 A 
HETATM   16  C   UNK N   1      19.944  16.107   5.142  0.00  0.00    -0.016 A 
HETATM   17  C   UNK N   1      20.103  15.276   7.495  0.00  0.00     0.075 C 
HETATM   18  C   UNK N   1      20.450  16.947   4.130  0.00  0.00     0.102 A 
HETATM   19  C   UNK N   1      19.114  14.902   4.771  0.00  0.00     0.042 C 
HETATM   20  C   UNK N   1      19.701  13.548   5.210  0.00  0.00     0.007 C 
HETATM   21  C   UNK N   1      21.135  13.631   5.744  0.00  0.00     0.036 C 
HETATM   22  C   UNK N   1      21.203  14.221   7.170  0.00  0.00     0.227 C 
BRANCH  18  23
HETATM   23  O   UNK N   1      20.133  16.651   2.840  0.00  0.00    -0.353 OA
HETATM   24  C   UNK N   1      20.908  15.925   1.969  0.00  0.00     0.210 C 
ENDBRANCH  18  23
BRANCH  22  25
HETATM   25  N   UNK N   1      21.333  13.178   8.181  0.00  0.00     0.096 N 
HETATM   26  C   UNK N   1      21.364  13.845   9.493  0.00  0.00     0.303 C 
HETATM   27  C   UNK N   1      21.999  12.979  10.550  0.00  0.00     0.302 C 
HETATM   28  N   UNK N   1      23.333  12.648  10.084  0.00  0.00     0.093 N 
HETATM   29  C   UNK N   1      23.151  11.678   9.020  0.00  0.00     0.302 C 
HETATM   30  C   UNK N   1      22.544  12.409   7.828  0.00  0.00     0.303 C 
BRANCH  28  31
HETATM   31  C   UNK N   1      24.073  12.049  11.178  0.00  0.00     0.298 C 
BRANCH  31  32
HETATM   32  C   UNK N   1      23.172  11.939  12.402  0.00  0.00     0.194 C 
BRANCH  32  33
HETATM   33  O   UNK N   1      23.861  12.332  13.552  0.00  0.00    -0.399 OA
HETATM   34  H   UNK N   1      23.596  12.019  14.430  0.00  0.00     0.209 HD
ENDBRANCH  32  33
ENDBRANCH  31  32
ENDBRANCH  28  31
ENDBRANCH  22  25
ENDBRANCH   9  12
BRANCH   1  35
HETATM   35  N   UNK N   1      25.878  17.227   5.726  0.00  0.00    -0.340 N 
HETATM   36  H   UNK N   1      26.110  17.561   6.623  0.00  0.00     0.167 HD
BRANCH  35  37
HETATM   37  C   UNK N   1      26.114  15.829   5.594  0.00  0.00     0.049 A 
HETATM   38  C   UNK N   1      25.112  14.896   5.854  0.00  0.00     0.030 A 
HETATM   39  C   UNK N   1      25.332  13.531   5.680  0.00  0.00     0.002 A 
HETATM   40  C   UNK N   1      26.575  13.076   5.253  0.00  0.00     0.001 A 
HETATM   41  C   UNK N   1      27.608  13.984   5.032  0.00  0.00     0.019 A 
HETATM   42  C   UNK N   1      27.407  15.363   5.207  0.00  0.00     0.058 A 
BRANCH  42  43
HETATM   43  C   UNK N   1      28.570  16.271   4.967  0.00  0.00     0.253 C 
HETATM   44  N   UNK N   1      29.636  16.228   5.809  0.00  0.00    -0.361 N 
HETATM   45  C   UNK N   1      30.780  17.090   5.648  0.00  0.00     0.149 C 
HETATM   46  H   UNK N   1      29.626  15.585   6.555  0.00  0.00     0.162 HD
HETATM   47  O   UNK N   1      28.562  17.064   4.036  0.00  0.00    -0.268 OA
ENDBRANCH  42  43
ENDBRANCH  35  37
ENDBRANCH   1  35
TORSDOF 9
ENDMDL
MODEL 6
REMARK VINA RESULT:      -8.1      2.708      4.988
REMARK  9 active torsions:
REMARK  status: ('A' for Active; 'I' for Inactive)
REMARK       I    between atoms: N_2  and  C_3 
REMARK    1  A    between atoms: C_3  and  C_5 
REMARK    2  A    between atoms: C_10  and  N_11 
REMARK    3  A    between atoms: N_11  and  C_12 
REMARK       I    between atoms: C_17  and  N_20 
REMARK    4  A    between atoms: N_20  and  C_21 
REMARK    5  A    between atoms: C_26  and  O_27 
REMARK    6  A    between atoms: C_32  and  N_34 
REMARK    7  A    between atoms: N_37  and  C_40 
REMARK    8  A    between atoms: C_40  and  C_41 
REMARK    9  A    between atoms: C_41  and  O_42 
ROOT
HETATM    1  C   UNK N   1      22.483  16.685   5.452  0.00  0.00     0.144 A 
HETATM    2  C   UNK N   1      21.298  16.452   6.205  0.00  0.00     0.094 A 
HETATM    3  C   UNK N   1      20.653  15.215   6.061  0.00  0.00     0.133 A 
HETATM    4  N   UNK N   1      21.199  14.222   5.311  0.00  0.00    -0.200 N 
ATOM      5  HN  UNK N   1      20.728  13.319   5.237  1.00  0.00     0.183 HD
HETATM    6  C   UNK N   1      22.362  14.432   4.667  0.00  0.00     0.684 A 
HETATM    7  N   UNK N   1      22.945  15.656   4.706  0.00  0.00    -0.175 N 
ATOM      8  HN  UNK N   1      23.780  15.809   4.140  1.00  0.00     0.186 HD
HETATM    9  N   UNK N   1      23.131  13.314   4.211  0.00  0.00    -0.189 N 
HETATM   10 Cl   UNK N   1      20.589  17.506   7.405  0.00  0.00    -0.079 Cl
HETATM   11  H   UNK N   1      22.681  12.523   3.838  0.00  0.00     0.184 HD
ENDROOT
BRANCH   9  12
HETATM   12  C   UNK N   1      24.559  13.353   4.303  0.00  0.00     0.083 A 
HETATM   13  C   UNK N   1      25.159  13.164   5.562  0.00  0.00     0.033 A 
HETATM   14  C   UNK N   1      26.493  13.377   5.779  0.00  0.00     0.010 A 
HETATM   15  C   UNK N   1      27.291  13.742   4.720  0.00  0.00    -0.047 A 
HETATM   16  C   UNK N   1      26.772  13.819   3.411  0.00  0.00    -0.016 A 
HETATM   17  C   UNK N   1      28.616  14.303   5.030  0.00  0.00     0.075 C 
HETATM   18  C   UNK N   1      25.395  13.625   3.185  0.00  0.00     0.102 A 
HETATM   19  C   UNK N   1      27.671  14.220   2.266  0.00  0.00     0.042 C 
HETATM   20  C   UNK N   1      28.383  15.574   2.442  0.00  0.00     0.007 C 
HETATM   21  C   UNK N   1      27.886  16.393   3.638  0.00  0.00     0.036 C 
HETATM   22  C   UNK N   1      28.405  15.847   4.986  0.00  0.00     0.227 C 
BRANCH  18  23
HETATM   23  O   UNK N   1      24.932  13.774   1.915  0.00  0.00    -0.353 OA
HETATM   24  C   UNK N   1      24.498  12.761   1.094  0.00  0.00     0.210 C 
ENDBRANCH  18  23
BRANCH  22  25
HETATM   25  N   UNK N   1      29.548  16.609   5.474  0.00  0.00     0.096 N 
HETATM   26  C   UNK N   1      30.739  15.758   5.313  0.00  0.00     0.303 C 
HETATM   27  C   UNK N   1      31.863  16.186   6.222  0.00  0.00     0.302 C 
HETATM   28  N   UNK N   1      31.353  16.145   7.580  0.00  0.00     0.093 N 
HETATM   29  C   UNK N   1      30.463  17.285   7.703  0.00  0.00     0.302 C 
HETATM   30  C   UNK N   1      29.224  16.997   6.863  0.00  0.00     0.303 C 
BRANCH  28  31
HETATM   31  C   UNK N   1      32.465  16.285   8.500  0.00  0.00     0.298 C 
BRANCH  31  32
HETATM   32  C   UNK N   1      32.527  15.065   9.412  0.00  0.00     0.194 C 
BRANCH  32  33
HETATM   33  O   UNK N   1      31.597  15.183  10.448  0.00  0.00    -0.399 OA
HETATM   34  H   UNK N   1      31.365  16.046  10.822  0.00  0.00     0.209 HD
ENDBRANCH  32  33
ENDBRANCH  31  32
ENDBRANCH  28  31
ENDBRANCH  22  25
ENDBRANCH   9  12
BRANCH   1  35
HETATM   35  N   UNK N   1      23.359  17.823   5.524  0.00  0.00    -0.340 N 
HETATM   36  H   UNK N   1      23.650  18.010   6.445  0.00  0.00     0.167 HD
BRANCH  35  37
HETATM   37  C   UNK N   1      23.907  18.745   4.588  0.00  0.00     0.049 A 
HETATM   38  C   UNK N   1      25.278  18.988   4.526  0.00  0.00     0.030 A 
HETATM   39  C   UNK N   1      25.817  19.856   3.579  0.00  0.00     0.002 A 
HETATM   40  C   UNK N   1      24.981  20.510   2.680  0.00  0.00     0.001 A 
HETATM   41  C   UNK N   1      23.603  20.321   2.751  0.00  0.00     0.019 A 
HETATM   42  C   UNK N   1      23.040  19.454   3.702  0.00  0.00     0.058 A 
BRANCH  42  43
HETATM   43  C   UNK N   1      21.552  19.320   3.726  0.00  0.00     0.253 C 
HETATM   44  N   UNK N   1      20.919  18.713   2.688  0.00  0.00    -0.361 N 
HETATM   45  C   UNK N   1      19.486  18.569   2.638  0.00  0.00     0.149 C 
HETATM   46  H   UNK N   1      21.459  18.359   1.944  0.00  0.00     0.162 HD
HETATM   47  O   UNK N   1      20.900  19.769   4.659  0.00  0.00    -0.268 OA
ENDBRANCH  42  43
ENDBRANCH  35  37
ENDBRANCH   1  35
TORSDOF 9
ENDMDL
MODEL 7
REMARK VINA RESULT:      -8.0      3.944     10.216
REMARK  9 active torsions:
REMARK  status: ('A' for Active; 'I' for Inactive)
REMARK       I    between atoms: N_2  and  C_3 
REMARK    1  A    between atoms: C_3  and  C_5 
REMARK    2  A    between atoms: C_10  and  N_11 
REMARK    3  A    between atoms: N_11  and  C_12 
REMARK       I    between atoms: C_17  and  N_20 
REMARK    4  A    between atoms: N_20  and  C_21 
REMARK    5  A    between atoms: C_26  and  O_27 
REMARK    6  A    between atoms: C_32  and  N_34 
REMARK    7  A    between atoms: N_37  and  C_40 
REMARK    8  A    between atoms: C_40  and  C_41 
REMARK    9  A    between atoms: C_41  and  O_42 
ROOT
HETATM    1  C   UNK N   1      27.344  15.082   5.412  0.00  0.00     0.144 A 
HETATM    2  C   UNK N   1      28.456  14.832   4.559  0.00  0.00     0.094 A 
HETATM    3  C   UNK N   1      28.685  13.515   4.137  0.00  0.00     0.133 A 
HETATM    4  N   UNK N   1      27.811  12.519   4.439  0.00  0.00    -0.200 N 
ATOM      5  HN  UNK N   1      27.980  11.570   4.102  1.00  0.00     0.183 HD
HETATM    6  C   UNK N   1      26.721  12.787   5.181  0.00  0.00     0.684 A 
HETATM    7  N   UNK N   1      26.539  14.032   5.690  0.00  0.00    -0.175 N 
ATOM      8  HN  UNK N   1      25.750  14.183   6.318  1.00  0.00     0.186 HD
HETATM    9  N   UNK N   1      25.619  11.874   5.178  0.00  0.00    -0.189 N 
HETATM   10 Cl   UNK N   1      29.538  16.016   3.864  0.00  0.00    -0.079 Cl
HETATM   11  H   UNK N   1      25.781  10.904   5.161  0.00  0.00     0.184 HD
ENDROOT
BRANCH   9  12
HETATM   12  C   UNK N   1      24.280  12.381   5.198  0.00  0.00     0.083 A 
HETATM   13  C   UNK N   1      23.626  12.603   3.972  0.00  0.00     0.033 A 
HETATM   14  C   UNK N   1      22.429  13.262   3.887  0.00  0.00     0.010 A 
HETATM   15  C   UNK N   1      21.816  13.683   5.044  0.00  0.00    -0.047 A 
HETATM   16  C   UNK N   1      22.359  13.374   6.308  0.00  0.00    -0.016 A 
HETATM   17  C   UNK N   1      20.741  14.679   4.919  0.00  0.00     0.075 C 
HETATM   18  C   UNK N   1      23.602  12.717   6.402  0.00  0.00     0.102 A 
HETATM   19  C   UNK N   1      21.665  13.846   7.563  0.00  0.00     0.042 C 
HETATM   20  C   UNK N   1      21.430  15.366   7.644  0.00  0.00     0.007 C 
HETATM   21  C   UNK N   1      22.141  16.169   6.549  0.00  0.00     0.036 C 
HETATM   22  C   UNK N   1      21.445  16.046   5.177  0.00  0.00     0.227 C 
BRANCH  18  23
HETATM   23  O   UNK N   1      24.115  12.499   7.643  0.00  0.00    -0.353 OA
HETATM   24  C   UNK N   1      23.904  11.382   8.415  0.00  0.00     0.210 C 
ENDBRANCH  18  23
BRANCH  22  25
HETATM   25  N   UNK N   1      20.603  17.202   4.892  0.00  0.00     0.096 N 
HETATM   26  C   UNK N   1      20.004  16.989   3.564  0.00  0.00     0.303 C 
HETATM   27  C   UNK N   1      19.552  18.282   2.936  0.00  0.00     0.302 C 
HETATM   28  N   UNK N   1      20.712  19.152   2.870  0.00  0.00     0.093 N 
HETATM   29  C   UNK N   1      20.958  19.589   4.232  0.00  0.00     0.302 C 
HETATM   30  C   UNK N   1      21.474  18.389   5.017  0.00  0.00     0.303 C 
BRANCH  28  31
HETATM   31  C   UNK N   1      20.391  20.293   2.035  0.00  0.00     0.298 C 
BRANCH  31  32
HETATM   32  C   UNK N   1      21.063  20.135   0.677  0.00  0.00     0.194 C 
BRANCH  32  33
HETATM   33  O   UNK N   1      20.664  21.157  -0.188  0.00  0.00    -0.399 OA
HETATM   34  H   UNK N   1      20.953  22.073  -0.054  0.00  0.00     0.209 HD
ENDBRANCH  32  33
ENDBRANCH  31  32
ENDBRANCH  28  31
ENDBRANCH  22  25
ENDBRANCH   9  12
BRANCH   1  35
HETATM   35  N   UNK N   1      26.860  16.355   5.872  0.00  0.00    -0.340 N 
HETATM   36  H   UNK N   1      26.343  16.278   6.706  0.00  0.00     0.167 HD
BRANCH  35  37
HETATM   37  C   UNK N   1      26.948  17.701   5.416  0.00  0.00     0.049 A 
HETATM   38  C   UNK N   1      26.230  18.139   4.304  0.00  0.00     0.030 A 
HETATM   39  C   UNK N   1      26.282  19.467   3.887  0.00  0.00     0.002 A 
HETATM   40  C   UNK N   1      27.071  20.382   4.575  0.00  0.00     0.001 A 
HETATM   41  C   UNK N   1      27.835  19.960   5.661  0.00  0.00     0.019 A 
HETATM   42  C   UNK N   1      27.801  18.624   6.094  0.00  0.00     0.058 A 
BRANCH  42  43
HETATM   43  C   UNK N   1      28.664  18.247   7.254  0.00  0.00     0.253 C 
HETATM   44  N   UNK N   1      28.470  18.851   8.456  0.00  0.00    -0.361 N 
HETATM   45  C   UNK N   1      29.279  18.548   9.609  0.00  0.00     0.149 C 
HETATM   46  H   UNK N   1      27.751  19.518   8.541  0.00  0.00     0.162 HD
HETATM   47  O   UNK N   1      29.553  17.416   7.126  0.00  0.00    -0.268 OA
ENDBRANCH  42  43
ENDBRANCH  35  37
ENDBRANCH   1  35
TORSDOF 9
ENDMDL
MODEL 8
REMARK VINA RESULT:      -7.9     12.213     16.027
REMARK  9 active torsions:
REMARK  status: ('A' for Active; 'I' for Inactive)
REMARK       I    between atoms: N_2  and  C_3 
REMARK    1  A    between atoms: C_3  and  C_5 
REMARK    2  A    between atoms: C_10  and  N_11 
REMARK    3  A    between atoms: N_11  and  C_12 
REMARK       I    between atoms: C_17  and  N_20 
REMARK    4  A    between atoms: N_20  and  C_21 
REMARK    5  A    between atoms: C_26  and  O_27 
REMARK    6  A    between atoms: C_32  and  N_34 
REMARK    7  A    between atoms: N_37  and  C_40 
REMARK    8  A    between atoms: C_40  and  C_41 
REMARK    9  A    between atoms: C_41  and  O_42 
ROOT
HETATM    1  C   UNK N   1      29.734  22.645  -7.131  0.00  0.00     0.144 A 
HETATM    2  C   UNK N   1      30.307  21.913  -8.210  0.00  0.00     0.094 A 
HETATM    3  C   UNK N   1      29.534  21.719  -9.364  0.00  0.00     0.133 A 
HETATM    4  N   UNK N   1      28.316  22.307  -9.500  0.00  0.00    -0.200 N 
ATOM      5  HN  UNK N   1      27.778  22.175 -10.357  1.00  0.00     0.183 HD
HETATM    6  C   UNK N   1      27.821  23.061  -8.501  0.00  0.00     0.684 A 
HETATM    7  N   UNK N   1      28.506  23.171  -7.334  0.00  0.00    -0.175 N 
ATOM      8  HN  UNK N   1      28.067  23.679  -6.566  1.00  0.00     0.186 HD
HETATM    9  N   UNK N   1      26.758  23.981  -8.768  0.00  0.00    -0.189 N 
HETATM   10 Cl   UNK N   1      31.941  21.302  -8.318  0.00  0.00    -0.079 Cl
HETATM   11  H   UNK N   1      26.036  23.735  -9.389  0.00  0.00     0.184 HD
ENDROOT
BRANCH   9  12
HETATM   12  C   UNK N   1      26.752  25.261  -8.126  0.00  0.00     0.083 A 
HETATM   13  C   UNK N   1      27.540  26.291  -8.671  0.00  0.00     0.033 A 
HETATM   14  C   UNK N   1      27.748  27.478  -8.021  0.00  0.00     0.010 A 
HETATM   15  C   UNK N   1      27.126  27.695  -6.814  0.00  0.00    -0.047 A 
HETATM   16  C   UNK N   1      26.221  26.754  -6.282  0.00  0.00    -0.016 A 
HETATM   17  C   UNK N   1      27.630  28.797  -5.979  0.00  0.00     0.075 C 
HETATM   18  C   UNK N   1      26.021  25.520  -6.933  0.00  0.00     0.102 A 
HETATM   19  C   UNK N   1      25.549  27.018  -4.956  0.00  0.00     0.042 C 
HETATM   20  C   UNK N   1      26.510  27.283  -3.782  0.00  0.00     0.007 C 
HETATM   21  C   UNK N   1      27.983  27.009  -4.104  0.00  0.00     0.036 C 
HETATM   22  C   UNK N   1      28.613  28.111  -4.983  0.00  0.00     0.227 C 
BRANCH  18  23
HETATM   23  O   UNK N   1      25.188  24.619  -6.348  0.00  0.00    -0.353 OA
HETATM   24  C   UNK N   1      25.570  23.595  -5.514  0.00  0.00     0.210 C 
ENDBRANCH  18  23
BRANCH  22  25
HETATM   25  N   UNK N   1      29.397  29.052  -4.190  0.00  0.00     0.096 N 
HETATM   26  C   UNK N   1      29.918  28.314  -3.028  0.00  0.00     0.303 C 
HETATM   27  C   UNK N   1      30.286  29.236  -1.894  0.00  0.00     0.302 C 
HETATM   28  N   UNK N   1      29.095  29.996  -1.559  0.00  0.00     0.093 N 
HETATM   29  C   UNK N   1      28.921  30.954  -2.635  0.00  0.00     0.302 C 
HETATM   30  C   UNK N   1      28.495  30.180  -3.878  0.00  0.00     0.303 C 
BRANCH  28  31
HETATM   31  C   UNK N   1      29.325  30.693  -0.309  0.00  0.00     0.298 C 
BRANCH  31  32
HETATM   32  C   UNK N   1      28.104  30.541   0.590  0.00  0.00     0.194 C 
BRANCH  32  33
HETATM   33  O   UNK N   1      27.806  29.190   0.784  0.00  0.00    -0.399 OA
HETATM   34  H   UNK N   1      27.176  28.725   0.213  0.00  0.00     0.209 HD
ENDBRANCH  32  33
ENDBRANCH  31  32
ENDBRANCH  28  31
ENDBRANCH  22  25
ENDBRANCH   9  12
BRANCH   1  35
HETATM   35  N   UNK N   1      30.375  23.053  -5.911  0.00  0.00    -0.340 N 
HETATM   36  H   UNK N   1      31.283  23.400  -6.066  0.00  0.00     0.167 HD
BRANCH  35  37
HETATM   37  C   UNK N   1      30.016  23.078  -4.533  0.00  0.00     0.049 A 
HETATM   38  C   UNK N   1      28.786  23.581  -4.113  0.00  0.00     0.030 A 
HETATM   39  C   UNK N   1      28.418  23.562  -2.769  0.00  0.00     0.002 A 
HETATM   40  C   UNK N   1      29.291  23.048  -1.817  0.00  0.00     0.001 A 
HETATM   41  C   UNK N   1      30.546  22.583  -2.204  0.00  0.00     0.019 A 
HETATM   42  C   UNK N   1      30.937  22.598  -3.553  0.00  0.00     0.058 A 
BRANCH  42  43
HETATM   43  C   UNK N   1      32.306  22.099  -3.886  0.00  0.00     0.253 C 
HETATM   44  N   UNK N   1      32.706  20.886  -3.422  0.00  0.00    -0.361 N 
HETATM   45  C   UNK N   1      34.019  20.355  -3.688  0.00  0.00     0.149 C 
HETATM   46  H   UNK N   1      32.077  20.352  -2.885  0.00  0.00     0.162 HD
HETATM   47  O   UNK N   1      33.073  22.780  -4.553  0.00  0.00    -0.268 OA
ENDBRANCH  42  43
ENDBRANCH  35  37
ENDBRANCH   1  35
TORSDOF 9
ENDMDL
MODEL 9
REMARK VINA RESULT:      -7.8      4.447      8.383
REMARK  9 active torsions:
REMARK  status: ('A' for Active; 'I' for Inactive)
REMARK       I    between atoms: N_2  and  C_3 
REMARK    1  A    between atoms: C_3  and  C_5 
REMARK    2  A    between atoms: C_10  and  N_11 
REMARK    3  A    between atoms: N_11  and  C_12 
REMARK       I    between atoms: C_17  and  N_20 
REMARK    4  A    between atoms: N_20  and  C_21 
REMARK    5  A    between atoms: C_26  and  O_27 
REMARK    6  A    between atoms: C_32  and  N_34 
REMARK    7  A    between atoms: N_37  and  C_40 
REMARK    8  A    between atoms: C_40  and  C_41 
REMARK    9  A    between atoms: C_41  and  O_42 
ROOT
HETATM    1  C   UNK N   1      25.611  17.707   3.755  0.00  0.00     0.144 A 
HETATM    2  C   UNK N   1      26.417  18.862   3.962  0.00  0.00     0.094 A 
HETATM    3  C   UNK N   1      25.797  20.119   3.922  0.00  0.00     0.133 A 
HETATM    4  N   UNK N   1      24.448  20.232   3.803  0.00  0.00    -0.200 N 
ATOM      5  HN  UNK N   1      24.011  21.155   3.800  1.00  0.00     0.183 HD
HETATM    6  C   UNK N   1      23.691  19.126   3.687  0.00  0.00     0.684 A 
HETATM    7  N   UNK N   1      24.282  17.907   3.613  0.00  0.00    -0.175 N 
ATOM      8  HN  UNK N   1      23.689  17.095   3.441  1.00  0.00     0.186 HD
HETATM    9  N   UNK N   1      22.286  19.198   3.950  0.00  0.00    -0.189 N 
HETATM   10 Cl   UNK N   1      28.114  18.901   4.380  0.00  0.00    -0.079 Cl
HETATM   11  H   UNK N   1      21.770  19.986   3.668  0.00  0.00     0.184 HD
ENDROOT
BRANCH   9  12
HETATM   12  C   UNK N   1      21.637  18.117   4.627  0.00  0.00     0.083 A 
HETATM   13  C   UNK N   1      21.441  18.213   6.018  0.00  0.00     0.033 A 
HETATM   14  C   UNK N   1      21.010  17.156   6.773  0.00  0.00     0.010 A 
HETATM   15  C   UNK N   1      20.710  15.968   6.149  0.00  0.00    -0.047 A 
HETATM   16  C   UNK N   1      20.761  15.852   4.745  0.00  0.00    -0.016 A 
HETATM   17  C   UNK N   1      20.597  14.767   6.992  0.00  0.00     0.075 C 
HETATM   18  C   UNK N   1      21.226  16.928   3.963  0.00  0.00     0.102 A 
HETATM   19  C   UNK N   1      20.423  14.537   4.084  0.00  0.00     0.042 C 
HETATM   20  C   UNK N   1      21.255  13.334   4.566  0.00  0.00     0.007 C 
HETATM   21  C   UNK N   1      22.439  13.711   5.465  0.00  0.00     0.036 C 
HETATM   22  C   UNK N   1      21.998  14.092   6.895  0.00  0.00     0.227 C 
BRANCH  18  23
HETATM   23  O   UNK N   1      21.318  16.745   2.618  0.00  0.00    -0.353 OA
HETATM   24  C   UNK N   1      20.322  16.989   1.704  0.00  0.00     0.210 C 
ENDBRANCH  18  23
BRANCH  22  25
HETATM   25  N   UNK N   1      22.183  12.987   7.829  0.00  0.00     0.096 N 
HETATM   26  C   UNK N   1      21.746  13.459   9.154  0.00  0.00     0.303 C 
HETATM   27  C   UNK N   1      22.346  12.642  10.269  0.00  0.00     0.302 C 
HETATM   28  N   UNK N   1      23.788  12.714  10.121  0.00  0.00     0.093 N 
HETATM   29  C   UNK N   1      24.111  11.881   8.977  0.00  0.00     0.302 C 
HETATM   30  C   UNK N   1      23.603  12.593   7.729  0.00  0.00     0.303 C 
BRANCH  28  31
HETATM   31  C   UNK N   1      24.406  12.174  11.316  0.00  0.00     0.298 C 
BRANCH  31  32
HETATM   32  C   UNK N   1      23.338  11.933  12.376  0.00  0.00     0.194 C 
BRANCH  32  33
HETATM   33  O   UNK N   1      23.797  12.339  13.632  0.00  0.00    -0.399 OA
HETATM   34  H   UNK N   1      24.736  12.285  13.868  0.00  0.00     0.209 HD
ENDBRANCH  32  33
ENDBRANCH  31  32
ENDBRANCH  28  31
ENDBRANCH  22  25
ENDBRANCH   9  12
BRANCH   1  35
HETATM   35  N   UNK N   1      26.010  16.329   3.860  0.00  0.00    -0.340 N 
HETATM   36  H   UNK N   1      26.750  16.203   4.497  0.00  0.00     0.167 HD
BRANCH  35  37
HETATM   37  C   UNK N   1      25.596  15.103   3.267  0.00  0.00     0.049 A 
HETATM   38  C   UNK N   1      24.415  15.015   2.532  0.00  0.00     0.030 A 
HETATM   39  C   UNK N   1      24.035  13.826   1.914  0.00  0.00     0.002 A 
HETATM   40  C   UNK N   1      24.832  12.693   2.036  0.00  0.00     0.001 A 
HETATM   41  C   UNK N   1      25.993  12.741   2.804  0.00  0.00     0.019 A 
HETATM   42  C   UNK N   1      26.391  13.929   3.439  0.00  0.00     0.058 A 
BRANCH  42  43
HETATM   43  C   UNK N   1      27.639  13.895   4.261  0.00  0.00     0.253 C 
HETATM   44  N   UNK N   1      28.795  13.450   3.702  0.00  0.00    -0.361 N 
HETATM   45  C   UNK N   1      30.028  13.372   4.443  0.00  0.00     0.149 C 
HETATM   46  H   UNK N   1      28.789  13.172   2.757  0.00  0.00     0.162 HD
HETATM   47  O   UNK N   1      27.624  14.243   5.433  0.00  0.00    -0.268 OA
ENDBRANCH  42  43
ENDBRANCH  35  37
ENDBRANCH   1  35
TORSDOF 9
ENDMDL
