MODEL 1
REMARK VINA RESULT:      -7.4      0.000      0.000
REMARK  4 active torsions:
REMARK  status: ('A' for Active; 'I' for Inactive)
REMARK    1  A    between atoms: O_1  and  C_2 
REMARK    2  A    between atoms: C_3  and  O_4 
REMARK    3  A    between atoms: C_16  and  O_17 
REMARK    4  A    between atoms: C_18  and  O_19 
ROOT
HETATM    1  C   UNK N   1      31.323  21.754  -3.009  0.00  0.00     0.102 A 
HETATM    2  C   UNK N   1      30.349  22.653  -2.541  0.00  0.00     0.134 A 
HETATM    3  C   UNK N   1      29.309  23.057  -3.385  0.00  0.00     0.127 A 
HETATM    4  C   UNK N   1      29.248  22.549  -4.692  0.00  0.00     0.031 A 
HETATM    5  C   UNK N   1      30.215  21.651  -5.168  0.00  0.00     0.056 A 
HETATM    6  C   UNK N   1      31.258  21.257  -4.319  0.00  0.00     0.058 A 
HETATM    7  C   UNK N   1      30.095  21.176  -6.489  0.00  0.00     0.299 A 
HETATM    8  O   UNK N   1      30.917  20.398  -6.942  0.00  0.00    -0.259 OA
HETATM    9  O   UNK N   1      29.075  21.571  -7.254  0.00  0.00    -0.271 OA
HETATM   10  C   UNK N   1      28.141  22.423  -6.823  0.00  0.00     0.127 A 
HETATM   11  C   UNK N   1      28.209  22.942  -5.521  0.00  0.00     0.031 A 
HETATM   12  C   UNK N   1      27.245  23.841  -5.045  0.00  0.00     0.056 A 
HETATM   13  C   UNK N   1      26.195  24.226  -5.891  0.00  0.00     0.058 A 
HETATM   14  C   UNK N   1      26.114  23.708  -7.191  0.00  0.00     0.102 A 
HETATM   15  C   UNK N   1      27.085  22.805  -7.659  0.00  0.00     0.134 A 
HETATM   16  C   UNK N   1      27.369  24.322  -3.728  0.00  0.00     0.299 A 
HETATM   17  O   UNK N   1      26.554  25.110  -3.278  0.00  0.00    -0.259 OA
HETATM   18  O   UNK N   1      28.380  23.915  -2.957  0.00  0.00    -0.271 OA
ENDROOT
BRANCH   1  19
HETATM   19  O   UNK N   1      32.324  21.363  -2.202  0.00  0.00    -0.358 OA
HETATM   20  H   UNK N   1      33.213  21.436  -2.489  0.00  0.00     0.217 HD
ENDBRANCH   1  19
BRANCH   2  21
HETATM   21  O   UNK N   1      30.414  23.124  -1.282  0.00  0.00    -0.356 OA
HETATM   22  H   UNK N   1      31.019  23.805  -1.067  0.00  0.00     0.218 HD
ENDBRANCH   2  21
BRANCH  15  23
HETATM   23  O   UNK N   1      27.002  22.307  -8.905  0.00  0.00    -0.356 OA
HETATM   24  H   UNK N   1      27.679  22.488  -9.528  0.00  0.00     0.218 HD
ENDBRANCH  15  23
BRANCH  14  25
HETATM   25  O   UNK N   1      25.100  24.078  -7.989  0.00  0.00    -0.358 OA
HETATM   26  H   UNK N   1      24.298  24.389  -7.616  0.00  0.00     0.217 HD
ENDBRANCH  14  25
TORSDOF 4
ENDMDL
MODEL 2
REMARK VINA RESULT:      -7.4      0.112      6.171
REMARK  4 active torsions:
REMARK  status: ('A' for Active; 'I' for Inactive)
REMARK    1  A    between atoms: O_1  and  C_2 
REMARK    2  A    between atoms: C_3  and  O_4 
REMARK    3  A    between atoms: C_16  and  O_17 
REMARK    4  A    between atoms: C_18  and  O_19 
ROOT
HETATM    1  C   UNK N   1      26.184  23.764  -7.239  0.00  0.00     0.102 A 
HETATM    2  C   UNK N   1      27.185  22.896  -7.712  0.00  0.00     0.134 A 
HETATM    3  C   UNK N   1      28.234  22.515  -6.867  0.00  0.00     0.127 A 
HETATM    4  C   UNK N   1      28.267  23.001  -5.551  0.00  0.00     0.031 A 
HETATM    5  C   UNK N   1      27.273  23.865  -5.070  0.00  0.00     0.056 A 
HETATM    6  C   UNK N   1      26.230  24.249  -5.925  0.00  0.00     0.058 A 
HETATM    7  C   UNK N   1      27.362  24.314  -3.738  0.00  0.00     0.299 A 
HETATM    8  O   UNK N   1      26.521  25.071  -3.284  0.00  0.00    -0.259 OA
HETATM    9  O   UNK N   1      28.369  23.910  -2.960  0.00  0.00    -0.271 OA
HETATM   10  C   UNK N   1      29.325  23.085  -3.393  0.00  0.00     0.127 A 
HETATM   11  C   UNK N   1      29.300  22.610  -4.713  0.00  0.00     0.031 A 
HETATM   12  C   UNK N   1      30.294  21.747  -5.195  0.00  0.00     0.056 A 
HETATM   13  C   UNK N   1      31.331  21.354  -4.337  0.00  0.00     0.058 A 
HETATM   14  C   UNK N   1      31.361  21.817  -3.014  0.00  0.00     0.102 A 
HETATM   15  C   UNK N   1      30.359  22.682  -2.540  0.00  0.00     0.134 A 
HETATM   16  C   UNK N   1      30.209  21.305  -6.529  0.00  0.00     0.299 A 
HETATM   17  O   UNK N   1      31.057  20.557  -6.987  0.00  0.00    -0.259 OA
HETATM   18  O   UNK N   1      29.194  21.697  -7.303  0.00  0.00    -0.271 OA
ENDROOT
BRANCH   1  19
HETATM   19  O   UNK N   1      25.176  24.132  -8.046  0.00  0.00    -0.358 OA
HETATM   20  H   UNK N   1      25.251  24.016  -8.973  0.00  0.00     0.217 HD
ENDBRANCH   1  19
BRANCH   2  21
HETATM   21  O   UNK N   1      27.135  22.430  -8.972  0.00  0.00    -0.356 OA
HETATM   22  H   UNK N   1      26.838  21.557  -9.137  0.00  0.00     0.218 HD
ENDBRANCH   2  21
BRANCH  15  23
HETATM   23  O   UNK N   1      30.389  23.120  -1.269  0.00  0.00    -0.356 OA
HETATM   24  H   UNK N   1      30.837  22.623  -0.612  0.00  0.00     0.218 HD
ENDBRANCH  15  23
BRANCH  14  25
HETATM   25  O   UNK N   1      32.355  21.428  -2.199  0.00  0.00    -0.358 OA
HETATM   26  H   UNK N   1      32.462  20.521  -1.989  0.00  0.00     0.217 HD
ENDBRANCH  14  25
TORSDOF 4
ENDMDL
MODEL 3
REMARK VINA RESULT:      -7.1     12.463     13.729
REMARK  4 active torsions:
REMARK  status: ('A' for Active; 'I' for Inactive)
REMARK    1  A    between atoms: O_1  and  C_2 
REMARK    2  A    between atoms: C_3  and  O_4 
REMARK    3  A    between atoms: C_16  and  O_17 
REMARK    4  A    between atoms: C_18  and  O_19 
ROOT
HETATM    1  C   UNK N   1      20.223  14.851   5.928  0.00  0.00     0.102 A 
HETATM    2  C   UNK N   1      19.920  14.561   4.585  0.00  0.00     0.134 A 
HETATM    3  C   UNK N   1      20.015  15.566   3.616  0.00  0.00     0.127 A 
HETATM    4  C   UNK N   1      20.421  16.855   3.999  0.00  0.00     0.031 A 
HETATM    5  C   UNK N   1      20.725  17.153   5.335  0.00  0.00     0.056 A 
HETATM    6  C   UNK N   1      20.620  16.143   6.301  0.00  0.00     0.058 A 
HETATM    7  C   UNK N   1      21.129  18.464   5.653  0.00  0.00     0.299 A 
HETATM    8  O   UNK N   1      21.398  18.765   6.804  0.00  0.00    -0.259 OA
HETATM    9  O   UNK N   1      21.226  19.388   4.694  0.00  0.00    -0.271 OA
HETATM   10  C   UNK N   1      20.945  19.128   3.415  0.00  0.00     0.127 A 
HETATM   11  C   UNK N   1      20.526  17.844   3.034  0.00  0.00     0.031 A 
HETATM   12  C   UNK N   1      20.220  17.545   1.699  0.00  0.00     0.056 A 
HETATM   13  C   UNK N   1      20.336  18.552   0.731  0.00  0.00     0.058 A 
HETATM   14  C   UNK N   1      20.760  19.837   1.100  0.00  0.00     0.102 A 
HETATM   15  C   UNK N   1      21.066  20.126   2.442  0.00  0.00     0.134 A 
HETATM   16  C   UNK N   1      19.808  16.236   1.382  0.00  0.00     0.299 A 
HETATM   17  O   UNK N   1      19.528  15.938   0.234  0.00  0.00    -0.259 OA
HETATM   18  O   UNK N   1      19.726  15.308   2.339  0.00  0.00    -0.271 OA
ENDROOT
BRANCH   1  19
HETATM   19  O   UNK N   1      20.133  13.890   6.861  0.00  0.00    -0.358 OA
HETATM   20  H   UNK N   1      19.323  13.437   6.991  0.00  0.00     0.217 HD
ENDBRANCH   1  19
BRANCH   2  21
HETATM   21  O   UNK N   1      19.544  13.320   4.230  0.00  0.00    -0.356 OA
HETATM   22  H   UNK N   1      19.825  12.961   3.412  0.00  0.00     0.218 HD
ENDBRANCH   2  21
BRANCH  15  23
HETATM   23  O   UNK N   1      21.477  21.358   2.791  0.00  0.00    -0.356 OA
HETATM   24  H   UNK N   1      21.198  21.731   3.605  0.00  0.00     0.218 HD
ENDBRANCH  15  23
BRANCH  14  25
HETATM   25  O   UNK N   1      20.875  20.791   0.163  0.00  0.00    -0.358 OA
HETATM   26  H   UNK N   1      21.702  21.204   0.012  0.00  0.00     0.217 HD
ENDBRANCH  14  25
TORSDOF 4
ENDMDL
MODEL 4
REMARK VINA RESULT:      -7.1     10.539     11.799
REMARK  4 active torsions:
REMARK  status: ('A' for Active; 'I' for Inactive)
REMARK    1  A    between atoms: O_1  and  C_2 
REMARK    2  A    between atoms: C_3  and  O_4 
REMARK    3  A    between atoms: C_16  and  O_17 
REMARK    4  A    between atoms: C_18  and  O_19 
ROOT
HETATM    1  C   UNK N   1      26.176  18.308   4.881  0.00  0.00     0.102 A 
HETATM    2  C   UNK N   1      25.238  17.355   5.318  0.00  0.00     0.134 A 
HETATM    3  C   UNK N   1      23.905  17.448   4.903  0.00  0.00     0.127 A 
HETATM    4  C   UNK N   1      23.522  18.491   4.046  0.00  0.00     0.031 A 
HETATM    5  C   UNK N   1      24.450  19.445   3.604  0.00  0.00     0.056 A 
HETATM    6  C   UNK N   1      25.782  19.351   4.030  0.00  0.00     0.058 A 
HETATM    7  C   UNK N   1      24.003  20.466   2.742  0.00  0.00     0.299 A 
HETATM    8  O   UNK N   1      24.778  21.317   2.340  0.00  0.00    -0.259 OA
HETATM    9  O   UNK N   1      22.726  20.505   2.354  0.00  0.00    -0.271 OA
HETATM   10  C   UNK N   1      21.825  19.607   2.758  0.00  0.00     0.127 A 
HETATM   11  C   UNK N   1      22.204  18.571   3.627  0.00  0.00     0.031 A 
HETATM   12  C   UNK N   1      21.276  17.619   4.070  0.00  0.00     0.056 A 
HETATM   13  C   UNK N   1      19.947  17.706   3.635  0.00  0.00     0.058 A 
HETATM   14  C   UNK N   1      19.560  18.733   2.762  0.00  0.00     0.102 A 
HETATM   15  C   UNK N   1      20.497  19.683   2.322  0.00  0.00     0.134 A 
HETATM   16  C   UNK N   1      21.722  16.603   4.939  0.00  0.00     0.299 A 
HETATM   17  O   UNK N   1      20.945  15.758   5.351  0.00  0.00    -0.259 OA
HETATM   18  O   UNK N   1      23.002  16.555   5.314  0.00  0.00    -0.271 OA
ENDROOT
BRANCH   1  19
HETATM   19  O   UNK N   1      27.456  18.223   5.276  0.00  0.00    -0.358 OA
HETATM   20  H   UNK N   1      28.135  18.604   4.754  0.00  0.00     0.217 HD
ENDBRANCH   1  19
BRANCH   2  21
HETATM   21  O   UNK N   1      25.621  16.354   6.131  0.00  0.00    -0.356 OA
HETATM   22  H   UNK N   1      25.049  15.628   6.280  0.00  0.00     0.218 HD
ENDBRANCH   2  21
BRANCH  15  23
HETATM   23  O   UNK N   1      20.123  20.663   1.481  0.00  0.00    -0.356 OA
HETATM   24  H   UNK N   1      19.904  21.511   1.817  0.00  0.00     0.218 HD
ENDBRANCH  15  23
BRANCH  14  25
HETATM   25  O   UNK N   1      18.285  18.802   2.346  0.00  0.00    -0.358 OA
HETATM   26  H   UNK N   1      17.595  18.481   2.893  0.00  0.00     0.217 HD
ENDBRANCH  14  25
TORSDOF 4
ENDMDL
MODEL 5
REMARK VINA RESULT:      -7.1     10.562     12.772
REMARK  4 active torsions:
REMARK  status: ('A' for Active; 'I' for Inactive)
REMARK    1  A    between atoms: O_1  and  C_2 
REMARK    2  A    between atoms: C_3  and  O_4 
REMARK    3  A    between atoms: C_16  and  O_17 
REMARK    4  A    between atoms: C_18  and  O_19 
ROOT
HETATM    1  C   UNK N   1      19.557  18.722   2.737  0.00  0.00     0.102 A 
HETATM    2  C   UNK N   1      20.498  19.678   2.314  0.00  0.00     0.134 A 
HETATM    3  C   UNK N   1      21.819  19.605   2.769  0.00  0.00     0.127 A 
HETATM    4  C   UNK N   1      22.191  18.568   3.638  0.00  0.00     0.031 A 
HETATM    5  C   UNK N   1      21.260  17.609   4.064  0.00  0.00     0.056 A 
HETATM    6  C   UNK N   1      19.937  17.694   3.611  0.00  0.00     0.058 A 
HETATM    7  C   UNK N   1      21.697  16.592   4.934  0.00  0.00     0.299 A 
HETATM    8  O   UNK N   1      20.918  15.742   5.332  0.00  0.00    -0.259 OA
HETATM    9  O   UNK N   1      22.973  16.547   5.327  0.00  0.00    -0.271 OA
HETATM   10  C   UNK N   1      23.878  17.445   4.933  0.00  0.00     0.127 A 
HETATM   11  C   UNK N   1      23.504  18.491   4.075  0.00  0.00     0.031 A 
HETATM   12  C   UNK N   1      24.433  19.451   3.650  0.00  0.00     0.056 A 
HETATM   13  C   UNK N   1      25.759  19.359   4.094  0.00  0.00     0.058 A 
HETATM   14  C   UNK N   1      26.145  18.315   4.946  0.00  0.00     0.102 A 
HETATM   15  C   UNK N   1      25.206  17.356   5.366  0.00  0.00     0.134 A 
HETATM   16  C   UNK N   1      23.994  20.473   2.786  0.00  0.00     0.299 A 
HETATM   17  O   UNK N   1      24.770  21.329   2.398  0.00  0.00    -0.259 OA
HETATM   18  O   UNK N   1      22.722  20.509   2.381  0.00  0.00    -0.271 OA
ENDROOT
BRANCH   1  19
HETATM   19  O   UNK N   1      18.288  18.789   2.304  0.00  0.00    -0.358 OA
HETATM   20  H   UNK N   1      17.719  19.464   2.620  0.00  0.00     0.217 HD
ENDBRANCH   1  19
BRANCH   2  21
HETATM   21  O   UNK N   1      20.131  20.661   1.472  0.00  0.00    -0.356 OA
HETATM   22  H   UNK N   1      20.735  20.978   0.831  0.00  0.00     0.218 HD
ENDBRANCH   2  21
BRANCH  15  23
HETATM   23  O   UNK N   1      25.581  16.353   6.179  0.00  0.00    -0.356 OA
HETATM   24  H   UNK N   1      24.935  15.776   6.539  0.00  0.00     0.218 HD
ENDBRANCH  15  23
BRANCH  14  25
HETATM   25  O   UNK N   1      27.421  18.233   5.358  0.00  0.00    -0.358 OA
HETATM   26  H   UNK N   1      27.614  18.166   6.273  0.00  0.00     0.217 HD
ENDBRANCH  14  25
TORSDOF 4
ENDMDL
MODEL 6
REMARK VINA RESULT:      -7.1     12.564     13.959
REMARK  4 active torsions:
REMARK  status: ('A' for Active; 'I' for Inactive)
REMARK    1  A    between atoms: O_1  and  C_2 
REMARK    2  A    between atoms: C_3  and  O_4 
REMARK    3  A    between atoms: C_16  and  O_17 
REMARK    4  A    between atoms: C_18  and  O_19 
ROOT
HETATM    1  C   UNK N   1      20.713  19.778   1.205  0.00  0.00     0.102 A 
HETATM    2  C   UNK N   1      20.982  20.085   2.552  0.00  0.00     0.134 A 
HETATM    3  C   UNK N   1      20.875  19.089   3.528  0.00  0.00     0.127 A 
HETATM    4  C   UNK N   1      20.507  17.789   3.147  0.00  0.00     0.031 A 
HETATM    5  C   UNK N   1      20.238  17.474   1.807  0.00  0.00     0.056 A 
HETATM    6  C   UNK N   1      20.339  18.479   0.836  0.00  0.00     0.058 A 
HETATM    7  C   UNK N   1      19.876  16.150   1.490  0.00  0.00     0.299 A 
HETATM    8  O   UNK N   1      19.629  15.836   0.338  0.00  0.00    -0.259 OA
HETATM    9  O   UNK N   1      19.806  15.225   2.451  0.00  0.00    -0.271 OA
HETATM   10  C   UNK N   1      20.061  15.499   3.732  0.00  0.00     0.127 A 
HETATM   11  C   UNK N   1      20.415  16.802   4.116  0.00  0.00     0.031 A 
HETATM   12  C   UNK N   1      20.683  17.118   5.455  0.00  0.00     0.056 A 
HETATM   13  C   UNK N   1      20.593  16.110   6.425  0.00  0.00     0.058 A 
HETATM   14  C   UNK N   1      20.246  14.804   6.051  0.00  0.00     0.102 A 
HETATM   15  C   UNK N   1      19.981  14.496   4.705  0.00  0.00     0.134 A 
HETATM   16  C   UNK N   1      21.037  18.444   5.773  0.00  0.00     0.299 A 
HETATM   17  O   UNK N   1      21.272  18.760   6.927  0.00  0.00    -0.259 OA
HETATM   18  O   UNK N   1      21.122  19.365   4.811  0.00  0.00    -0.271 OA
ENDROOT
BRANCH   1  19
HETATM   19  O   UNK N   1      20.814  20.731   0.265  0.00  0.00    -0.358 OA
HETATM   20  H   UNK N   1      21.464  21.401   0.344  0.00  0.00     0.217 HD
ENDBRANCH   1  19
BRANCH   2  21
HETATM   21  O   UNK N   1      21.345  21.332   2.901  0.00  0.00    -0.356 OA
HETATM   22  H   UNK N   1      21.839  21.474   3.684  0.00  0.00     0.218 HD
ENDBRANCH   2  21
BRANCH  15  23
HETATM   23  O   UNK N   1      19.653  13.242   4.350  0.00  0.00    -0.356 OA
HETATM   24  H   UNK N   1      19.273  12.661   4.980  0.00  0.00     0.218 HD
ENDBRANCH  15  23
BRANCH  14  25
HETATM   25  O   UNK N   1      20.170  13.845   6.988  0.00  0.00    -0.358 OA
HETATM   26  H   UNK N   1      19.626  13.095   6.849  0.00  0.00     0.217 HD
ENDBRANCH  14  25
TORSDOF 4
ENDMDL
MODEL 7
REMARK VINA RESULT:      -6.8      1.112      3.840
REMARK  4 active torsions:
REMARK  status: ('A' for Active; 'I' for Inactive)
REMARK    1  A    between atoms: O_1  and  C_2 
REMARK    2  A    between atoms: C_3  and  O_4 
REMARK    3  A    between atoms: C_16  and  O_17 
REMARK    4  A    between atoms: C_18  and  O_19 
ROOT
HETATM    1  C   UNK N   1      31.965  20.614  -4.277  0.00  0.00     0.102 A 
HETATM    2  C   UNK N   1      31.347  20.603  -5.540  0.00  0.00     0.134 A 
HETATM    3  C   UNK N   1      30.209  21.385  -5.767  0.00  0.00     0.127 A 
HETATM    4  C   UNK N   1      29.702  22.179  -4.727  0.00  0.00     0.031 A 
HETATM    5  C   UNK N   1      30.312  22.198  -3.464  0.00  0.00     0.056 A 
HETATM    6  C   UNK N   1      31.447  21.406  -3.242  0.00  0.00     0.058 A 
HETATM    7  C   UNK N   1      29.756  23.019  -2.464  0.00  0.00     0.299 A 
HETATM    8  O   UNK N   1      30.254  23.060  -1.351  0.00  0.00    -0.259 OA
HETATM    9  O   UNK N   1      28.681  23.766  -2.729  0.00  0.00    -0.271 OA
HETATM   10  C   UNK N   1      28.085  23.767  -3.923  0.00  0.00     0.127 A 
HETATM   11  C   UNK N   1      28.583  22.963  -4.960  0.00  0.00     0.031 A 
HETATM   12  C   UNK N   1      27.973  22.942  -6.222  0.00  0.00     0.056 A 
HETATM   13  C   UNK N   1      26.845  23.743  -6.447  0.00  0.00     0.058 A 
HETATM   14  C   UNK N   1      26.343  24.556  -5.421  0.00  0.00     0.102 A 
HETATM   15  C   UNK N   1      26.963  24.570  -4.159  0.00  0.00     0.134 A 
HETATM   16  C   UNK N   1      28.524  22.115  -7.219  0.00  0.00     0.299 A 
HETATM   17  O   UNK N   1      28.019  22.065  -8.328  0.00  0.00    -0.259 OA
HETATM   18  O   UNK N   1      29.608  21.380  -6.959  0.00  0.00    -0.271 OA
ENDROOT
BRANCH   1  19
HETATM   19  O   UNK N   1      33.057  19.865  -4.055  0.00  0.00    -0.358 OA
HETATM   20  H   UNK N   1      33.096  18.986  -4.375  0.00  0.00     0.217 HD
ENDBRANCH   1  19
BRANCH   2  21
HETATM   21  O   UNK N   1      31.850  19.845  -6.531  0.00  0.00    -0.356 OA
HETATM   22  H   UNK N   1      32.728  19.982  -6.826  0.00  0.00     0.218 HD
ENDBRANCH   2  21
BRANCH  15  23
HETATM   23  O   UNK N   1      26.482  25.355  -3.178  0.00  0.00    -0.356 OA
HETATM   24  H   UNK N   1      25.558  25.408  -3.031  0.00  0.00     0.218 HD
ENDBRANCH  15  23
BRANCH  14  25
HETATM   25  O   UNK N   1      25.266  25.324  -5.651  0.00  0.00    -0.358 OA
HETATM   26  H   UNK N   1      25.117  25.678  -6.505  0.00  0.00     0.217 HD
ENDBRANCH  14  25
TORSDOF 4
ENDMDL
MODEL 8
REMARK VINA RESULT:      -6.8     13.370     17.284
REMARK  4 active torsions:
REMARK  status: ('A' for Active; 'I' for Inactive)
REMARK    1  A    between atoms: O_1  and  C_2 
REMARK    2  A    between atoms: C_3  and  O_4 
REMARK    3  A    between atoms: C_16  and  O_17 
REMARK    4  A    between atoms: C_18  and  O_19 
ROOT
HETATM    1  C   UNK N   1      31.682  16.925   6.167  0.00  0.00     0.102 A 
HETATM    2  C   UNK N   1      31.529  15.565   6.490  0.00  0.00     0.134 A 
HETATM    3  C   UNK N   1      32.373  14.974   7.436  0.00  0.00     0.127 A 
HETATM    4  C   UNK N   1      33.361  15.753   8.059  0.00  0.00     0.031 A 
HETATM    5  C   UNK N   1      33.521  17.110   7.744  0.00  0.00     0.056 A 
HETATM    6  C   UNK N   1      32.676  17.693   6.789  0.00  0.00     0.058 A 
HETATM    7  C   UNK N   1      34.528  17.838   8.406  0.00  0.00     0.299 A 
HETATM    8  O   UNK N   1      34.703  19.018   8.157  0.00  0.00    -0.259 OA
HETATM    9  O   UNK N   1      35.299  17.239   9.318  0.00  0.00    -0.271 OA
HETATM   10  C   UNK N   1      35.164  15.950   9.638  0.00  0.00     0.127 A 
HETATM   11  C   UNK N   1      34.186  15.167   9.006  0.00  0.00     0.031 A 
HETATM   12  C   UNK N   1      34.027  13.810   9.319  0.00  0.00     0.056 A 
HETATM   13  C   UNK N   1      34.863  13.230  10.283  0.00  0.00     0.058 A 
HETATM   14  C   UNK N   1      35.839  14.005  10.925  0.00  0.00     0.102 A 
HETATM   15  C   UNK N   1      35.990  15.366  10.605  0.00  0.00     0.134 A 
HETATM   16  C   UNK N   1      33.024  13.081   8.651  0.00  0.00     0.299 A 
HETATM   17  O   UNK N   1      32.857  11.897   8.892  0.00  0.00    -0.259 OA
HETATM   18  O   UNK N   1      32.244  13.683   7.750  0.00  0.00    -0.271 OA
ENDROOT
BRANCH   1  19
HETATM   19  O   UNK N   1      30.875  17.497   5.259  0.00  0.00    -0.358 OA
HETATM   20  H   UNK N   1      30.849  17.168   4.381  0.00  0.00     0.217 HD
ENDBRANCH   1  19
BRANCH   2  21
HETATM   21  O   UNK N   1      30.571  14.833   5.894  0.00  0.00    -0.356 OA
HETATM   22  H   UNK N   1      30.180  15.133   5.098  0.00  0.00     0.218 HD
ENDBRANCH   2  21
BRANCH  15  23
HETATM   23  O   UNK N   1      36.924  16.107  11.226  0.00  0.00    -0.356 OA
HETATM   24  H   UNK N   1      37.620  16.494  10.731  0.00  0.00     0.218 HD
ENDBRANCH  15  23
BRANCH  14  25
HETATM   25  O   UNK N   1      36.630  13.440  11.852  0.00  0.00    -0.358 OA
HETATM   26  H   UNK N   1      36.371  13.440  12.752  0.00  0.00     0.217 HD
ENDBRANCH  14  25
TORSDOF 4
ENDMDL
MODEL 9
REMARK VINA RESULT:      -6.8     13.380     16.389
REMARK  4 active torsions:
REMARK  status: ('A' for Active; 'I' for Inactive)
REMARK    1  A    between atoms: O_1  and  C_2 
REMARK    2  A    between atoms: C_3  and  O_4 
REMARK    3  A    between atoms: C_16  and  O_17 
REMARK    4  A    between atoms: C_18  and  O_19 
ROOT
HETATM    1  C   UNK N   1      35.792  14.047  10.985  0.00  0.00     0.102 A 
HETATM    2  C   UNK N   1      35.954  15.403  10.649  0.00  0.00     0.134 A 
HETATM    3  C   UNK N   1      35.137  15.982   9.672  0.00  0.00     0.127 A 
HETATM    4  C   UNK N   1      34.157  15.199   9.043  0.00  0.00     0.031 A 
HETATM    5  C   UNK N   1      33.987  13.846   9.372  0.00  0.00     0.056 A 
HETATM    6  C   UNK N   1      34.814  13.271  10.347  0.00  0.00     0.058 A 
HETATM    7  C   UNK N   1      32.983  13.116   8.707  0.00  0.00     0.299 A 
HETATM    8  O   UNK N   1      32.806  11.936   8.961  0.00  0.00    -0.259 OA
HETATM    9  O   UNK N   1      32.211  13.713   7.795  0.00  0.00    -0.271 OA
HETATM   10  C   UNK N   1      32.351  14.999   7.467  0.00  0.00     0.127 A 
HETATM   11  C   UNK N   1      33.341  15.779   8.085  0.00  0.00     0.031 A 
HETATM   12  C   UNK N   1      33.512  17.131   7.756  0.00  0.00     0.056 A 
HETATM   13  C   UNK N   1      32.677  17.709   6.789  0.00  0.00     0.058 A 
HETATM   14  C   UNK N   1      31.681  16.940   6.171  0.00  0.00     0.102 A 
HETATM   15  C   UNK N   1      31.516  15.585   6.509  0.00  0.00     0.134 A 
HETATM   16  C   UNK N   1      34.522  17.859   8.415  0.00  0.00     0.299 A 
HETATM   17  O   UNK N   1      34.706  19.036   8.153  0.00  0.00    -0.259 OA
HETATM   18  O   UNK N   1      35.283  17.266   9.338  0.00  0.00    -0.271 OA
ENDROOT
BRANCH   1  19
HETATM   19  O   UNK N   1      36.574  13.487  11.923  0.00  0.00    -0.358 OA
HETATM   20  H   UNK N   1      37.468  13.284  11.727  0.00  0.00     0.217 HD
ENDBRANCH   1  19
BRANCH   2  21
HETATM   21  O   UNK N   1      36.890  16.145  11.267  0.00  0.00    -0.356 OA
HETATM   22  H   UNK N   1      36.758  17.065  11.384  0.00  0.00     0.218 HD
ENDBRANCH   2  21
BRANCH  15  23
HETATM   23  O   UNK N   1      30.557  14.853   5.917  0.00  0.00    -0.356 OA
HETATM   24  H   UNK N   1      30.537  14.773   4.983  0.00  0.00     0.218 HD
ENDBRANCH  15  23
BRANCH  14  25
HETATM   25  O   UNK N   1      30.882  17.507   5.252  0.00  0.00    -0.358 OA
HETATM   26  H   UNK N   1      30.004  17.200   5.141  0.00  0.00     0.217 HD
ENDBRANCH  14  25
TORSDOF 4
ENDMDL
