REMARK  4 active torsions:
REMARK  status: ('A' for Active; 'I' for Inactive)
REMARK    1  A    between atoms: O_1  and  C_2 
REMARK    2  A    between atoms: C_3  and  O_4 
REMARK    3  A    between atoms: C_16  and  O_17 
REMARK    4  A    between atoms: C_18  and  O_19 
ROOT
HETATM    1  C   UNK N   1       6.859   0.293   0.023  0.00  0.00     0.102 A 
HETATM    2  C   UNK N   1       6.201   1.536   0.025  0.00  0.00     0.134 A 
HETATM    3  C   UNK N   1       4.803   1.585   0.011  0.00  0.00     0.127 A 
HETATM    4  C   UNK N   1       4.073   0.386   0.004  0.00  0.00     0.031 A 
HETATM    5  C   UNK N   1       4.720  -0.858   0.003  0.00  0.00     0.056 A 
HETATM    6  C   UNK N   1       6.121  -0.899   0.009  0.00  0.00     0.058 A 
HETATM    7  C   UNK N   1       3.930  -2.024  -0.001  0.00  0.00     0.299 A 
HETATM    8  O   UNK N   1       4.454  -3.125  -0.007  0.00  0.00    -0.259 OA
HETATM    9  O   UNK N   1       2.598  -1.932   0.007  0.00  0.00    -0.271 OA
HETATM   10  C   UNK N   1       1.959  -0.760   0.011  0.00  0.00     0.127 A 
HETATM   11  C   UNK N   1       2.688   0.439   0.004  0.00  0.00     0.031 A 
HETATM   12  C   UNK N   1       2.042   1.683   0.003  0.00  0.00     0.056 A 
HETATM   13  C   UNK N   1       0.641   1.724   0.009  0.00  0.00     0.058 A 
HETATM   14  C   UNK N   1      -0.097   0.532   0.023  0.00  0.00     0.102 A 
HETATM   15  C   UNK N   1       0.560  -0.711   0.025  0.00  0.00     0.134 A 
HETATM   16  C   UNK N   1       2.832   2.849  -0.001  0.00  0.00     0.299 A 
HETATM   17  O   UNK N   1       2.308   3.950  -0.007  0.00  0.00    -0.259 OA
HETATM   18  O   UNK N   1       4.164   2.757   0.007  0.00  0.00    -0.271 OA
ENDROOT
BRANCH   1  19
HETATM   19  O   UNK N   1       8.201   0.241   0.036  0.00  0.00    -0.358 OA
HETATM   20  H   UNK N   1       8.638  -0.588   0.045  0.00  0.00     0.217 HD
ENDBRANCH   1  19
BRANCH   2  21
HETATM   21  O   UNK N   1       6.913   2.677   0.043  0.00  0.00    -0.356 OA
HETATM   22  H   UNK N   1       7.849   2.645   0.055  0.00  0.00     0.218 HD
ENDBRANCH   2  21
BRANCH  15  23
HETATM   23  O   UNK N   1      -0.151  -1.852   0.043  0.00  0.00    -0.356 OA
HETATM   24  H   UNK N   1      -1.088  -1.820   0.055  0.00  0.00     0.218 HD
ENDBRANCH  15  23
BRANCH  14  25
HETATM   25  O   UNK N   1      -1.439   0.584   0.036  0.00  0.00    -0.358 OA
HETATM   26  H   UNK N   1      -1.876   1.413   0.045  0.00  0.00     0.217 HD
ENDBRANCH  14  25
TORSDOF 4
