MODEL 1
REMARK VINA RESULT:      -6.9      0.000      0.000
REMARK  4 active torsions:
REMARK  status: ('A' for Active; 'I' for Inactive)
REMARK    1  A    between atoms: O_1  and  C_2 
REMARK    2  A    between atoms: C_5  and  C_8 
REMARK    3  A    between atoms: C_13  and  O_14 
REMARK    4  A    between atoms: C_16  and  O_17 
ROOT
HETATM    1  C   UNK N   1      33.727  16.651   8.222  0.00  0.00     0.048 A 
HETATM    2  C   UNK N   1      34.512  17.652   8.815  0.00  0.00     0.159 A 
HETATM    3  O   UNK N   1      35.202  17.424   9.927  0.00  0.00    -0.321 OA
HETATM    4  C   UNK N   1      35.207  16.243  10.534  0.00  0.00     0.094 A 
HETATM    5  C   UNK N   1      35.969  16.069  11.693  0.00  0.00     0.074 A 
HETATM    6  C   UNK N   1      35.998  14.833  12.340  0.00  0.00     0.071 A 
HETATM    7  C   UNK N   1      35.270  13.758  11.828  0.00  0.00     0.074 A 
HETATM    8  C   UNK N   1      34.501  13.910  10.673  0.00  0.00     0.085 A 
HETATM    9  C   UNK N   1      34.456  15.162  10.012  0.00  0.00     0.082 A 
HETATM   10  C   UNK N   1      33.701  15.381   8.842  0.00  0.00     0.200 A 
HETATM   11  O   UNK N   1      33.043  14.471   8.361  0.00  0.00    -0.286 OA
ENDROOT
BRANCH   1  12
HETATM   12  C   UNK N   1      32.995  16.948   6.952  0.00  0.00    -0.020 A 
HETATM   13  C   UNK N   1      33.708  17.193   5.764  0.00  0.00     0.015 A 
HETATM   14  C   UNK N   1      33.031  17.398   4.557  0.00  0.00     0.037 A 
HETATM   15  C   UNK N   1      31.635  17.369   4.524  0.00  0.00     0.065 A 
HETATM   16  C   UNK N   1      30.914  17.152   5.698  0.00  0.00     0.037 A 
HETATM   17  C   UNK N   1      31.590  16.938   6.900  0.00  0.00     0.015 A 
BRANCH  15  18
HETATM   18  O   UNK N   1      30.984  17.543   3.363  0.00  0.00    -0.361 OA
HETATM   19  H   UNK N   1      30.665  18.390   3.125  0.00  0.00     0.217 HD
ENDBRANCH  15  18
ENDBRANCH   1  12
BRANCH   8  20
HETATM   20  O   UNK N   1      33.817  12.848  10.208  0.00  0.00    -0.360 OA
HETATM   21  H   UNK N   1      34.276  12.078   9.934  0.00  0.00     0.217 HD
ENDBRANCH   8  20
BRANCH   6  22
HETATM   22  O   UNK N   1      36.729  14.675  13.454  0.00  0.00    -0.361 OA
HETATM   23  H   UNK N   1      36.338  14.309  14.224  0.00  0.00     0.217 HD
ENDBRANCH   6  22
TORSDOF 4
ENDMDL
MODEL 2
REMARK VINA RESULT:      -6.7      4.389      6.889
REMARK  4 active torsions:
REMARK  status: ('A' for Active; 'I' for Inactive)
REMARK    1  A    between atoms: O_1  and  C_2 
REMARK    2  A    between atoms: C_5  and  C_8 
REMARK    3  A    between atoms: C_13  and  O_14 
REMARK    4  A    between atoms: C_16  and  O_17 
ROOT
HETATM    1  C   UNK N   1      27.782  18.709   5.782  0.00  0.00     0.048 A 
HETATM    2  C   UNK N   1      27.864  19.296   7.054  0.00  0.00     0.159 A 
HETATM    3  O   UNK N   1      28.745  18.875   7.956  0.00  0.00    -0.321 OA
HETATM    4  C   UNK N   1      29.605  17.895   7.709  0.00  0.00     0.094 A 
HETATM    5  C   UNK N   1      30.515  17.514   8.700  0.00  0.00     0.074 A 
HETATM    6  C   UNK N   1      31.436  16.494   8.457  0.00  0.00     0.071 A 
HETATM    7  C   UNK N   1      31.458  15.851   7.219  0.00  0.00     0.074 A 
HETATM    8  C   UNK N   1      30.558  16.214   6.216  0.00  0.00     0.085 A 
HETATM    9  C   UNK N   1      29.612  17.242   6.452  0.00  0.00     0.082 A 
HETATM   10  C   UNK N   1      28.677  17.657   5.483  0.00  0.00     0.200 A 
HETATM   11  O   UNK N   1      28.655  17.119   4.387  0.00  0.00    -0.286 OA
ENDROOT
BRANCH   1  12
HETATM   12  C   UNK N   1      26.795  19.241   4.791  0.00  0.00    -0.020 A 
HETATM   13  C   UNK N   1      25.443  18.857   4.863  0.00  0.00     0.015 A 
HETATM   14  C   UNK N   1      24.501  19.407   3.987  0.00  0.00     0.037 A 
HETATM   15  C   UNK N   1      24.899  20.339   3.025  0.00  0.00     0.065 A 
HETATM   16  C   UNK N   1      26.240  20.709   2.926  0.00  0.00     0.037 A 
HETATM   17  C   UNK N   1      27.177  20.168   3.805  0.00  0.00     0.015 A 
BRANCH  15  18
HETATM   18  O   UNK N   1      23.992  20.884   2.200  0.00  0.00    -0.361 OA
HETATM   19  H   UNK N   1      23.278  20.370   1.878  0.00  0.00     0.217 HD
ENDBRANCH  15  18
ENDBRANCH   1  12
BRANCH   8  20
HETATM   20  O   UNK N   1      30.615  15.574   5.034  0.00  0.00    -0.360 OA
HETATM   21  H   UNK N   1      31.220  14.868   4.911  0.00  0.00     0.217 HD
ENDBRANCH   8  20
BRANCH   6  22
HETATM   22  O   UNK N   1      32.304  16.131   9.414  0.00  0.00    -0.361 OA
HETATM   23  H   UNK N   1      31.989  15.799  10.232  0.00  0.00     0.217 HD
ENDBRANCH   6  22
TORSDOF 4
ENDMDL
MODEL 3
REMARK VINA RESULT:      -6.6      5.189      9.502
REMARK  4 active torsions:
REMARK  status: ('A' for Active; 'I' for Inactive)
REMARK    1  A    between atoms: O_1  and  C_2 
REMARK    2  A    between atoms: C_5  and  C_8 
REMARK    3  A    between atoms: C_13  and  O_14 
REMARK    4  A    between atoms: C_16  and  O_17 
ROOT
HETATM    1  C   UNK N   1      36.289  12.263  14.955  0.00  0.00     0.048 A 
HETATM    2  C   UNK N   1      37.501  11.613  14.677  0.00  0.00     0.159 A 
HETATM    3  O   UNK N   1      37.938  11.464  13.431  0.00  0.00    -0.321 OA
HETATM    4  C   UNK N   1      37.271  11.929  12.381  0.00  0.00     0.094 A 
HETATM    5  C   UNK N   1      37.797  11.750  11.099  0.00  0.00     0.074 A 
HETATM    6  C   UNK N   1      37.119  12.242   9.983  0.00  0.00     0.071 A 
HETATM    7  C   UNK N   1      35.911  12.922  10.141  0.00  0.00     0.074 A 
HETATM    8  C   UNK N   1      35.366  13.110  11.412  0.00  0.00     0.085 A 
HETATM    9  C   UNK N   1      36.040  12.609  12.553  0.00  0.00     0.082 A 
HETATM   10  C   UNK N   1      35.546  12.766  13.863  0.00  0.00     0.200 A 
HETATM   11  O   UNK N   1      34.489  13.350  14.051  0.00  0.00    -0.286 OA
ENDROOT
BRANCH   1  12
HETATM   12  C   UNK N   1      35.857  12.434  16.378  0.00  0.00    -0.020 A 
HETATM   13  C   UNK N   1      35.722  11.312  17.216  0.00  0.00     0.015 A 
HETATM   14  C   UNK N   1      35.392  11.469  18.567  0.00  0.00     0.037 A 
HETATM   15  C   UNK N   1      35.185  12.746  19.092  0.00  0.00     0.065 A 
HETATM   16  C   UNK N   1      35.291  13.866  18.267  0.00  0.00     0.037 A 
HETATM   17  C   UNK N   1      35.629  13.709  16.923  0.00  0.00     0.015 A 
BRANCH  15  18
HETATM   18  O   UNK N   1      34.890  12.900  20.393  0.00  0.00    -0.361 OA
HETATM   19  H   UNK N   1      34.011  12.783  20.693  0.00  0.00     0.217 HD
ENDBRANCH  15  18
ENDBRANCH   1  12
BRANCH   8  20
HETATM   20  O   UNK N   1      34.201  13.776  11.525  0.00  0.00    -0.360 OA
HETATM   21  H   UNK N   1      33.758  14.078  10.756  0.00  0.00     0.217 HD
ENDBRANCH   8  20
BRANCH   6  22
HETATM   22  O   UNK N   1      37.628  12.063   8.754  0.00  0.00    -0.361 OA
HETATM   23  H   UNK N   1      38.530  11.829   8.649  0.00  0.00     0.217 HD
ENDBRANCH   6  22
TORSDOF 4
ENDMDL
MODEL 4
REMARK VINA RESULT:      -6.5     11.716     13.921
REMARK  4 active torsions:
REMARK  status: ('A' for Active; 'I' for Inactive)
REMARK    1  A    between atoms: O_1  and  C_2 
REMARK    2  A    between atoms: C_5  and  C_8 
REMARK    3  A    between atoms: C_13  and  O_14 
REMARK    4  A    between atoms: C_16  and  O_17 
ROOT
HETATM    1  C   UNK N   1      21.842  14.559   7.628  0.00  0.00     0.048 A 
HETATM    2  C   UNK N   1      22.245  14.011   6.400  0.00  0.00     0.159 A 
HETATM    3  O   UNK N   1      22.251  14.736   5.287  0.00  0.00    -0.321 OA
HETATM    4  C   UNK N   1      21.897  16.016   5.266  0.00  0.00     0.094 A 
HETATM    5  C   UNK N   1      21.943  16.722   4.062  0.00  0.00     0.074 A 
HETATM    6  C   UNK N   1      21.586  18.071   4.020  0.00  0.00     0.071 A 
HETATM    7  C   UNK N   1      21.185  18.725   5.186  0.00  0.00     0.074 A 
HETATM    8  C   UNK N   1      21.130  18.038   6.400  0.00  0.00     0.085 A 
HETATM    9  C   UNK N   1      21.482  16.667   6.455  0.00  0.00     0.082 A 
HETATM   10  C   UNK N   1      21.450  15.917   7.647  0.00  0.00     0.200 A 
HETATM   11  O   UNK N   1      21.100  16.445   8.691  0.00  0.00    -0.286 OA
ENDROOT
BRANCH   1  12
HETATM   12  C   UNK N   1      21.883  13.709   8.859  0.00  0.00    -0.020 A 
HETATM   13  C   UNK N   1      23.113  13.231   9.348  0.00  0.00     0.015 A 
HETATM   14  C   UNK N   1      23.168  12.500  10.540  0.00  0.00     0.037 A 
HETATM   15  C   UNK N   1      21.997  12.231  11.251  0.00  0.00     0.065 A 
HETATM   16  C   UNK N   1      20.768  12.677  10.765  0.00  0.00     0.037 A 
HETATM   17  C   UNK N   1      20.714  13.415   9.582  0.00  0.00     0.015 A 
BRANCH  15  18
HETATM   18  O   UNK N   1      22.051  11.549  12.406  0.00  0.00    -0.361 OA
HETATM   19  H   UNK N   1      21.824  10.640  12.427  0.00  0.00     0.217 HD
ENDBRANCH  15  18
ENDBRANCH   1  12
BRANCH   8  20
HETATM   20  O   UNK N   1      20.744  18.705   7.503  0.00  0.00    -0.360 OA
HETATM   21  H   UNK N   1      20.767  19.643   7.516  0.00  0.00     0.217 HD
ENDBRANCH   8  20
BRANCH   6  22
HETATM   22  O   UNK N   1      21.628  18.742   2.859  0.00  0.00    -0.361 OA
HETATM   23  H   UNK N   1      21.192  18.401   2.103  0.00  0.00     0.217 HD
ENDBRANCH   6  22
TORSDOF 4
ENDMDL
MODEL 5
REMARK VINA RESULT:      -6.5     12.879     13.529
REMARK  4 active torsions:
REMARK  status: ('A' for Active; 'I' for Inactive)
REMARK    1  A    between atoms: O_1  and  C_2 
REMARK    2  A    between atoms: C_5  and  C_8 
REMARK    3  A    between atoms: C_13  and  O_14 
REMARK    4  A    between atoms: C_16  and  O_17 
ROOT
HETATM    1  C   UNK N   1      21.252  17.163   4.822  0.00  0.00     0.048 A 
HETATM    2  C   UNK N   1      21.512  15.880   4.314  0.00  0.00     0.159 A 
HETATM    3  O   UNK N   1      21.519  14.811   5.104  0.00  0.00    -0.321 OA
HETATM    4  C   UNK N   1      21.269  14.883   6.406  0.00  0.00     0.094 A 
HETATM    5  C   UNK N   1      21.278  13.715   7.173  0.00  0.00     0.074 A 
HETATM    6  C   UNK N   1      21.006  13.768   8.541  0.00  0.00     0.071 A 
HETATM    7  C   UNK N   1      20.716  14.989   9.150  0.00  0.00     0.074 A 
HETATM    8  C   UNK N   1      20.703  16.168   8.404  0.00  0.00     0.085 A 
HETATM    9  C   UNK N   1      20.985  16.130   7.016  0.00  0.00     0.082 A 
HETATM   10  C   UNK N   1      20.988  17.283   6.205  0.00  0.00     0.200 A 
HETATM   11  O   UNK N   1      20.745  18.374   6.696  0.00  0.00    -0.286 OA
ENDROOT
BRANCH   1  12
HETATM   12  C   UNK N   1      21.223  18.330   3.886  0.00  0.00    -0.020 A 
HETATM   13  C   UNK N   1      20.038  18.660   3.203  0.00  0.00     0.015 A 
HETATM   14  C   UNK N   1      19.981  19.793   2.384  0.00  0.00     0.037 A 
HETATM   15  C   UNK N   1      21.108  20.604   2.233  0.00  0.00     0.065 A 
HETATM   16  C   UNK N   1      22.297  20.276   2.885  0.00  0.00     0.037 A 
HETATM   17  C   UNK N   1      22.350  19.151   3.708  0.00  0.00     0.015 A 
BRANCH  15  18
HETATM   18  O   UNK N   1      21.049  21.705   1.466  0.00  0.00    -0.361 OA
HETATM   19  H   UNK N   1      21.529  22.472   1.706  0.00  0.00     0.217 HD
ENDBRANCH  15  18
ENDBRANCH   1  12
BRANCH   8  20
HETATM   20  O   UNK N   1      20.413  17.325   9.027  0.00  0.00    -0.360 OA
HETATM   21  H   UNK N   1      20.258  18.102   8.526  0.00  0.00     0.217 HD
ENDBRANCH   8  20
BRANCH   6  22
HETATM   22  O   UNK N   1      21.020  12.643   9.272  0.00  0.00    -0.361 OA
HETATM   23  H   UNK N   1      21.560  12.586  10.036  0.00  0.00     0.217 HD
ENDBRANCH   6  22
TORSDOF 4
ENDMDL
MODEL 6
REMARK VINA RESULT:      -6.5      5.879      9.763
REMARK  4 active torsions:
REMARK  status: ('A' for Active; 'I' for Inactive)
REMARK    1  A    between atoms: O_1  and  C_2 
REMARK    2  A    between atoms: C_5  and  C_8 
REMARK    3  A    between atoms: C_13  and  O_14 
REMARK    4  A    between atoms: C_16  and  O_17 
ROOT
HETATM    1  C   UNK N   1      35.014  11.832  15.000  0.00  0.00     0.048 A 
HETATM    2  C   UNK N   1      33.969  11.001  14.566  0.00  0.00     0.159 A 
HETATM    3  O   UNK N   1      33.819  10.690  13.283  0.00  0.00    -0.321 OA
HETATM    4  C   UNK N   1      34.647  11.126  12.341  0.00  0.00     0.094 A 
HETATM    5  C   UNK N   1      34.437  10.745  11.013  0.00  0.00     0.074 A 
HETATM    6  C   UNK N   1      35.302  11.182  10.009  0.00  0.00     0.071 A 
HETATM    7  C   UNK N   1      36.387  11.999  10.327  0.00  0.00     0.074 A 
HETATM    8  C   UNK N   1      36.615  12.393  11.646  0.00  0.00     0.085 A 
HETATM    9  C   UNK N   1      35.740  11.963  12.674  0.00  0.00     0.082 A 
HETATM   10  C   UNK N   1      35.913  12.323  14.025  0.00  0.00     0.200 A 
HETATM   11  O   UNK N   1      36.846  13.041  14.351  0.00  0.00    -0.286 OA
ENDROOT
BRANCH   1  12
HETATM   12  C   UNK N   1      35.160  12.127  16.460  0.00  0.00    -0.020 A 
HETATM   13  C   UNK N   1      35.032  13.446  16.931  0.00  0.00     0.015 A 
HETATM   14  C   UNK N   1      35.092  13.720  18.302  0.00  0.00     0.037 A 
HETATM   15  C   UNK N   1      35.289  12.681  19.215  0.00  0.00     0.065 A 
HETATM   16  C   UNK N   1      35.443  11.372  18.760  0.00  0.00     0.037 A 
HETATM   17  C   UNK N   1      35.373  11.098  17.394  0.00  0.00     0.015 A 
BRANCH  15  18
HETATM   18  O   UNK N   1      35.325  12.939  20.532  0.00  0.00    -0.361 OA
HETATM   19  H   UNK N   1      35.030  12.296  21.146  0.00  0.00     0.217 HD
ENDBRANCH  15  18
ENDBRANCH   1  12
BRANCH   8  20
HETATM   20  O   UNK N   1      37.676  13.177  11.914  0.00  0.00    -0.360 OA
HETATM   21  H   UNK N   1      38.122  13.098  12.734  0.00  0.00     0.217 HD
ENDBRANCH   8  20
BRANCH   6  22
HETATM   22  O   UNK N   1      35.092  10.816   8.735  0.00  0.00    -0.361 OA
HETATM   23  H   UNK N   1      35.260   9.934   8.465  0.00  0.00     0.217 HD
ENDBRANCH   6  22
TORSDOF 4
ENDMDL
MODEL 7
REMARK VINA RESULT:      -6.5     12.257     14.856
REMARK  4 active torsions:
REMARK  status: ('A' for Active; 'I' for Inactive)
REMARK    1  A    between atoms: O_1  and  C_2 
REMARK    2  A    between atoms: C_5  and  C_8 
REMARK    3  A    between atoms: C_13  and  O_14 
REMARK    4  A    between atoms: C_16  and  O_17 
ROOT
HETATM    1  C   UNK N   1      20.892  17.133   5.295  0.00  0.00     0.048 A 
HETATM    2  C   UNK N   1      19.780  16.877   4.478  0.00  0.00     0.159 A 
HETATM    3  O   UNK N   1      19.574  17.556   3.355  0.00  0.00    -0.321 OA
HETATM    4  C   UNK N   1      20.406  18.500   2.928  0.00  0.00     0.094 A 
HETATM    5  C   UNK N   1      20.136  19.163   1.729  0.00  0.00     0.074 A 
HETATM    6  C   UNK N   1      21.003  20.149   1.257  0.00  0.00     0.071 A 
HETATM    7  C   UNK N   1      22.152  20.475   1.979  0.00  0.00     0.074 A 
HETATM    8  C   UNK N   1      22.440  19.826   3.180  0.00  0.00     0.085 A 
HETATM    9  C   UNK N   1      21.564  18.829   3.675  0.00  0.00     0.082 A 
HETATM   10  C   UNK N   1      21.798  18.136   4.879  0.00  0.00     0.200 A 
HETATM   11  O   UNK N   1      22.787  18.391   5.548  0.00  0.00    -0.286 OA
ENDROOT
BRANCH   1  12
HETATM   12  C   UNK N   1      21.096  16.319   6.533  0.00  0.00    -0.020 A 
HETATM   13  C   UNK N   1      20.426  16.659   7.723  0.00  0.00     0.015 A 
HETATM   14  C   UNK N   1      20.553  15.860   8.864  0.00  0.00     0.037 A 
HETATM   15  C   UNK N   1      21.356  14.718   8.833  0.00  0.00     0.065 A 
HETATM   16  C   UNK N   1      22.045  14.382   7.668  0.00  0.00     0.037 A 
HETATM   17  C   UNK N   1      21.911  15.174   6.528  0.00  0.00     0.015 A 
BRANCH  15  18
HETATM   18  O   UNK N   1      21.460  13.937   9.920  0.00  0.00    -0.361 OA
HETATM   19  H   UNK N   1      21.744  14.300  10.735  0.00  0.00     0.217 HD
ENDBRANCH  15  18
ENDBRANCH   1  12
BRANCH   8  20
HETATM   20  O   UNK N   1      23.561  20.164   3.845  0.00  0.00    -0.360 OA
HETATM   21  H   UNK N   1      23.504  20.652   4.643  0.00  0.00     0.217 HD
ENDBRANCH   8  20
BRANCH   6  22
HETATM   22  O   UNK N   1      20.735  20.785   0.106  0.00  0.00    -0.361 OA
HETATM   23  H   UNK N   1      20.010  21.377   0.054  0.00  0.00     0.217 HD
ENDBRANCH   6  22
TORSDOF 4
ENDMDL
MODEL 8
REMARK VINA RESULT:      -6.4      4.755      9.811
REMARK  4 active torsions:
REMARK  status: ('A' for Active; 'I' for Inactive)
REMARK    1  A    between atoms: O_1  and  C_2 
REMARK    2  A    between atoms: C_5  and  C_8 
REMARK    3  A    between atoms: C_13  and  O_14 
REMARK    4  A    between atoms: C_16  and  O_17 
ROOT
HETATM    1  C   UNK N   1      35.760  12.953  15.759  0.00  0.00     0.048 A 
HETATM    2  C   UNK N   1      36.516  14.120  15.567  0.00  0.00     0.159 A 
HETATM    3  O   UNK N   1      36.687  14.643  14.358  0.00  0.00    -0.321 OA
HETATM    4  C   UNK N   1      36.148  14.112  13.267  0.00  0.00     0.094 A 
HETATM    5  C   UNK N   1      36.357  14.724  12.029  0.00  0.00     0.074 A 
HETATM    6  C   UNK N   1      35.789  14.189  10.872  0.00  0.00     0.071 A 
HETATM    7  C   UNK N   1      35.002  13.039  10.946  0.00  0.00     0.074 A 
HETATM    8  C   UNK N   1      34.781  12.410  12.172  0.00  0.00     0.085 A 
HETATM    9  C   UNK N   1      35.359  12.938  13.353  0.00  0.00     0.082 A 
HETATM   10  C   UNK N   1      35.175  12.353  14.621  0.00  0.00     0.200 A 
HETATM   11  O   UNK N   1      34.498  11.342  14.735  0.00  0.00    -0.286 OA
ENDROOT
BRANCH   1  12
HETATM   12  C   UNK N   1      35.570  12.422  17.145  0.00  0.00    -0.020 A 
HETATM   13  C   UNK N   1      35.854  11.074  17.432  0.00  0.00     0.015 A 
HETATM   14  C   UNK N   1      35.751  10.588  18.740  0.00  0.00     0.037 A 
HETATM   15  C   UNK N   1      35.355  11.439  19.773  0.00  0.00     0.065 A 
HETATM   16  C   UNK N   1      35.045  12.772  19.500  0.00  0.00     0.037 A 
HETATM   17  C   UNK N   1      35.158  13.258  18.197  0.00  0.00     0.015 A 
BRANCH  15  18
HETATM   18  O   UNK N   1      35.277  10.981  21.032  0.00  0.00    -0.361 OA
HETATM   19  H   UNK N   1      35.231  10.060  21.196  0.00  0.00     0.217 HD
ENDBRANCH  15  18
ENDBRANCH   1  12
BRANCH   8  20
HETATM   20  O   UNK N   1      34.012  11.306  12.203  0.00  0.00    -0.360 OA
HETATM   21  H   UNK N   1      33.178  11.304  11.775  0.00  0.00     0.217 HD
ENDBRANCH   8  20
BRANCH   6  22
HETATM   22  O   UNK N   1      35.997  14.781   9.686  0.00  0.00    -0.361 OA
HETATM   23  H   UNK N   1      36.822  15.187   9.501  0.00  0.00     0.217 HD
ENDBRANCH   6  22
TORSDOF 4
ENDMDL
MODEL 9
REMARK VINA RESULT:      -6.4     13.751     17.498
REMARK  4 active torsions:
REMARK  status: ('A' for Active; 'I' for Inactive)
REMARK    1  A    between atoms: O_1  and  C_2 
REMARK    2  A    between atoms: C_5  and  C_8 
REMARK    3  A    between atoms: C_13  and  O_14 
REMARK    4  A    between atoms: C_16  and  O_17 
ROOT
HETATM    1  C   UNK N   1      28.568  24.392  -3.781  0.00  0.00     0.048 A 
HETATM    2  C   UNK N   1      27.236  24.333  -3.345  0.00  0.00     0.159 A 
HETATM    3  O   UNK N   1      26.488  25.428  -3.252  0.00  0.00    -0.321 OA
HETATM    4  C   UNK N   1      26.943  26.633  -3.577  0.00  0.00     0.094 A 
HETATM    5  C   UNK N   1      26.097  27.739  -3.470  0.00  0.00     0.074 A 
HETATM    6  C   UNK N   1      26.551  29.012  -3.818  0.00  0.00     0.071 A 
HETATM    7  C   UNK N   1      27.855  29.186  -4.282  0.00  0.00     0.074 A 
HETATM    8  C   UNK N   1      28.718  28.096  -4.395  0.00  0.00     0.085 A 
HETATM    9  C   UNK N   1      28.273  26.799  -4.038  0.00  0.00     0.082 A 
HETATM   10  C   UNK N   1      29.092  25.657  -4.130  0.00  0.00     0.200 A 
HETATM   11  O   UNK N   1      30.243  25.762  -4.525  0.00  0.00    -0.286 OA
ENDROOT
BRANCH   1  12
HETATM   12  C   UNK N   1      29.358  23.126  -3.899  0.00  0.00    -0.020 A 
HETATM   13  C   UNK N   1      29.377  22.415  -5.113  0.00  0.00     0.015 A 
HETATM   14  C   UNK N   1      30.172  21.272  -5.255  0.00  0.00     0.037 A 
HETATM   15  C   UNK N   1      30.949  20.823  -4.184  0.00  0.00     0.065 A 
HETATM   16  C   UNK N   1      30.920  21.503  -2.967  0.00  0.00     0.037 A 
HETATM   17  C   UNK N   1      30.135  22.648  -2.829  0.00  0.00     0.015 A 
BRANCH  15  18
HETATM   18  O   UNK N   1      31.729  19.740  -4.325  0.00  0.00    -0.361 OA
HETATM   19  H   UNK N   1      32.570  19.815  -4.731  0.00  0.00     0.217 HD
ENDBRANCH  15  18
ENDBRANCH   1  12
BRANCH   8  20
HETATM   20  O   UNK N   1      29.967  28.304  -4.852  0.00  0.00    -0.360 OA
HETATM   21  H   UNK N   1      30.691  28.305  -4.256  0.00  0.00     0.217 HD
ENDBRANCH   8  20
BRANCH   6  22
HETATM   22  O   UNK N   1      25.733  30.070  -3.709  0.00  0.00    -0.361 OA
HETATM   23  H   UNK N   1      25.870  30.827  -4.245  0.00  0.00     0.217 HD
ENDBRANCH   6  22
TORSDOF 4
ENDMDL
