MODEL 1
REMARK VINA RESULT:      -9.0      0.000      0.000
REMARK  3 active torsions:
REMARK  status: ('A' for Active; 'I' for Inactive)
REMARK    1  A    between atoms: C_3  and  O_33 
REMARK    2  A    between atoms: C_20  and  C_30 
REMARK    3  A    between atoms: O_32  and  C_30 
ROOT
HETATM    1  C   UNK N   1      32.832  17.016   7.822  0.00  0.00     0.013 C 
HETATM    2  C   UNK N   1      33.438  17.608   6.566  0.00  0.00     0.033 C 
HETATM    3  C   UNK N   1      32.883  16.851   5.372  0.00  0.00     0.126 C 
HETATM    4  C   UNK N   1      33.395  15.397   5.396  0.00  0.00    -0.017 C 
HETATM    5  C   UNK N   1      32.848  14.710   6.694  0.00  0.00     0.005 C 
HETATM    6  C   UNK N   1      33.269  13.221   6.822  0.00  0.00     0.007 C 
HETATM    7  C   UNK N   1      34.647  12.989   7.482  0.00  0.00     0.011 C 
HETATM    8  C   UNK N   1      34.709  13.638   8.878  0.00  0.00    -0.021 C 
HETATM    9  C   UNK N   1      34.515  15.190   8.642  0.00  0.00     0.077 C 
HETATM   10  C   UNK N   1      33.089  15.509   8.032  0.00  0.00    -0.028 C 
HETATM   11  C   UNK N   1      34.829  15.975   9.905  0.00  0.00     0.155 C 
HETATM   12  C   UNK N   1      35.431  15.322  11.077  0.00  0.00     0.054 C 
HETATM   13  C   UNK N   1      35.958  14.083  11.028  0.00  0.00    -0.062 C 
HETATM   14  C   UNK N   1      36.032  13.333   9.682  0.00  0.00    -0.012 C 
HETATM   15  C   UNK N   1      36.142  11.796   9.896  0.00  0.00     0.015 C 
HETATM   16  C   UNK N   1      36.929  11.343  11.133  0.00  0.00     0.011 C 
HETATM   17  C   UNK N   1      36.404  12.003  12.413  0.00  0.00    -0.036 C 
HETATM   18  C   UNK N   1      36.628  13.519  12.280  0.00  0.00     0.025 C 
HETATM   19  C   UNK N   1      36.218  14.290  13.564  0.00  0.00     0.030 C 
HETATM   20  C   UNK N   1      36.398  13.540  14.900  0.00  0.00     0.042 C 
HETATM   21  C   UNK N   1      37.452  12.433  14.764  0.00  0.00     0.021 C 
HETATM   22  C   UNK N   1      37.202  11.443  13.605  0.00  0.00     0.011 C 
HETATM   23  C   UNK N   1      34.917  15.373   5.292  0.00  0.00     0.018 C 
HETATM   24  C   UNK N   1      32.841  14.675   4.171  0.00  0.00     0.018 C 
HETATM   25  C   UNK N   1      31.990  15.144   9.027  0.00  0.00     0.016 C 
HETATM   26  C   UNK N   1      33.578  13.014   9.725  0.00  0.00     0.017 C 
HETATM   27  C   UNK N   1      37.272  13.796   8.927  0.00  0.00     0.021 C 
HETATM   28  C   UNK N   1      34.929  11.647  12.603  0.00  0.00     0.016 C 
HETATM   29  C   UNK N   1      35.062  12.940  15.314  0.00  0.00     0.026 C 
HETATM   30  O   UNK N   1      34.691  17.188   9.922  0.00  0.00    -0.293 OA
ENDROOT
BRANCH  20  31
HETATM   31  C   UNK N   1      36.823  14.505  15.984  0.00  0.00     0.148 C 
HETATM   32  O   UNK N   1      36.192  14.562  17.033  0.00  0.00    -0.649 OA
BRANCH  31  33
HETATM   33  O   UNK N   1      37.887  15.312  15.812  0.00  0.00    -0.776 OA
HETATM   34  H   UNK N   1      38.742  15.360  16.194  0.00  0.00     0.167 HD
ENDBRANCH  31  33
ENDBRANCH  20  31
BRANCH   3  35
HETATM   35  O   UNK N   1      33.215  17.515   4.189  0.00  0.00    -0.395 OA
HETATM   36  H   UNK N   1      33.878  18.187   3.967  0.00  0.00     0.210 HD
ENDBRANCH   3  35
TORSDOF 3
ENDMDL
MODEL 2
REMARK VINA RESULT:      -8.5     15.362     19.638
REMARK  3 active torsions:
REMARK  status: ('A' for Active; 'I' for Inactive)
REMARK    1  A    between atoms: C_3  and  O_33 
REMARK    2  A    between atoms: C_20  and  C_30 
REMARK    3  A    between atoms: O_32  and  C_30 
ROOT
HETATM    1  C   UNK N   1      34.256  22.566  -6.111  0.00  0.00     0.013 C 
HETATM    2  C   UNK N   1      35.295  22.141  -5.093  0.00  0.00     0.033 C 
HETATM    3  C   UNK N   1      35.271  20.625  -4.999  0.00  0.00     0.126 C 
HETATM    4  C   UNK N   1      33.930  20.164  -4.393  0.00  0.00    -0.017 C 
HETATM    5  C   UNK N   1      32.782  20.601  -5.366  0.00  0.00     0.005 C 
HETATM    6  C   UNK N   1      31.373  20.164  -4.884  0.00  0.00     0.007 C 
HETATM    7  C   UNK N   1      30.687  21.144  -3.904  0.00  0.00     0.011 C 
HETATM    8  C   UNK N   1      30.582  22.554  -4.516  0.00  0.00    -0.021 C 
HETATM    9  C   UNK N   1      32.069  23.034  -4.755  0.00  0.00     0.077 C 
HETATM   10  C   UNK N   1      32.812  22.114  -5.808  0.00  0.00    -0.028 C 
HETATM   11  C   UNK N   1      32.114  24.514  -5.098  0.00  0.00     0.155 C 
HETATM   12  C   UNK N   1      30.913  25.357  -4.989  0.00  0.00     0.054 C 
HETATM   13  C   UNK N   1      29.793  24.949  -4.363  0.00  0.00    -0.062 C 
HETATM   14  C   UNK N   1      29.770  23.586  -3.640  0.00  0.00    -0.012 C 
HETATM   15  C   UNK N   1      28.317  23.061  -3.468  0.00  0.00     0.015 C 
HETATM   16  C   UNK N   1      27.237  24.128  -3.242  0.00  0.00     0.011 C 
HETATM   17  C   UNK N   1      27.268  25.206  -4.332  0.00  0.00    -0.036 C 
HETATM   18  C   UNK N   1      28.625  25.925  -4.237  0.00  0.00     0.025 C 
HETATM   19  C   UNK N   1      28.736  27.108  -5.236  0.00  0.00     0.030 C 
HETATM   20  C   UNK N   1      27.425  27.852  -5.566  0.00  0.00     0.042 C 
HETATM   21  C   UNK N   1      26.397  27.663  -4.444  0.00  0.00     0.021 C 
HETATM   22  C   UNK N   1      26.115  26.192  -4.066  0.00  0.00     0.011 C 
HETATM   23  C   UNK N   1      33.772  20.717  -2.980  0.00  0.00     0.018 C 
HETATM   24  C   UNK N   1      33.952  18.642  -4.289  0.00  0.00     0.018 C 
HETATM   25  C   UNK N   1      32.156  22.238  -7.181  0.00  0.00     0.016 C 
HETATM   26  C   UNK N   1      29.774  22.427  -5.826  0.00  0.00     0.017 C 
HETATM   27  C   UNK N   1      30.382  23.754  -2.254  0.00  0.00     0.021 C 
HETATM   28  C   UNK N   1      27.048  24.557  -5.699  0.00  0.00     0.016 C 
HETATM   29  C   UNK N   1      26.870  27.316  -6.879  0.00  0.00     0.026 C 
HETATM   30  O   UNK N   1      33.179  25.050  -5.359  0.00  0.00    -0.293 OA
ENDROOT
BRANCH  20  31
HETATM   31  C   UNK N   1      27.698  29.327  -5.752  0.00  0.00     0.148 C 
HETATM   32  O   UNK N   1      28.369  29.709  -6.705  0.00  0.00    -0.649 OA
BRANCH  31  33
HETATM   33  O   UNK N   1      27.219  30.234  -4.880  0.00  0.00    -0.776 OA
HETATM   34  H   UNK N   1      27.160  31.170  -4.874  0.00  0.00     0.167 HD
ENDBRANCH  31  33
ENDBRANCH  20  31
BRANCH   3  35
HETATM   35  O   UNK N   1      36.372  20.175  -4.265  0.00  0.00    -0.395 OA
HETATM   36  H   UNK N   1      36.940  19.392  -4.332  0.00  0.00     0.210 HD
ENDBRANCH   3  35
TORSDOF 3
ENDMDL
MODEL 3
REMARK VINA RESULT:      -8.1      3.595      6.024
REMARK  3 active torsions:
REMARK  status: ('A' for Active; 'I' for Inactive)
REMARK    1  A    between atoms: C_3  and  O_33 
REMARK    2  A    between atoms: C_20  and  C_30 
REMARK    3  A    between atoms: O_32  and  C_30 
ROOT
HETATM    1  C   UNK N   1      28.098  18.775   7.883  0.00  0.00     0.013 C 
HETATM    2  C   UNK N   1      27.821  20.086   7.176  0.00  0.00     0.033 C 
HETATM    3  C   UNK N   1      26.851  19.814   6.041  0.00  0.00     0.126 C 
HETATM    4  C   UNK N   1      27.535  18.939   4.971  0.00  0.00    -0.017 C 
HETATM    5  C   UNK N   1      27.899  17.564   5.628  0.00  0.00     0.005 C 
HETATM    6  C   UNK N   1      28.569  16.572   4.640  0.00  0.00     0.007 C 
HETATM    7  C   UNK N   1      30.102  16.723   4.506  0.00  0.00     0.011 C 
HETATM    8  C   UNK N   1      30.793  16.593   5.877  0.00  0.00    -0.021 C 
HETATM    9  C   UNK N   1      30.241  17.787   6.755  0.00  0.00     0.077 C 
HETATM   10  C   UNK N   1      28.681  17.656   6.994  0.00  0.00    -0.028 C 
HETATM   11  C   UNK N   1      31.045  17.936   8.036  0.00  0.00     0.155 C 
HETATM   12  C   UNK N   1      32.285  17.174   8.250  0.00  0.00     0.054 C 
HETATM   13  C   UNK N   1      32.905  16.502   7.260  0.00  0.00    -0.062 C 
HETATM   14  C   UNK N   1      32.370  16.596   5.816  0.00  0.00    -0.012 C 
HETATM   15  C   UNK N   1      32.839  15.385   4.960  0.00  0.00     0.015 C 
HETATM   16  C   UNK N   1      34.231  14.829   5.285  0.00  0.00     0.011 C 
HETATM   17  C   UNK N   1      34.373  14.490   6.774  0.00  0.00    -0.036 C 
HETATM   18  C   UNK N   1      34.227  15.801   7.565  0.00  0.00     0.025 C 
HETATM   19  C   UNK N   1      34.449  15.598   9.088  0.00  0.00     0.030 C 
HETATM   20  C   UNK N   1      35.444  14.492   9.494  0.00  0.00     0.042 C 
HETATM   21  C   UNK N   1      36.429  14.203   8.355  0.00  0.00     0.021 C 
HETATM   22  C   UNK N   1      35.770  13.878   6.997  0.00  0.00     0.011 C 
HETATM   23  C   UNK N   1      28.739  19.669   4.385  0.00  0.00     0.018 C 
HETATM   24  C   UNK N   1      26.542  18.709   3.836  0.00  0.00     0.018 C 
HETATM   25  C   UNK N   1      28.371  16.411   7.822  0.00  0.00     0.016 C 
HETATM   26  C   UNK N   1      30.422  15.207   6.448  0.00  0.00     0.017 C 
HETATM   27  C   UNK N   1      32.908  17.868   5.173  0.00  0.00     0.021 C 
HETATM   28  C   UNK N   1      33.320  13.454   7.165  0.00  0.00     0.016 C 
HETATM   29  C   UNK N   1      34.666  13.230   9.844  0.00  0.00     0.026 C 
HETATM   30  O   UNK N   1      30.734  18.782   8.859  0.00  0.00    -0.293 OA
ENDROOT
BRANCH  20  31
HETATM   31  C   UNK N   1      36.213  14.912  10.726  0.00  0.00     0.148 C 
HETATM   32  O   UNK N   1      36.245  14.177  11.707  0.00  0.00    -0.649 OA
BRANCH  31  33
HETATM   33  O   UNK N   1      36.862  16.091  10.768  0.00  0.00    -0.776 OA
HETATM   34  H   UNK N   1      37.765  16.342  10.790  0.00  0.00     0.167 HD
ENDBRANCH  31  33
ENDBRANCH  20  31
BRANCH   3  35
HETATM   35  O   UNK N   1      26.375  21.020   5.520  0.00  0.00    -0.395 OA
HETATM   36  H   UNK N   1      26.551  21.506   4.699  0.00  0.00     0.210 HD
ENDBRANCH   3  35
TORSDOF 3
ENDMDL
MODEL 4
REMARK VINA RESULT:      -8.0      5.871      9.285
REMARK  3 active torsions:
REMARK  status: ('A' for Active; 'I' for Inactive)
REMARK    1  A    between atoms: C_3  and  O_33 
REMARK    2  A    between atoms: C_20  and  C_30 
REMARK    3  A    between atoms: O_32  and  C_30 
ROOT
HETATM    1  C   UNK N   1      24.662  14.791   6.613  0.00  0.00     0.013 C 
HETATM    2  C   UNK N   1      23.464  15.689   6.380  0.00  0.00     0.033 C 
HETATM    3  C   UNK N   1      22.754  15.212   5.126  0.00  0.00     0.126 C 
HETATM    4  C   UNK N   1      23.655  15.449   3.897  0.00  0.00    -0.017 C 
HETATM    5  C   UNK N   1      24.950  14.585   4.071  0.00  0.00     0.005 C 
HETATM    6  C   UNK N   1      25.933  14.710   2.876  0.00  0.00     0.007 C 
HETATM    7  C   UNK N   1      26.917  15.899   2.963  0.00  0.00     0.011 C 
HETATM    8  C   UNK N   1      27.734  15.846   4.268  0.00  0.00    -0.021 C 
HETATM    9  C   UNK N   1      26.683  15.970   5.443  0.00  0.00     0.077 C 
HETATM   10  C   UNK N   1      25.684  14.742   5.457  0.00  0.00    -0.028 C 
HETATM   11  C   UNK N   1      27.379  16.207   6.773  0.00  0.00     0.155 C 
HETATM   12  C   UNK N   1      28.822  16.486   6.837  0.00  0.00     0.054 C 
HETATM   13  C   UNK N   1      29.554  16.787   5.747  0.00  0.00    -0.062 C 
HETATM   14  C   UNK N   1      28.861  16.945   4.378  0.00  0.00    -0.012 C 
HETATM   15  C   UNK N   1      29.867  16.747   3.209  0.00  0.00     0.015 C 
HETATM   16  C   UNK N   1      31.301  17.229   3.464  0.00  0.00     0.011 C 
HETATM   17  C   UNK N   1      31.882  16.627   4.749  0.00  0.00    -0.036 C 
HETATM   18  C   UNK N   1      31.031  17.133   5.926  0.00  0.00     0.025 C 
HETATM   19  C   UNK N   1      31.584  16.662   7.298  0.00  0.00     0.030 C 
HETATM   20  C   UNK N   1      33.113  16.487   7.398  0.00  0.00     0.042 C 
HETATM   21  C   UNK N   1      33.826  17.336   6.338  0.00  0.00     0.021 C 
HETATM   22  C   UNK N   1      33.338  17.109   4.891  0.00  0.00     0.011 C 
HETATM   23  C   UNK N   1      23.936  16.939   3.730  0.00  0.00     0.018 C 
HETATM   24  C   UNK N   1      22.900  14.983   2.655  0.00  0.00     0.018 C 
HETATM   25  C   UNK N   1      26.435  13.448   5.765  0.00  0.00     0.016 C 
HETATM   26  C   UNK N   1      28.492  14.501   4.281  0.00  0.00     0.017 C 
HETATM   27  C   UNK N   1      28.288  18.354   4.276  0.00  0.00     0.021 C 
HETATM   28  C   UNK N   1      31.882  15.102   4.644  0.00  0.00     0.016 C 
HETATM   29  C   UNK N   1      33.456  15.016   7.204  0.00  0.00     0.026 C 
HETATM   30  O   UNK N   1      26.726  16.284   7.801  0.00  0.00    -0.293 OA
ENDROOT
BRANCH  20  31
HETATM   31  C   UNK N   1      33.594  16.892   8.772  0.00  0.00     0.148 C 
HETATM   32  O   UNK N   1      34.228  17.932   8.915  0.00  0.00    -0.649 OA
BRANCH  31  33
HETATM   33  O   UNK N   1      33.342  16.123   9.848  0.00  0.00    -0.776 OA
HETATM   34  H   UNK N   1      32.572  15.922  10.344  0.00  0.00     0.167 HD
ENDBRANCH  31  33
ENDBRANCH  20  31
BRANCH   3  35
HETATM   35  O   UNK N   1      21.513  15.844   5.009  0.00  0.00    -0.395 OA
HETATM   36  H   UNK N   1      20.814  16.059   5.646  0.00  0.00     0.210 HD
ENDBRANCH   3  35
TORSDOF 3
ENDMDL
MODEL 5
REMARK VINA RESULT:      -7.9     15.990     18.834
REMARK  3 active torsions:
REMARK  status: ('A' for Active; 'I' for Inactive)
REMARK    1  A    between atoms: C_3  and  O_33 
REMARK    2  A    between atoms: C_20  and  C_30 
REMARK    3  A    between atoms: O_32  and  C_30 
ROOT
HETATM    1  C   UNK N   1      27.649  24.248  -7.200  0.00  0.00     0.013 C 
HETATM    2  C   UNK N   1      26.284  24.203  -6.545  0.00  0.00     0.033 C 
HETATM    3  C   UNK N   1      26.109  25.473  -5.731  0.00  0.00     0.126 C 
HETATM    4  C   UNK N   1      27.101  25.473  -4.550  0.00  0.00    -0.017 C 
HETATM    5  C   UNK N   1      28.554  25.478  -5.136  0.00  0.00     0.005 C 
HETATM    6  C   UNK N   1      29.655  25.511  -4.042  0.00  0.00     0.007 C 
HETATM    7  C   UNK N   1      30.063  24.127  -3.487  0.00  0.00     0.011 C 
HETATM    8  C   UNK N   1      30.525  23.191  -4.620  0.00  0.00    -0.021 C 
HETATM    9  C   UNK N   1      29.272  23.008  -5.568  0.00  0.00     0.077 C 
HETATM   10  C   UNK N   1      28.843  24.380  -6.230  0.00  0.00    -0.028 C 
HETATM   11  C   UNK N   1      29.510  21.892  -6.571  0.00  0.00     0.155 C 
HETATM   12  C   UNK N   1      30.683  21.011  -6.467  0.00  0.00     0.054 C 
HETATM   13  C   UNK N   1      31.468  20.971  -5.373  0.00  0.00    -0.062 C 
HETATM   14  C   UNK N   1      31.092  21.802  -4.128  0.00  0.00    -0.012 C 
HETATM   15  C   UNK N   1      32.331  22.060  -3.225  0.00  0.00     0.015 C 
HETATM   16  C   UNK N   1      33.376  20.938  -3.177  0.00  0.00     0.011 C 
HETATM   17  C   UNK N   1      33.840  20.535  -4.582  0.00  0.00    -0.036 C 
HETATM   18  C   UNK N   1      32.620  19.970  -5.331  0.00  0.00     0.025 C 
HETATM   19  C   UNK N   1      32.989  19.438  -6.741  0.00  0.00     0.030 C 
HETATM   20  C   UNK N   1      34.406  18.848  -6.902  0.00  0.00     0.042 C 
HETATM   21  C   UNK N   1      34.958  18.384  -5.549  0.00  0.00     0.021 C 
HETATM   22  C   UNK N   1      34.930  19.456  -4.437  0.00  0.00     0.011 C 
HETATM   23  C   UNK N   1      26.821  24.291  -3.628  0.00  0.00     0.018 C 
HETATM   24  C   UNK N   1      26.879  26.748  -3.740  0.00  0.00     0.018 C 
HETATM   25  C   UNK N   1      29.941  24.890  -7.160  0.00  0.00     0.016 C 
HETATM   26  C   UNK N   1      31.716  23.877  -5.324  0.00  0.00     0.017 C 
HETATM   27  C   UNK N   1      30.063  21.029  -3.312  0.00  0.00     0.021 C 
HETATM   28  C   UNK N   1      34.445  21.748  -5.288  0.00  0.00     0.016 C 
HETATM   29  C   UNK N   1      35.318  19.910  -7.502  0.00  0.00     0.026 C 
HETATM   30  O   UNK N   1      28.665  21.637  -7.415  0.00  0.00    -0.293 OA
ENDROOT
BRANCH  20  31
HETATM   31  C   UNK N   1      34.376  17.678  -7.859  0.00  0.00     0.148 C 
HETATM   32  O   UNK N   1      33.835  17.796  -8.953  0.00  0.00    -0.649 OA
BRANCH  31  33
HETATM   33  O   UNK N   1      34.930  16.497  -7.525  0.00  0.00    -0.776 OA
HETATM   34  H   UNK N   1      35.708  16.244  -7.066  0.00  0.00     0.167 HD
ENDBRANCH  31  33
ENDBRANCH  20  31
BRANCH   3  35
HETATM   35  O   UNK N   1      24.781  25.594  -5.314  0.00  0.00    -0.395 OA
HETATM   36  H   UNK N   1      24.305  25.309  -4.518  0.00  0.00     0.210 HD
ENDBRANCH   3  35
TORSDOF 3
ENDMDL
MODEL 6
REMARK VINA RESULT:      -7.7      8.244     12.170
REMARK  3 active torsions:
REMARK  status: ('A' for Active; 'I' for Inactive)
REMARK    1  A    between atoms: C_3  and  O_33 
REMARK    2  A    between atoms: C_20  and  C_30 
REMARK    3  A    between atoms: O_32  and  C_30 
ROOT
HETATM    1  C   UNK N   1      22.230  17.549   5.152  0.00  0.00     0.013 C 
HETATM    2  C   UNK N   1      21.201  18.056   4.163  0.00  0.00     0.033 C 
HETATM    3  C   UNK N   1      20.093  17.022   4.063  0.00  0.00     0.126 C 
HETATM    4  C   UNK N   1      20.642  15.733   3.418  0.00  0.00    -0.017 C 
HETATM    5  C   UNK N   1      21.753  15.154   4.359  0.00  0.00     0.005 C 
HETATM    6  C   UNK N   1      22.368  13.829   3.836  0.00  0.00     0.007 C 
HETATM    7  C   UNK N   1      23.538  14.002   2.841  0.00  0.00     0.011 C 
HETATM    8  C   UNK N   1      24.664  14.858   3.454  0.00  0.00    -0.021 C 
HETATM    9  C   UNK N   1      24.024  16.276   3.737  0.00  0.00     0.077 C 
HETATM   10  C   UNK N   1      22.861  16.183   4.807  0.00  0.00    -0.028 C 
HETATM   11  C   UNK N   1      25.095  17.295   4.086  0.00  0.00     0.155 C 
HETATM   12  C   UNK N   1      26.525  16.976   3.946  0.00  0.00     0.054 C 
HETATM   13  C   UNK N   1      26.965  15.887   3.287  0.00  0.00    -0.062 C 
HETATM   14  C   UNK N   1      25.958  14.971   2.559  0.00  0.00    -0.012 C 
HETATM   15  C   UNK N   1      26.543  13.546   2.344  0.00  0.00     0.015 C 
HETATM   16  C   UNK N   1      28.055  13.469   2.091  0.00  0.00     0.011 C 
HETATM   17  C   UNK N   1      28.850  14.191   3.186  0.00  0.00    -0.036 C 
HETATM   18  C   UNK N   1      28.470  15.680   3.132  0.00  0.00     0.025 C 
HETATM   19  C   UNK N   1      29.288  16.534   4.138  0.00  0.00     0.030 C 
HETATM   20  C   UNK N   1      30.725  16.056   4.433  0.00  0.00     0.042 C 
HETATM   21  C   UNK N   1      31.257  15.194   3.282  0.00  0.00     0.021 C 
HETATM   22  C   UNK N   1      30.351  14.006   2.891  0.00  0.00     0.011 C 
HETATM   23  C   UNK N   1      21.135  16.021   2.003  0.00  0.00     0.018 C 
HETATM   24  C   UNK N   1      19.498  14.729   3.309  0.00  0.00     0.018 C 
HETATM   25  C   UNK N   1      23.416  15.748   6.162  0.00  0.00     0.016 C 
HETATM   26  C   UNK N   1      25.133  14.144   4.740  0.00  0.00     0.017 C 
HETATM   27  C   UNK N   1      25.649  15.568   1.191  0.00  0.00     0.021 C 
HETATM   28  C   UNK N   1      28.540  13.560   4.543  0.00  0.00     0.016 C 
HETATM   29  C   UNK N   1      30.723  15.254   5.728  0.00  0.00     0.026 C 
HETATM   30  O   UNK N   1      24.781  18.438   4.379  0.00  0.00    -0.293 OA
ENDROOT
BRANCH  20  31
HETATM   31  C   UNK N   1      31.637  17.245   4.632  0.00  0.00     0.148 C 
HETATM   32  O   UNK N   1      32.448  17.246   5.551  0.00  0.00    -0.649 OA
BRANCH  31  33
HETATM   33  O   UNK N   1      31.569  18.312   3.814  0.00  0.00    -0.776 OA
HETATM   34  H   UNK N   1      31.314  19.208   3.925  0.00  0.00     0.167 HD
ENDBRANCH  31  33
ENDBRANCH  20  31
BRANCH   3  35
HETATM   35  O   UNK N   1      19.008  17.551   3.359  0.00  0.00    -0.395 OA
HETATM   36  H   UNK N   1      18.576  17.312   2.525  0.00  0.00     0.210 HD
ENDBRANCH   3  35
TORSDOF 3
ENDMDL
MODEL 7
REMARK VINA RESULT:      -7.7      7.645     11.800
REMARK  3 active torsions:
REMARK  status: ('A' for Active; 'I' for Inactive)
REMARK    1  A    between atoms: C_3  and  O_33 
REMARK    2  A    between atoms: C_20  and  C_30 
REMARK    3  A    between atoms: O_32  and  C_30 
ROOT
HETATM    1  C   UNK N   1      29.752  17.751   6.638  0.00  0.00     0.013 C 
HETATM    2  C   UNK N   1      31.019  16.971   6.926  0.00  0.00     0.033 C 
HETATM    3  C   UNK N   1      31.941  17.110   5.727  0.00  0.00     0.126 C 
HETATM    4  C   UNK N   1      31.320  16.398   4.508  0.00  0.00    -0.017 C 
HETATM    5  C   UNK N   1      29.972  17.117   4.161  0.00  0.00     0.005 C 
HETATM    6  C   UNK N   1      29.258  16.512   2.922  0.00  0.00     0.007 C 
HETATM    7  C   UNK N   1      28.341  15.304   3.224  0.00  0.00     0.011 C 
HETATM    8  C   UNK N   1      27.276  15.667   4.277  0.00  0.00    -0.021 C 
HETATM    9  C   UNK N   1      28.074  16.040   5.590  0.00  0.00     0.077 C 
HETATM   10  C   UNK N   1      28.983  17.318   5.372  0.00  0.00    -0.028 C 
HETATM   11  C   UNK N   1      27.138  16.152   6.781  0.00  0.00     0.155 C 
HETATM   12  C   UNK N   1      25.728  15.742   6.683  0.00  0.00     0.054 C 
HETATM   13  C   UNK N   1      25.248  15.033   5.643  0.00  0.00    -0.062 C 
HETATM   14  C   UNK N   1      26.210  14.535   4.544  0.00  0.00    -0.012 C 
HETATM   15  C   UNK N   1      25.452  14.240   3.220  0.00  0.00     0.015 C 
HETATM   16  C   UNK N   1      24.023  13.699   3.367  0.00  0.00     0.011 C 
HETATM   17  C   UNK N   1      23.164  14.602   4.261  0.00  0.00    -0.036 C 
HETATM   18  C   UNK N   1      23.786  14.591   5.668  0.00  0.00     0.025 C 
HETATM   19  C   UNK N   1      22.944  15.400   6.690  0.00  0.00     0.030 C 
HETATM   20  C   UNK N   1      21.419  15.420   6.459  0.00  0.00     0.042 C 
HETATM   21  C   UNK N   1      20.980  14.205   5.632  0.00  0.00     0.021 C 
HETATM   22  C   UNK N   1      21.737  14.023   4.298  0.00  0.00     0.011 C 
HETATM   23  C   UNK N   1      31.158  14.909   4.795  0.00  0.00     0.018 C 
HETATM   24  C   UNK N   1      32.283  16.536   3.333  0.00  0.00     0.018 C 
HETATM   25  C   UNK N   1      28.118  18.547   5.101  0.00  0.00     0.016 C 
HETATM   26  C   UNK N   1      26.461  16.852   3.713  0.00  0.00     0.017 C 
HETATM   27  C   UNK N   1      26.866  13.242   5.013  0.00  0.00     0.021 C 
HETATM   28  C   UNK N   1      23.105  16.007   3.661  0.00  0.00     0.016 C 
HETATM   29  C   UNK N   1      21.045  16.706   5.736  0.00  0.00     0.026 C 
HETATM   30  O   UNK N   1      27.574  16.476   7.875  0.00  0.00    -0.293 OA
ENDROOT
BRANCH  20  31
HETATM   31  C   UNK N   1      20.693  15.411   7.785  0.00  0.00     0.148 C 
HETATM   32  O   UNK N   1      20.009  14.444   8.101  0.00  0.00    -0.649 OA
BRANCH  31  33
HETATM   33  O   UNK N   1      20.780  16.458   8.628  0.00  0.00    -0.776 OA
HETATM   34  H   UNK N   1      20.158  17.047   9.008  0.00  0.00     0.167 HD
ENDBRANCH  31  33
ENDBRANCH  20  31
BRANCH   3  35
HETATM   35  O   UNK N   1      33.211  16.621   6.042  0.00  0.00    -0.395 OA
HETATM   36  H   UNK N   1      33.774  16.691   6.829  0.00  0.00     0.210 HD
ENDBRANCH   3  35
TORSDOF 3
ENDMDL
MODEL 8
REMARK VINA RESULT:      -7.5      2.336      4.151
REMARK  3 active torsions:
REMARK  status: ('A' for Active; 'I' for Inactive)
REMARK    1  A    between atoms: C_3  and  O_33 
REMARK    2  A    between atoms: C_20  and  C_30 
REMARK    3  A    between atoms: O_32  and  C_30 
ROOT
HETATM    1  C   UNK N   1      32.703  13.157   4.375  0.00  0.00     0.013 C 
HETATM    2  C   UNK N   1      31.282  13.492   3.969  0.00  0.00     0.033 C 
HETATM    3  C   UNK N   1      31.321  14.742   3.107  0.00  0.00     0.126 C 
HETATM    4  C   UNK N   1      31.770  15.946   3.960  0.00  0.00    -0.017 C 
HETATM    5  C   UNK N   1      33.227  15.668   4.463  0.00  0.00     0.005 C 
HETATM    6  C   UNK N   1      33.812  16.828   5.312  0.00  0.00     0.007 C 
HETATM    7  C   UNK N   1      33.462  16.775   6.817  0.00  0.00     0.011 C 
HETATM    8  C   UNK N   1      33.905  15.438   7.441  0.00  0.00    -0.021 C 
HETATM    9  C   UNK N   1      33.082  14.316   6.689  0.00  0.00     0.077 C 
HETATM   10  C   UNK N   1      33.447  14.266   5.149  0.00  0.00    -0.028 C 
HETATM   11  C   UNK N   1      33.221  12.976   7.393  0.00  0.00     0.155 C 
HETATM   12  C   UNK N   1      33.871  12.872   8.709  0.00  0.00     0.054 C 
HETATM   13  C   UNK N   1      34.157  13.948   9.466  0.00  0.00    -0.062 C 
HETATM   14  C   UNK N   1      33.711  15.352   9.005  0.00  0.00    -0.012 C 
HETATM   15  C   UNK N   1      34.564  16.465   9.676  0.00  0.00     0.015 C 
HETATM   16  C   UNK N   1      35.034  16.183  11.109  0.00  0.00     0.011 C 
HETATM   17  C   UNK N   1      35.770  14.841  11.211  0.00  0.00    -0.036 C 
HETATM   18  C   UNK N   1      34.766  13.732  10.850  0.00  0.00     0.025 C 
HETATM   19  C   UNK N   1      35.374  12.313  11.011  0.00  0.00     0.030 C 
HETATM   20  C   UNK N   1      36.434  12.142  12.118  0.00  0.00     0.042 C 
HETATM   21  C   UNK N   1      36.272  13.222  13.195  0.00  0.00     0.021 C 
HETATM   22  C   UNK N   1      36.262  14.671  12.661  0.00  0.00     0.011 C 
HETATM   23  C   UNK N   1      30.774  16.193   5.088  0.00  0.00     0.018 C 
HETATM   24  C   UNK N   1      31.771  17.186   3.070  0.00  0.00     0.018 C 
HETATM   25  C   UNK N   1      34.904  13.849   4.959  0.00  0.00     0.016 C 
HETATM   26  C   UNK N   1      35.428  15.312   7.224  0.00  0.00     0.017 C 
HETATM   27  C   UNK N   1      32.256  15.563   9.407  0.00  0.00     0.021 C 
HETATM   28  C   UNK N   1      36.984  14.852  10.282  0.00  0.00     0.016 C 
HETATM   29  C   UNK N   1      37.820  12.231  11.494  0.00  0.00     0.026 C 
HETATM   30  O   UNK N   1      32.688  11.982   6.928  0.00  0.00    -0.293 OA
ENDROOT
BRANCH  20  31
HETATM   31  C   UNK N   1      36.305  10.777  12.755  0.00  0.00     0.148 C 
HETATM   32  O   UNK N   1      37.292  10.058  12.865  0.00  0.00    -0.649 OA
BRANCH  31  33
HETATM   33  O   UNK N   1      35.115  10.332  13.201  0.00  0.00    -0.776 OA
HETATM   34  H   UNK N   1      34.279  10.731  13.351  0.00  0.00     0.167 HD
ENDBRANCH  31  33
ENDBRANCH  20  31
BRANCH   3  35
HETATM   35  O   UNK N   1      30.076  14.947   2.507  0.00  0.00    -0.395 OA
HETATM   36  H   UNK N   1      29.731  14.779   1.616  0.00  0.00     0.210 HD
ENDBRANCH   3  35
TORSDOF 3
ENDMDL
MODEL 9
REMARK VINA RESULT:      -7.4      1.649      2.362
REMARK  3 active torsions:
REMARK  status: ('A' for Active; 'I' for Inactive)
REMARK    1  A    between atoms: C_3  and  O_33 
REMARK    2  A    between atoms: C_20  and  C_30 
REMARK    3  A    between atoms: O_32  and  C_30 
ROOT
HETATM    1  C   UNK N   1      33.325  15.182   8.592  0.00  0.00     0.013 C 
HETATM    2  C   UNK N   1      34.065  16.154   7.696  0.00  0.00     0.033 C 
HETATM    3  C   UNK N   1      34.150  15.545   6.308  0.00  0.00     0.126 C 
HETATM    4  C   UNK N   1      35.051  14.294   6.344  0.00  0.00    -0.017 C 
HETATM    5  C   UNK N   1      34.380  13.239   7.289  0.00  0.00     0.005 C 
HETATM    6  C   UNK N   1      35.178  11.911   7.386  0.00  0.00     0.007 C 
HETATM    7  C   UNK N   1      36.300  11.902   8.450  0.00  0.00     0.011 C 
HETATM    8  C   UNK N   1      35.743  12.244   9.845  0.00  0.00    -0.021 C 
HETATM    9  C   UNK N   1      35.163  13.711   9.732  0.00  0.00     0.077 C 
HETATM   10  C   UNK N   1      33.957  13.779   8.708  0.00  0.00    -0.028 C 
HETATM   11  C   UNK N   1      34.831  14.271  11.105  0.00  0.00     0.155 C 
HETATM   12  C   UNK N   1      35.228  13.563  12.332  0.00  0.00     0.054 C 
HETATM   13  C   UNK N   1      36.097  12.535  12.329  0.00  0.00    -0.062 C 
HETATM   14  C   UNK N   1      36.794  12.122  11.016  0.00  0.00    -0.012 C 
HETATM   15  C   UNK N   1      37.300  10.653  11.081  0.00  0.00     0.015 C 
HETATM   16  C   UNK N   1      37.783  10.167  12.455  0.00  0.00     0.011 C 
HETATM   17  C   UNK N   1      36.725  10.395  13.541  0.00  0.00    -0.036 C 
HETATM   18  C   UNK N   1      36.503  11.913  13.664  0.00  0.00     0.025 C 
HETATM   19  C   UNK N   1      35.516  12.273  14.806  0.00  0.00     0.030 C 
HETATM   20  C   UNK N   1      35.511  11.334  16.030  0.00  0.00     0.042 C 
HETATM   21  C   UNK N   1      36.843  10.581  16.141  0.00  0.00     0.021 C 
HETATM   22  C   UNK N   1      37.264   9.820  14.865  0.00  0.00     0.011 C 
HETATM   23  C   UNK N   1      36.466  14.676   6.768  0.00  0.00     0.018 C 
HETATM   24  C   UNK N   1      35.135  13.725   4.930  0.00  0.00     0.018 C 
HETATM   25  C   UNK N   1      32.778  12.951   9.217  0.00  0.00     0.016 C 
HETATM   26  C   UNK N   1      34.659  11.194  10.176  0.00  0.00     0.017 C 
HETATM   27  C   UNK N   1      37.998  13.029  10.790  0.00  0.00     0.021 C 
HETATM   28  C   UNK N   1      35.444   9.647  13.171  0.00  0.00     0.016 C 
HETATM   29  C   UNK N   1      34.362  10.344  15.889  0.00  0.00     0.026 C 
HETATM   30  O   UNK N   1      34.331  15.380  11.209  0.00  0.00    -0.293 OA
ENDROOT
BRANCH  20  31
HETATM   31  C   UNK N   1      35.278  12.129  17.294  0.00  0.00     0.148 C 
HETATM   32  O   UNK N   1      35.085  13.338  17.228  0.00  0.00    -0.649 OA
BRANCH  31  33
HETATM   33  O   UNK N   1      35.286  11.530  18.499  0.00  0.00    -0.776 OA
HETATM   34  H   UNK N   1      35.200  10.643  18.792  0.00  0.00     0.167 HD
ENDBRANCH  31  33
ENDBRANCH  20  31
BRANCH   3  35
HETATM   35  O   UNK N   1      34.599  16.501   5.393  0.00  0.00    -0.395 OA
HETATM   36  H   UNK N   1      35.383  17.070   5.357  0.00  0.00     0.210 HD
ENDBRANCH   3  35
TORSDOF 3
ENDMDL
