REMARK  3 active torsions:
REMARK  status: ('A' for Active; 'I' for Inactive)
REMARK    1  A    between atoms: C_3  and  O_33 
REMARK    2  A    between atoms: C_20  and  C_30 
REMARK    3  A    between atoms: O_32  and  C_30 
ROOT
HETATM    1  C   UNK N   1       2.100  -4.063   0.150  0.00  0.00     0.013 C 
HETATM    2  C   UNK N   1       1.391  -4.872  -0.917  0.00  0.00     0.033 C 
HETATM    3  C   UNK N   1       1.066  -6.237  -0.336  0.00  0.00     0.126 C 
HETATM    4  C   UNK N   1       2.372  -7.013  -0.071  0.00  0.00    -0.017 C 
HETATM    5  C   UNK N   1       3.198  -6.222   1.000  0.00  0.00     0.005 C 
HETATM    6  C   UNK N   1       4.531  -6.920   1.382  0.00  0.00     0.007 C 
HETATM    7  C   UNK N   1       5.727  -6.589   0.460  0.00  0.00     0.011 C 
HETATM    8  C   UNK N   1       5.970  -5.069   0.393  0.00  0.00    -0.021 C 
HETATM    9  C   UNK N   1       4.658  -4.448  -0.235  0.00  0.00     0.077 C 
HETATM   10  C   UNK N   1       3.401  -4.688   0.697  0.00  0.00    -0.028 C 
HETATM   11  C   UNK N   1       4.872  -2.991  -0.609  0.00  0.00     0.155 C 
HETATM   12  C   UNK N   1       6.210  -2.381  -0.560  0.00  0.00     0.054 C 
HETATM   13  C   UNK N   1       7.336  -3.108  -0.426  0.00  0.00    -0.062 C 
HETATM   14  C   UNK N   1       7.258  -4.649  -0.416  0.00  0.00    -0.012 C 
HETATM   15  C   UNK N   1       8.505  -5.274   0.271  0.00  0.00     0.015 C 
HETATM   16  C   UNK N   1       9.828  -4.520   0.081  0.00  0.00     0.011 C 
HETATM   17  C   UNK N   1       9.704  -3.046   0.485  0.00  0.00    -0.036 C 
HETATM   18  C   UNK N   1       8.683  -2.389  -0.460  0.00  0.00     0.025 C 
HETATM   19  C   UNK N   1       8.543  -0.864  -0.207  0.00  0.00     0.030 C 
HETATM   20  C   UNK N   1       9.809  -0.131   0.283  0.00  0.00     0.042 C 
HETATM   21  C   UNK N   1      11.072  -0.906  -0.113  0.00  0.00     0.021 C 
HETATM   22  C   UNK N   1      11.087  -2.386   0.327  0.00  0.00     0.011 C 
HETATM   23  C   UNK N   1       3.127  -7.235  -1.378  0.00  0.00     0.018 C 
HETATM   24  C   UNK N   1       2.007  -8.386   0.486  0.00  0.00     0.018 C 
HETATM   25  C   UNK N   1       3.568  -3.944   2.020  0.00  0.00     0.016 C 
HETATM   26  C   UNK N   1       6.233  -4.583   1.835  0.00  0.00     0.017 C 
HETATM   27  C   UNK N   1       7.209  -5.149  -1.855  0.00  0.00     0.021 C 
HETATM   28  C   UNK N   1       9.284  -2.952   1.952  0.00  0.00     0.016 C 
HETATM   29  C   UNK N   1       9.740   0.016   1.797  0.00  0.00     0.026 C 
HETATM   30  O   UNK N   1       3.951  -2.335  -1.069  0.00  0.00    -0.293 OA
ENDROOT
BRANCH  20  31
HETATM   31  C   UNK N   1       9.867   1.258  -0.310  0.00  0.00     0.148 C 
HETATM   32  O   UNK N   1      10.787   2.012  -0.012  0.00  0.00    -0.649 OA
BRANCH  31  33
HETATM   33  O   UNK N   1       8.916   1.687  -1.161  0.00  0.00    -0.776 OA
HETATM   34  H   UNK N   1       8.844   2.410  -1.754  0.00  0.00     0.167 HD
ENDBRANCH  31  33
ENDBRANCH  20  31
BRANCH   3  35
HETATM   35  O   UNK N   1       0.199  -6.925  -1.189  0.00  0.00    -0.395 OA
HETATM   36  H   UNK N   1      -0.515  -6.642  -1.781  0.00  0.00     0.210 HD
ENDBRANCH   3  35
TORSDOF 3
