REMARK  5 active torsions:
REMARK  status: ('A' for Active; 'I' for Inactive)
REMARK    1  A    between atoms: C_1  and  C_13 
REMARK    2  A    between atoms: C_6  and  O_20 
REMARK       I    between atoms: C_9  and  N_16 
REMARK    3  A    between atoms: C_9  and  O_19 
REMARK    4  A    between atoms: C_10  and  O_19 
REMARK    5  A    between atoms: C_13  and  S_22 
ROOT
HETATM    1  C   UNK N   1      -1.214  -0.701  -0.185  0.00  0.00     0.166 A 
HETATM    2  C   UNK N   1      -1.146  -2.225  -0.200  0.00  0.00     0.102 A 
HETATM    3  C   UNK N   1       1.291  -2.213   0.084  0.00  0.00     0.060 A 
HETATM    4  C   UNK N   1       1.324  -0.806   0.068  0.00  0.00     0.069 A 
HETATM    5  C   UNK N   1       2.590  -0.184   0.093  0.00  0.00     0.069 A 
HETATM    6  C   UNK N   1       3.780  -0.925   0.142  0.00  0.00     0.070 A 
HETATM    7  C   UNK N   1       3.713  -2.315   0.188  0.00  0.00     0.039 A 
HETATM    8  C   UNK N   1       2.476  -2.955   0.157  0.00  0.00     0.035 A 
HETATM    9  C   UNK N   1       0.123   1.357   0.047  0.00  0.00     0.368 C 
HETATM   10  N   UNK N   1       0.096  -0.029  -0.013  0.00  0.00    -0.279 N 
HETATM   11  N   UNK N   1       0.074  -2.901  -0.012  0.00  0.00    -0.347 N 
HETATM   12  O   UNK N   1       1.172   1.957   0.240  0.00  0.00    -0.238 OA
HETATM   13  S   UNK N   1      -2.330  -3.009  -0.439  0.00  0.00    -0.063 SA
HETATM   14  H   UNK N   1       0.072  -3.884   0.055  0.00  0.00     0.167 HD
ENDROOT
BRANCH   1  15
HETATM   15  C   UNK N   1      -2.184  -0.289   0.945  0.00  0.00     0.106 C 
BRANCH  15  16
HETATM   16  S   UNK N   1      -3.641   0.623   0.312  0.00  0.00    -0.171 SA
HETATM   17  C   UNK N   1      -4.722  -0.832   0.307  0.00  0.00     0.089 C 
ENDBRANCH  15  16
ENDBRANCH   1  15
BRANCH   9  18
HETATM   18  O   UNK N   1      -1.028   2.074  -0.079  0.00  0.00    -0.299 OA
BRANCH  18  19
HETATM   19  C   UNK N   1      -1.114   3.437   0.144  0.00  0.00     0.125 C 
HETATM   20  C   UNK N   1      -2.554   3.882   0.005  0.00  0.00     0.040 C 
HETATM   21  C   UNK N   1      -0.265   4.223  -0.842  0.00  0.00     0.040 C 
ENDBRANCH  18  19
ENDBRANCH   9  18
BRANCH   6  22
HETATM   22  O   UNK N   1       4.992  -0.321   0.128  0.00  0.00    -0.356 OA
HETATM   23  C   UNK N   1       5.153   1.041   0.002  0.00  0.00     0.210 C 
ENDBRANCH   6  22
TORSDOF 5
