MODEL 1
REMARK VINA RESULT:      -5.8      0.000      0.000
REMARK  5 active torsions:
REMARK  status: ('A' for Active; 'I' for Inactive)
REMARK    1  A    between atoms: C_1  and  C_13 
REMARK    2  A    between atoms: C_6  and  O_20 
REMARK       I    between atoms: C_9  and  N_16 
REMARK    3  A    between atoms: C_9  and  O_19 
REMARK    4  A    between atoms: C_10  and  O_19 
REMARK    5  A    between atoms: C_13  and  S_22 
ROOT
HETATM    1  C   UNK N   1      27.537  23.429  -5.780  0.00  0.00     0.166 A 
HETATM    2  C   UNK N   1      26.216  23.502  -6.539  0.00  0.00     0.102 A 
HETATM    3  C   UNK N   1      25.733  25.746  -5.670  0.00  0.00     0.060 A 
HETATM    4  C   UNK N   1      26.914  25.745  -4.905  0.00  0.00     0.069 A 
HETATM    5  C   UNK N   1      27.132  26.839  -4.042  0.00  0.00     0.069 A 
HETATM    6  C   UNK N   1      26.219  27.900  -3.944  0.00  0.00     0.070 A 
HETATM    7  C   UNK N   1      25.074  27.886  -4.737  0.00  0.00     0.039 A 
HETATM    8  C   UNK N   1      24.832  26.814  -5.593  0.00  0.00     0.035 A 
HETATM    9  C   UNK N   1      29.053  24.668  -4.282  0.00  0.00     0.368 C 
HETATM   10  N   UNK N   1      27.853  24.635  -4.978  0.00  0.00    -0.279 N 
HETATM   11  N   UNK N   1      25.414  24.659  -6.495  0.00  0.00    -0.347 N 
HETATM   12  O   UNK N   1      29.384  25.661  -3.648  0.00  0.00    -0.238 OA
HETATM   13  S   UNK N   1      25.741  22.373  -7.295  0.00  0.00    -0.063 SA
HETATM   14  H   UNK N   1      24.609  24.705  -7.061  0.00  0.00     0.167 HD
ENDROOT
BRANCH   1  15
HETATM   15  C   UNK N   1      28.654  23.161  -6.813  0.00  0.00     0.106 C 
BRANCH  15  16
HETATM   16  S   UNK N   1      28.858  24.549  -7.991  0.00  0.00    -0.171 SA
HETATM   17  C   UNK N   1      28.762  23.496  -9.463  0.00  0.00     0.089 C 
ENDBRANCH  15  16
ENDBRANCH   1  15
BRANCH   9  18
HETATM   18  O   UNK N   1      29.900  23.602  -4.319  0.00  0.00    -0.299 OA
BRANCH  18  19
HETATM   19  C   UNK N   1      30.247  22.856  -3.206  0.00  0.00     0.125 C 
HETATM   20  C   UNK N   1      30.448  21.411  -3.609  0.00  0.00     0.040 C 
HETATM   21  C   UNK N   1      29.174  22.917  -2.131  0.00  0.00     0.040 C 
ENDBRANCH  18  19
ENDBRANCH   9  18
BRANCH   6  22
HETATM   22  O   UNK N   1      26.417  28.928  -3.085  0.00  0.00    -0.356 OA
HETATM   23  C   UNK N   1      26.551  30.236  -3.495  0.00  0.00     0.210 C 
ENDBRANCH   6  22
TORSDOF 5
ENDMDL
MODEL 2
REMARK VINA RESULT:      -5.4     11.153     13.334
REMARK  5 active torsions:
REMARK  status: ('A' for Active; 'I' for Inactive)
REMARK    1  A    between atoms: C_1  and  C_13 
REMARK    2  A    between atoms: C_6  and  O_20 
REMARK       I    between atoms: C_9  and  N_16 
REMARK    3  A    between atoms: C_9  and  O_19 
REMARK    4  A    between atoms: C_10  and  O_19 
REMARK    5  A    between atoms: C_13  and  S_22 
ROOT
HETATM    1  C   UNK N   1      22.171  18.538   4.020  0.00  0.00     0.166 A 
HETATM    2  C   UNK N   1      22.279  19.804   3.176  0.00  0.00     0.102 A 
HETATM    3  C   UNK N   1      24.718  19.877   3.429  0.00  0.00     0.060 A 
HETATM    4  C   UNK N   1      24.705  18.735   4.250  0.00  0.00     0.069 A 
HETATM    5  C   UNK N   1      25.928  18.336   4.830  0.00  0.00     0.069 A 
HETATM    6  C   UNK N   1      27.122  19.035   4.599  0.00  0.00     0.070 A 
HETATM    7  C   UNK N   1      27.107  20.144   3.757  0.00  0.00     0.039 A 
HETATM    8  C   UNK N   1      25.912  20.564   3.177  0.00  0.00     0.035 A 
HETATM    9  C   UNK N   1      23.465  16.851   5.267  0.00  0.00     0.368 C 
HETATM   10  N   UNK N   1      23.467  18.020   4.520  0.00  0.00    -0.279 N 
HETATM   11  N   UNK N   1      23.530  20.375   2.877  0.00  0.00    -0.347 N 
HETATM   12  O   UNK N   1      24.513  16.354   5.658  0.00  0.00    -0.238 OA
HETATM   13  S   UNK N   1      21.094  20.464   2.691  0.00  0.00    -0.063 SA
HETATM   14  H   UNK N   1      23.571  21.144   2.263  0.00  0.00     0.167 HD
ENDROOT
BRANCH   1  15
HETATM   15  C   UNK N   1      21.456  17.468   3.165  0.00  0.00     0.106 C 
BRANCH  15  16
HETATM   16  S   UNK N   1      19.726  17.192   3.700  0.00  0.00    -0.171 SA
HETATM   17  C   UNK N   1      19.773  15.405   3.402  0.00  0.00     0.089 C 
ENDBRANCH  15  16
ENDBRANCH   1  15
BRANCH   9  18
HETATM   18  O   UNK N   1      22.294  16.218   5.553  0.00  0.00    -0.299 OA
BRANCH  18  19
HETATM   19  C   UNK N   1      21.832  15.998   6.839  0.00  0.00     0.125 C 
HETATM   20  C   UNK N   1      21.146  14.650   6.906  0.00  0.00     0.040 C 
HETATM   21  C   UNK N   1      20.845  17.068   7.274  0.00  0.00     0.040 C 
ENDBRANCH  18  19
ENDBRANCH   9  18
BRANCH   6  22
HETATM   22  O   UNK N   1      28.284  18.668   5.189  0.00  0.00    -0.356 OA
HETATM   23  C   UNK N   1      28.372  18.300   6.513  0.00  0.00     0.210 C 
ENDBRANCH   6  22
TORSDOF 5
ENDMDL
MODEL 3
REMARK VINA RESULT:      -5.4     11.021     12.619
REMARK  5 active torsions:
REMARK  status: ('A' for Active; 'I' for Inactive)
REMARK    1  A    between atoms: C_1  and  C_13 
REMARK    2  A    between atoms: C_6  and  O_20 
REMARK       I    between atoms: C_9  and  N_16 
REMARK    3  A    between atoms: C_9  and  O_19 
REMARK    4  A    between atoms: C_10  and  O_19 
REMARK    5  A    between atoms: C_13  and  S_22 
ROOT
HETATM    1  C   UNK N   1      23.775  17.200   5.556  0.00  0.00     0.166 A 
HETATM    2  C   UNK N   1      22.629  16.209   5.733  0.00  0.00     0.102 A 
HETATM    3  C   UNK N   1      21.213  17.417   4.135  0.00  0.00     0.060 A 
HETATM    4  C   UNK N   1      22.202  18.399   3.943  0.00  0.00     0.069 A 
HETATM    5  C   UNK N   1      21.873  19.505   3.131  0.00  0.00     0.069 A 
HETATM    6  C   UNK N   1      20.615  19.631   2.523  0.00  0.00     0.070 A 
HETATM    7  C   UNK N   1      19.668  18.628   2.708  0.00  0.00     0.039 A 
HETATM    8  C   UNK N   1      19.964  17.528   3.511  0.00  0.00     0.035 A 
HETATM    9  C   UNK N   1      24.501  19.220   4.344  0.00  0.00     0.368 C 
HETATM   10  N   UNK N   1      23.500  18.293   4.593  0.00  0.00    -0.279 N 
HETATM   11  N   UNK N   1      21.442  16.328   4.986  0.00  0.00    -0.347 N 
HETATM   12  O   UNK N   1      24.343  20.110   3.520  0.00  0.00    -0.238 OA
HETATM   13  S   UNK N   1      22.725  15.142   6.695  0.00  0.00    -0.063 SA
HETATM   14  H   UNK N   1      20.755  15.626   5.063  0.00  0.00     0.167 HD
ENDROOT
BRANCH   1  15
HETATM   15  C   UNK N   1      25.022  16.398   5.120  0.00  0.00     0.106 C 
BRANCH  15  16
HETATM   16  S   UNK N   1      24.812  15.631   3.470  0.00  0.00    -0.171 SA
HETATM   17  C   UNK N   1      26.400  16.234   2.836  0.00  0.00     0.089 C 
ENDBRANCH  15  16
ENDBRANCH   1  15
BRANCH   9  18
HETATM   18  O   UNK N   1      25.694  19.137   4.996  0.00  0.00    -0.299 OA
BRANCH  18  19
HETATM   19  C   UNK N   1      26.704  20.076   4.878  0.00  0.00     0.125 C 
HETATM   20  C   UNK N   1      28.033  19.371   4.714  0.00  0.00     0.040 C 
HETATM   21  C   UNK N   1      26.779  20.978   6.099  0.00  0.00     0.040 C 
ENDBRANCH  18  19
ENDBRANCH   9  18
BRANCH   6  22
HETATM   22  O   UNK N   1      20.294  20.714   1.776  0.00  0.00    -0.356 OA
HETATM   23  C   UNK N   1      20.768  20.915   0.498  0.00  0.00     0.210 C 
ENDBRANCH   6  22
TORSDOF 5
ENDMDL
MODEL 4
REMARK VINA RESULT:      -5.4     18.602     21.825
REMARK  5 active torsions:
REMARK  status: ('A' for Active; 'I' for Inactive)
REMARK    1  A    between atoms: C_1  and  C_13 
REMARK    2  A    between atoms: C_6  and  O_20 
REMARK       I    between atoms: C_9  and  N_16 
REMARK    3  A    between atoms: C_9  and  O_19 
REMARK    4  A    between atoms: C_10  and  O_19 
REMARK    5  A    between atoms: C_13  and  S_22 
ROOT
HETATM    1  C   UNK N   1      37.058  14.141   9.574  0.00  0.00     0.166 A 
HETATM    2  C   UNK N   1      38.167  13.136   9.869  0.00  0.00     0.102 A 
HETATM    3  C   UNK N   1      37.197  12.562  12.048  0.00  0.00     0.060 A 
HETATM    4  C   UNK N   1      36.159  13.496  11.875  0.00  0.00     0.069 A 
HETATM    5  C   UNK N   1      35.274  13.694  12.955  0.00  0.00     0.069 A 
HETATM    6  C   UNK N   1      35.403  12.987  14.160  0.00  0.00     0.070 A 
HETATM    7  C   UNK N   1      36.422  12.046  14.289  0.00  0.00     0.039 A 
HETATM    8  C   UNK N   1      37.315  11.837  13.240  0.00  0.00     0.035 A 
HETATM    9  C   UNK N   1      34.968  15.122  10.440  0.00  0.00     0.368 C 
HETATM   10  N   UNK N   1      36.034  14.256  10.640  0.00  0.00    -0.279 N 
HETATM   11  N   UNK N   1      38.157  12.365  11.046  0.00  0.00    -0.347 N 
HETATM   12  O   UNK N   1      34.070  15.215  11.266  0.00  0.00    -0.238 OA
HETATM   13  S   UNK N   1      39.272  12.977   8.959  0.00  0.00    -0.063 SA
HETATM   14  H   UNK N   1      38.842  11.668  11.169  0.00  0.00     0.167 HD
ENDROOT
BRANCH   1  15
HETATM   15  C   UNK N   1      36.400  13.730   8.238  0.00  0.00     0.106 C 
BRANCH  15  16
HETATM   16  S   UNK N   1      35.582  12.094   8.340  0.00  0.00    -0.171 SA
HETATM   17  C   UNK N   1      34.028  12.672   7.607  0.00  0.00     0.089 C 
ENDBRANCH  15  16
ENDBRANCH   1  15
BRANCH   9  18
HETATM   18  O   UNK N   1      34.889  15.864   9.300  0.00  0.00    -0.299 OA
BRANCH  18  19
HETATM   19  C   UNK N   1      33.888  16.786   9.050  0.00  0.00     0.125 C 
HETATM   20  C   UNK N   1      32.795  16.134   8.230  0.00  0.00     0.040 C 
HETATM   21  C   UNK N   1      34.411  17.993   8.289  0.00  0.00     0.040 C 
ENDBRANCH  18  19
ENDBRANCH   9  18
BRANCH   6  22
HETATM   22  O   UNK N   1      34.572  13.209  15.205  0.00  0.00    -0.356 OA
HETATM   23  C   UNK N   1      34.920  12.950  16.512  0.00  0.00     0.210 C 
ENDBRANCH   6  22
TORSDOF 5
ENDMDL
MODEL 5
REMARK VINA RESULT:      -5.3     13.809     15.757
REMARK  5 active torsions:
REMARK  status: ('A' for Active; 'I' for Inactive)
REMARK    1  A    between atoms: C_1  and  C_13 
REMARK    2  A    between atoms: C_6  and  O_20 
REMARK       I    between atoms: C_9  and  N_16 
REMARK    3  A    between atoms: C_9  and  O_19 
REMARK    4  A    between atoms: C_10  and  O_19 
REMARK    5  A    between atoms: C_13  and  S_22 
ROOT
HETATM    1  C   UNK N   1      33.150  16.303   7.061  0.00  0.00     0.166 A 
HETATM    2  C   UNK N   1      33.303  17.079   8.365  0.00  0.00     0.102 A 
HETATM    3  C   UNK N   1      30.943  17.748   8.355  0.00  0.00     0.060 A 
HETATM    4  C   UNK N   1      30.722  17.090   7.130  0.00  0.00     0.069 A 
HETATM    5  C   UNK N   1      29.453  17.236   6.532  0.00  0.00     0.069 A 
HETATM    6  C   UNK N   1      28.435  17.996   7.127  0.00  0.00     0.070 A 
HETATM    7  C   UNK N   1      28.674  18.609   8.354  0.00  0.00     0.039 A 
HETATM    8  C   UNK N   1      29.921  18.487   8.963  0.00  0.00     0.035 A 
HETATM    9  C   UNK N   1      31.543  15.614   5.322  0.00  0.00     0.368 C 
HETATM   10  N   UNK N   1      31.782  16.324   6.490  0.00  0.00    -0.279 N 
HETATM   11  N   UNK N   1      32.200  17.708   8.972  0.00  0.00    -0.347 N 
HETATM   12  O   UNK N   1      30.420  15.558   4.839  0.00  0.00    -0.238 OA
HETATM   13  S   UNK N   1      34.593  17.211   8.992  0.00  0.00    -0.063 SA
HETATM   14  H   UNK N   1      32.315  18.131   9.855  0.00  0.00     0.167 HD
ENDROOT
BRANCH   1  15
HETATM   15  C   UNK N   1      33.600  14.849   7.328  0.00  0.00     0.106 C 
BRANCH  15  16
HETATM   16  S   UNK N   1      32.644  14.062   8.677  0.00  0.00    -0.171 SA
HETATM   17  C   UNK N   1      34.106  13.376   9.500  0.00  0.00     0.089 C 
ENDBRANCH  15  16
ENDBRANCH   1  15
BRANCH   9  18
HETATM   18  O   UNK N   1      32.555  14.942   4.707  0.00  0.00    -0.299 OA
BRANCH  18  19
HETATM   19  C   UNK N   1      32.883  15.098   3.372  0.00  0.00     0.125 C 
HETATM   20  C   UNK N   1      34.176  14.367   3.080  0.00  0.00     0.040 C 
HETATM   21  C   UNK N   1      33.060  16.562   3.004  0.00  0.00     0.040 C 
ENDBRANCH  18  19
ENDBRANCH   9  18
BRANCH   6  22
HETATM   22  O   UNK N   1      27.232  18.162   6.528  0.00  0.00    -0.356 OA
HETATM   23  C   UNK N   1      26.972  17.758   5.237  0.00  0.00     0.210 C 
ENDBRANCH   6  22
TORSDOF 5
ENDMDL
MODEL 6
REMARK VINA RESULT:      -5.3     18.791     21.579
REMARK  5 active torsions:
REMARK  status: ('A' for Active; 'I' for Inactive)
REMARK    1  A    between atoms: C_1  and  C_13 
REMARK    2  A    between atoms: C_6  and  O_20 
REMARK       I    between atoms: C_9  and  N_16 
REMARK    3  A    between atoms: C_9  and  O_19 
REMARK    4  A    between atoms: C_10  and  O_19 
REMARK    5  A    between atoms: C_13  and  S_22 
ROOT
HETATM    1  C   UNK N   1      35.133  12.022  11.949  0.00  0.00     0.166 A 
HETATM    2  C   UNK N   1      34.333  11.305  10.867  0.00  0.00     0.102 A 
HETATM    3  C   UNK N   1      33.962  13.389   9.627  0.00  0.00     0.060 A 
HETATM    4  C   UNK N   1      34.653  14.135  10.600  0.00  0.00     0.069 A 
HETATM    5  C   UNK N   1      34.671  15.538  10.453  0.00  0.00     0.069 A 
HETATM    6  C   UNK N   1      34.037  16.180   9.379  0.00  0.00     0.070 A 
HETATM    7  C   UNK N   1      33.389  15.412   8.416  0.00  0.00     0.039 A 
HETATM    8  C   UNK N   1      33.349  14.025   8.540  0.00  0.00     0.035 A 
HETATM    9  C   UNK N   1      36.031  14.208  12.653  0.00  0.00     0.368 C 
HETATM   10  N   UNK N   1      35.287  13.481  11.735  0.00  0.00    -0.279 N 
HETATM   11  N   UNK N   1      33.840  11.998   9.746  0.00  0.00    -0.347 N 
HETATM   12  O   UNK N   1      36.231  15.404  12.493  0.00  0.00    -0.238 OA
HETATM   13  S   UNK N   1      34.035   9.901  10.985  0.00  0.00    -0.063 SA
HETATM   14  H   UNK N   1      33.398  11.492   9.026  0.00  0.00     0.167 HD
ENDROOT
BRANCH   1  15
HETATM   15  C   UNK N   1      36.518  11.341  12.034  0.00  0.00     0.106 C 
BRANCH  15  16
HETATM   16  S   UNK N   1      37.489  11.548  10.494  0.00  0.00    -0.171 SA
HETATM   17  C   UNK N   1      38.161   9.864  10.529  0.00  0.00     0.089 C 
ENDBRANCH  15  16
ENDBRANCH   1  15
BRANCH   9  18
HETATM   18  O   UNK N   1      36.579  13.591  13.737  0.00  0.00    -0.299 OA
BRANCH  18  19
HETATM   19  C   UNK N   1      36.165  13.812  15.039  0.00  0.00     0.125 C 
HETATM   20  C   UNK N   1      37.143  14.738  15.730  0.00  0.00     0.040 C 
HETATM   21  C   UNK N   1      36.080  12.516  15.830  0.00  0.00     0.040 C 
ENDBRANCH  18  19
ENDBRANCH   9  18
BRANCH   6  22
HETATM   22  O   UNK N   1      34.028  17.530   9.265  0.00  0.00    -0.356 OA
HETATM   23  C   UNK N   1      34.442  18.193   8.131  0.00  0.00     0.210 C 
ENDBRANCH   6  22
TORSDOF 5
ENDMDL
MODEL 7
REMARK VINA RESULT:      -5.2     14.094     15.515
REMARK  5 active torsions:
REMARK  status: ('A' for Active; 'I' for Inactive)
REMARK    1  A    between atoms: C_1  and  C_13 
REMARK    2  A    between atoms: C_6  and  O_20 
REMARK       I    between atoms: C_9  and  N_16 
REMARK    3  A    between atoms: C_9  and  O_19 
REMARK    4  A    between atoms: C_10  and  O_19 
REMARK    5  A    between atoms: C_13  and  S_22 
ROOT
HETATM    1  C   UNK N   1      20.110  14.437   5.536  0.00  0.00     0.166 A 
HETATM    2  C   UNK N   1      19.458  14.075   4.205  0.00  0.00     0.102 A 
HETATM    3  C   UNK N   1      19.976  16.273   3.246  0.00  0.00     0.060 A 
HETATM    4  C   UNK N   1      20.561  16.704   4.451  0.00  0.00     0.069 A 
HETATM    5  C   UNK N   1      20.981  18.048   4.528  0.00  0.00     0.069 A 
HETATM    6  C   UNK N   1      20.837  18.933   3.449  0.00  0.00     0.070 A 
HETATM    7  C   UNK N   1      20.282  18.469   2.259  0.00  0.00     0.039 A 
HETATM    8  C   UNK N   1      19.852  17.148   2.159  0.00  0.00     0.035 A 
HETATM    9  C   UNK N   1      21.333  16.202   6.748  0.00  0.00     0.368 C 
HETATM   10  N   UNK N   1      20.688  15.801   5.586  0.00  0.00    -0.279 N 
HETATM   11  N   UNK N   1      19.469  14.973   3.121  0.00  0.00    -0.347 N 
HETATM   12  O   UNK N   1      21.872  17.298   6.821  0.00  0.00    -0.238 OA
HETATM   13  S   UNK N   1      18.785  12.813   4.038  0.00  0.00    -0.063 SA
HETATM   14  H   UNK N   1      19.112  14.678   2.251  0.00  0.00     0.167 HD
ENDROOT
BRANCH   1  15
HETATM   15  C   UNK N   1      21.199  13.379   5.824  0.00  0.00     0.106 C 
BRANCH  15  16
HETATM   16  S   UNK N   1      22.570  13.445   4.611  0.00  0.00    -0.171 SA
HETATM   17  C   UNK N   1      22.486  11.679   4.212  0.00  0.00     0.089 C 
ENDBRANCH  15  16
ENDBRANCH   1  15
BRANCH   9  18
HETATM   18  O   UNK N   1      21.402  15.365   7.820  0.00  0.00    -0.299 OA
BRANCH  18  19
HETATM   19  C   UNK N   1      20.705  15.565   8.999  0.00  0.00     0.125 C 
HETATM   20  C   UNK N   1      20.404  14.228   9.641  0.00  0.00     0.040 C 
HETATM   21  C   UNK N   1      19.395  16.297   8.760  0.00  0.00     0.040 C 
ENDBRANCH  18  19
ENDBRANCH   9  18
BRANCH   6  22
HETATM   22  O   UNK N   1      21.208  20.232   3.543  0.00  0.00    -0.356 OA
HETATM   23  C   UNK N   1      21.425  21.035   2.445  0.00  0.00     0.210 C 
ENDBRANCH   6  22
TORSDOF 5
ENDMDL
MODEL 8
REMARK VINA RESULT:      -5.2     11.654     14.711
REMARK  5 active torsions:
REMARK  status: ('A' for Active; 'I' for Inactive)
REMARK    1  A    between atoms: C_1  and  C_13 
REMARK    2  A    between atoms: C_6  and  O_20 
REMARK       I    between atoms: C_9  and  N_16 
REMARK    3  A    between atoms: C_9  and  O_19 
REMARK    4  A    between atoms: C_10  and  O_19 
REMARK    5  A    between atoms: C_13  and  S_22 
ROOT
HETATM    1  C   UNK N   1      27.724  17.042   4.787  0.00  0.00     0.166 A 
HETATM    2  C   UNK N   1      28.186  15.744   4.133  0.00  0.00     0.102 A 
HETATM    3  C   UNK N   1      30.075  15.524   5.683  0.00  0.00     0.060 A 
HETATM    4  C   UNK N   1      29.743  16.735   6.319  0.00  0.00     0.069 A 
HETATM    5  C   UNK N   1      30.623  17.212   7.313  0.00  0.00     0.069 A 
HETATM    6  C   UNK N   1      31.784  16.512   7.674  0.00  0.00     0.070 A 
HETATM    7  C   UNK N   1      32.069  15.301   7.048  0.00  0.00     0.039 A 
HETATM    8  C   UNK N   1      31.220  14.811   6.057  0.00  0.00     0.035 A 
HETATM    9  C   UNK N   1      28.188  18.638   6.608  0.00  0.00     0.368 C 
HETATM   10  N   UNK N   1      28.556  17.484   5.931  0.00  0.00    -0.279 N 
HETATM   11  N   UNK N   1      29.288  15.027   4.636  0.00  0.00    -0.347 N 
HETATM   12  O   UNK N   1      28.811  19.016   7.591  0.00  0.00    -0.238 OA
HETATM   13  S   UNK N   1      27.521  15.237   2.961  0.00  0.00    -0.063 SA
HETATM   14  H   UNK N   1      29.510  14.151   4.243  0.00  0.00     0.167 HD
ENDROOT
BRANCH   1  15
HETATM   15  C   UNK N   1      26.258  16.844   5.231  0.00  0.00     0.106 C 
BRANCH  15  16
HETATM   16  S   UNK N   1      26.084  15.522   6.487  0.00  0.00    -0.171 SA
HETATM   17  C   UNK N   1      24.303  15.316   6.225  0.00  0.00     0.089 C 
ENDBRANCH  15  16
ENDBRANCH   1  15
BRANCH   9  18
HETATM   18  O   UNK N   1      27.103  19.356   6.204  0.00  0.00    -0.299 OA
BRANCH  18  19
HETATM   19  C   UNK N   1      27.185  20.565   5.537  0.00  0.00     0.125 C 
HETATM   20  C   UNK N   1      26.687  21.675   6.438  0.00  0.00     0.040 C 
HETATM   21  C   UNK N   1      26.354  20.562   4.264  0.00  0.00     0.040 C 
ENDBRANCH  18  19
ENDBRANCH   9  18
BRANCH   6  22
HETATM   22  O   UNK N   1      32.643  16.995   8.603  0.00  0.00    -0.356 OA
HETATM   23  C   UNK N   1      33.628  17.912   8.313  0.00  0.00     0.210 C 
ENDBRANCH   6  22
TORSDOF 5
ENDMDL
MODEL 9
REMARK VINA RESULT:      -4.9     21.996     23.944
REMARK  5 active torsions:
REMARK  status: ('A' for Active; 'I' for Inactive)
REMARK    1  A    between atoms: C_1  and  C_13 
REMARK    2  A    between atoms: C_6  and  O_20 
REMARK       I    between atoms: C_9  and  N_16 
REMARK    3  A    between atoms: C_9  and  O_19 
REMARK    4  A    between atoms: C_10  and  O_19 
REMARK    5  A    between atoms: C_13  and  S_22 
ROOT
HETATM    1  C   UNK N   1      35.356  13.281  11.436  0.00  0.00     0.166 A 
HETATM    2  C   UNK N   1      36.023  14.579  11.881  0.00  0.00     0.102 A 
HETATM    3  C   UNK N   1      36.064  13.863  14.228  0.00  0.00     0.060 A 
HETATM    4  C   UNK N   1      35.413  12.656  13.911  0.00  0.00     0.069 A 
HETATM    5  C   UNK N   1      35.048  11.813  14.981  0.00  0.00     0.069 A 
HETATM    6  C   UNK N   1      35.325  12.145  16.315  0.00  0.00     0.070 A 
HETATM    7  C   UNK N   1      35.998  13.332  16.594  0.00  0.00     0.039 A 
HETATM    8  C   UNK N   1      36.363  14.187  15.557  0.00  0.00     0.035 A 
HETATM    9  C   UNK N   1      34.521  11.095  12.212  0.00  0.00     0.368 C 
HETATM   10  N   UNK N   1      35.095  12.317  12.532  0.00  0.00    -0.279 N 
HETATM   11  N   UNK N   1      36.392  14.784  13.224  0.00  0.00    -0.347 N 
HETATM   12  O   UNK N   1      34.334  10.245  13.071  0.00  0.00    -0.238 OA
HETATM   13  S   UNK N   1      36.264  15.640  10.938  0.00  0.00    -0.063 SA
HETATM   14  H   UNK N   1      36.894  15.597  13.464  0.00  0.00     0.167 HD
ENDROOT
BRANCH   1  15
HETATM   15  C   UNK N   1      36.256  12.640  10.357  0.00  0.00     0.106 C 
BRANCH  15  16
HETATM   16  S   UNK N   1      37.890  12.145  11.020  0.00  0.00    -0.171 SA
HETATM   17  C   UNK N   1      38.829  13.056   9.765  0.00  0.00     0.089 C 
ENDBRANCH  15  16
ENDBRANCH   1  15
BRANCH   9  18
HETATM   18  O   UNK N   1      34.184  10.809  10.923  0.00  0.00    -0.299 OA
BRANCH  18  19
HETATM   19  C   UNK N   1      34.035   9.524  10.434  0.00  0.00     0.125 C 
HETATM   20  C   UNK N   1      34.827   9.377   9.152  0.00  0.00     0.040 C 
HETATM   21  C   UNK N   1      32.579   9.196  10.146  0.00  0.00     0.040 C 
ENDBRANCH  18  19
ENDBRANCH   9  18
BRANCH   6  22
HETATM   22  O   UNK N   1      34.938  11.347  17.339  0.00  0.00    -0.356 OA
HETATM   23  C   UNK N   1      35.803  10.895  18.310  0.00  0.00     0.210 C 
ENDBRANCH   6  22
TORSDOF 5
ENDMDL
