MODEL 1
REMARK VINA RESULT:      -6.8      0.000      0.000
REMARK  10 active torsions:
REMARK  status: ('A' for Active; 'I' for Inactive)
REMARK    1  A    between atoms: C_2  and  O_7 
REMARK    2  A    between atoms: C_3  and  O_8 
REMARK    3  A    between atoms: C_5  and  C_9 
REMARK    4  A    between atoms: C_10  and  C_11 
REMARK    5  A    between atoms: C_11  and  C_12 
REMARK    6  A    between atoms: C_12  and  C_14 
REMARK    7  A    between atoms: C_14  and  C_15 
REMARK    8  A    between atoms: C_17  and  C_18 
REMARK    9  A    between atoms: C_20  and  O_24 
REMARK   10  A    between atoms: C_21  and  O_25 
ROOT
HETATM    1  C   UNK N   1      30.361  21.691  -3.355  0.00  0.00     0.165 C 
ENDROOT
BRANCH   1   2
HETATM    2  C   UNK N   1      29.946  22.918  -2.590  0.00  0.00     0.156 C 
HETATM    3  O   UNK N   1      30.298  23.100  -1.435  0.00  0.00    -0.293 OA
BRANCH   2   4
HETATM    4  C   UNK N   1      29.097  23.917  -3.254  0.00  0.00     0.051 C 
HETATM    5  C   UNK N   1      27.765  23.809  -3.213  0.00  0.00     0.015 C 
BRANCH   5   6
HETATM    6  C   UNK N   1      26.872  24.774  -3.856  0.00  0.00    -0.033 A 
HETATM    7  C   UNK N   1      26.699  26.028  -3.267  0.00  0.00     0.051 A 
HETATM    8  C   UNK N   1      25.856  26.984  -3.844  0.00  0.00     0.102 A 
HETATM    9  C   UNK N   1      25.174  26.657  -5.047  0.00  0.00     0.099 A 
HETATM   10  C   UNK N   1      25.353  25.400  -5.630  0.00  0.00     0.040 A 
HETATM   11  C   UNK N   1      26.197  24.462  -5.040  0.00  0.00     0.014 A 
BRANCH   8  12
HETATM   12  O   UNK N   1      25.737  28.181  -3.214  0.00  0.00    -0.353 OA
HETATM   13  C   UNK N   1      26.564  29.265  -3.401  0.00  0.00     0.210 C 
ENDBRANCH   8  12
BRANCH   9  14
HETATM   14  O   UNK N   1      24.352  27.533  -5.647  0.00  0.00    -0.358 OA
HETATM   15  H   UNK N   1      24.083  27.392  -6.533  0.00  0.00     0.217 HD
ENDBRANCH   9  14
ENDBRANCH   5   6
ENDBRANCH   2   4
ENDBRANCH   1   2
BRANCH   1  16
HETATM   16  C   UNK N   1      30.712  21.821  -4.812  0.00  0.00     0.156 C 
HETATM   17  O   UNK N   1      31.791  22.264  -5.171  0.00  0.00    -0.293 OA
BRANCH  16  18
HETATM   18  C   UNK N   1      29.730  21.404  -5.821  0.00  0.00     0.051 C 
HETATM   19  C   UNK N   1      29.008  22.315  -6.481  0.00  0.00     0.015 C 
BRANCH  19  20
HETATM   20  C   UNK N   1      28.015  21.958  -7.496  0.00  0.00    -0.033 A 
HETATM   21  C   UNK N   1      27.053  22.902  -7.859  0.00  0.00     0.051 A 
HETATM   22  C   UNK N   1      26.084  22.607  -8.823  0.00  0.00     0.102 A 
HETATM   23  C   UNK N   1      26.094  21.323  -9.433  0.00  0.00     0.099 A 
HETATM   24  C   UNK N   1      27.060  20.385  -9.063  0.00  0.00     0.040 A 
HETATM   25  C   UNK N   1      28.017  20.697  -8.101  0.00  0.00     0.014 A 
BRANCH  22  26
HETATM   26  O   UNK N   1      25.180  23.574  -9.125  0.00  0.00    -0.353 OA
HETATM   27  C   UNK N   1      25.473  24.901  -9.337  0.00  0.00     0.210 C 
ENDBRANCH  22  26
BRANCH  23  28
HETATM   28  O   UNK N   1      25.189  20.982 -10.365  0.00  0.00    -0.358 OA
HETATM   29  H   UNK N   1      24.646  21.639 -10.754  0.00  0.00     0.217 HD
ENDBRANCH  23  28
ENDBRANCH  19  20
ENDBRANCH  16  18
ENDBRANCH   1  16
TORSDOF 10
ENDMDL
MODEL 2
REMARK VINA RESULT:      -6.7      1.544      5.440
REMARK  10 active torsions:
REMARK  status: ('A' for Active; 'I' for Inactive)
REMARK    1  A    between atoms: C_2  and  O_7 
REMARK    2  A    between atoms: C_3  and  O_8 
REMARK    3  A    between atoms: C_5  and  C_9 
REMARK    4  A    between atoms: C_10  and  C_11 
REMARK    5  A    between atoms: C_11  and  C_12 
REMARK    6  A    between atoms: C_12  and  C_14 
REMARK    7  A    between atoms: C_14  and  C_15 
REMARK    8  A    between atoms: C_17  and  C_18 
REMARK    9  A    between atoms: C_20  and  O_24 
REMARK   10  A    between atoms: C_21  and  O_25 
ROOT
HETATM    1  C   UNK N   1      31.975  22.199  -4.573  0.00  0.00     0.165 C 
ENDROOT
BRANCH   1   2
HETATM    2  C   UNK N   1      31.404  21.055  -5.366  0.00  0.00     0.156 C 
HETATM    3  O   UNK N   1      32.092  20.105  -5.702  0.00  0.00    -0.293 OA
BRANCH   2   4
HETATM    4  C   UNK N   1      29.984  21.089  -5.740  0.00  0.00     0.051 C 
HETATM    5  C   UNK N   1      29.576  21.816  -6.785  0.00  0.00     0.015 C 
BRANCH   5   6
HETATM    6  C   UNK N   1      28.174  21.887  -7.203  0.00  0.00    -0.033 A 
HETATM    7  C   UNK N   1      27.405  22.979  -6.798  0.00  0.00     0.051 A 
HETATM    8  C   UNK N   1      26.061  23.092  -7.172  0.00  0.00     0.102 A 
HETATM    9  C   UNK N   1      25.488  22.069  -7.974  0.00  0.00     0.099 A 
HETATM   10  C   UNK N   1      26.264  20.979  -8.375  0.00  0.00     0.040 A 
HETATM   11  C   UNK N   1      27.600  20.886  -7.992  0.00  0.00     0.014 A 
BRANCH   8  12
HETATM   12  O   UNK N   1      25.377  24.182  -6.741  0.00  0.00    -0.353 OA
HETATM   13  C   UNK N   1      25.703  25.489  -7.021  0.00  0.00     0.210 C 
ENDBRANCH   8  12
BRANCH   9  14
HETATM   14  O   UNK N   1      24.203  22.122  -8.364  0.00  0.00    -0.358 OA
HETATM   15  H   UNK N   1      23.709  22.909  -8.248  0.00  0.00     0.217 HD
ENDBRANCH   9  14
ENDBRANCH   5   6
ENDBRANCH   2   4
ENDBRANCH   1   2
BRANCH   1  16
HETATM   16  C   UNK N   1      31.445  22.470  -3.192  0.00  0.00     0.156 C 
HETATM   17  O   UNK N   1      31.956  21.970  -2.203  0.00  0.00    -0.293 OA
BRANCH  16  18
HETATM   18  C   UNK N   1      30.285  23.358  -3.037  0.00  0.00     0.051 C 
HETATM   19  C   UNK N   1      29.920  24.174  -4.031  0.00  0.00     0.015 C 
BRANCH  19  20
HETATM   20  C   UNK N   1      28.773  25.080  -3.934  0.00  0.00    -0.033 A 
HETATM   21  C   UNK N   1      28.940  26.418  -4.294  0.00  0.00     0.051 A 
HETATM   22  C   UNK N   1      27.875  27.321  -4.217  0.00  0.00     0.102 A 
HETATM   23  C   UNK N   1      26.612  26.853  -3.765  0.00  0.00     0.099 A 
HETATM   24  C   UNK N   1      26.454  25.512  -3.406  0.00  0.00     0.040 A 
HETATM   25  C   UNK N   1      27.527  24.628  -3.489  0.00  0.00     0.014 A 
BRANCH  22  26
HETATM   26  O   UNK N   1      28.111  28.607  -4.584  0.00  0.00    -0.353 OA
HETATM   27  C   UNK N   1      27.895  29.131  -5.837  0.00  0.00     0.210 C 
ENDBRANCH  22  26
BRANCH  23  28
HETATM   28  O   UNK N   1      25.552  27.672  -3.670  0.00  0.00    -0.358 OA
HETATM   29  H   UNK N   1      25.680  28.594  -3.559  0.00  0.00     0.217 HD
ENDBRANCH  23  28
ENDBRANCH  19  20
ENDBRANCH  16  18
ENDBRANCH   1  16
TORSDOF 10
ENDMDL
MODEL 3
REMARK VINA RESULT:      -6.6      1.813      7.335
REMARK  10 active torsions:
REMARK  status: ('A' for Active; 'I' for Inactive)
REMARK    1  A    between atoms: C_2  and  O_7 
REMARK    2  A    between atoms: C_3  and  O_8 
REMARK    3  A    between atoms: C_5  and  C_9 
REMARK    4  A    between atoms: C_10  and  C_11 
REMARK    5  A    between atoms: C_11  and  C_12 
REMARK    6  A    between atoms: C_12  and  C_14 
REMARK    7  A    between atoms: C_14  and  C_15 
REMARK    8  A    between atoms: C_17  and  C_18 
REMARK    9  A    between atoms: C_20  and  O_24 
REMARK   10  A    between atoms: C_21  and  O_25 
ROOT
HETATM    1  C   UNK N   1      26.186  23.886  -9.100  0.00  0.00     0.165 C 
ENDROOT
BRANCH   1   2
HETATM    2  C   UNK N   1      25.569  23.075  -7.994  0.00  0.00     0.156 C 
HETATM    3  O   UNK N   1      24.505  22.496  -8.143  0.00  0.00    -0.293 OA
BRANCH   2   4
HETATM    4  C   UNK N   1      26.269  22.983  -6.705  0.00  0.00     0.051 C 
HETATM    5  C   UNK N   1      27.562  23.307  -6.613  0.00  0.00     0.015 C 
BRANCH   5   6
HETATM    6  C   UNK N   1      28.309  23.234  -5.355  0.00  0.00    -0.033 A 
HETATM    7  C   UNK N   1      29.427  22.400  -5.284  0.00  0.00     0.051 A 
HETATM    8  C   UNK N   1      30.173  22.296  -4.104  0.00  0.00     0.102 A 
HETATM    9  C   UNK N   1      29.773  23.058  -2.973  0.00  0.00     0.099 A 
HETATM   10  C   UNK N   1      28.653  23.889  -3.053  0.00  0.00     0.040 A 
HETATM   11  C   UNK N   1      27.924  23.979  -4.237  0.00  0.00     0.014 A 
BRANCH   8  12
HETATM   12  O   UNK N   1      31.247  21.466  -4.109  0.00  0.00    -0.353 OA
HETATM   13  C   UNK N   1      31.780  20.860  -5.224  0.00  0.00     0.210 C 
ENDBRANCH   8  12
BRANCH   9  14
HETATM   14  O   UNK N   1      30.449  23.000  -1.814  0.00  0.00    -0.358 OA
HETATM   15  H   UNK N   1      30.927  22.226  -1.588  0.00  0.00     0.217 HD
ENDBRANCH   9  14
ENDBRANCH   5   6
ENDBRANCH   2   4
ENDBRANCH   1   2
BRANCH   1  16
HETATM   16  C   UNK N   1      25.736  25.307  -9.306  0.00  0.00     0.156 C 
HETATM   17  O   UNK N   1      25.512  25.750 -10.420  0.00  0.00    -0.293 OA
BRANCH  16  18
HETATM   18  C   UNK N   1      25.566  26.175  -8.134  0.00  0.00     0.051 C 
HETATM   19  C   UNK N   1      26.632  26.638  -7.473  0.00  0.00     0.015 C 
BRANCH  19  20
HETATM   20  C   UNK N   1      26.523  27.506  -6.299  0.00  0.00    -0.033 A 
HETATM   21  C   UNK N   1      27.371  28.610  -6.196  0.00  0.00     0.051 A 
HETATM   22  C   UNK N   1      27.304  29.468  -5.094  0.00  0.00     0.102 A 
HETATM   23  C   UNK N   1      26.354  29.198  -4.073  0.00  0.00     0.099 A 
HETATM   24  C   UNK N   1      25.509  28.091  -4.184  0.00  0.00     0.040 A 
HETATM   25  C   UNK N   1      25.591  27.248  -5.290  0.00  0.00     0.014 A 
BRANCH  22  26
HETATM   26  O   UNK N   1      28.161  30.522  -5.063  0.00  0.00    -0.353 OA
HETATM   27  C   UNK N   1      29.388  30.532  -4.443  0.00  0.00     0.210 C 
ENDBRANCH  22  26
BRANCH  23  28
HETATM   28  O   UNK N   1      26.243  29.985  -2.991  0.00  0.00    -0.358 OA
HETATM   29  H   UNK N   1      25.689  30.740  -3.015  0.00  0.00     0.217 HD
ENDBRANCH  23  28
ENDBRANCH  19  20
ENDBRANCH  16  18
ENDBRANCH   1  16
TORSDOF 10
ENDMDL
MODEL 4
REMARK VINA RESULT:      -6.5      1.963      5.776
REMARK  10 active torsions:
REMARK  status: ('A' for Active; 'I' for Inactive)
REMARK    1  A    between atoms: C_2  and  O_7 
REMARK    2  A    between atoms: C_3  and  O_8 
REMARK    3  A    between atoms: C_5  and  C_9 
REMARK    4  A    between atoms: C_10  and  C_11 
REMARK    5  A    between atoms: C_11  and  C_12 
REMARK    6  A    between atoms: C_12  and  C_14 
REMARK    7  A    between atoms: C_14  and  C_15 
REMARK    8  A    between atoms: C_17  and  C_18 
REMARK    9  A    between atoms: C_20  and  O_24 
REMARK   10  A    between atoms: C_21  and  O_25 
ROOT
HETATM    1  C   UNK N   1      26.368  22.309  -7.642  0.00  0.00     0.165 C 
ENDROOT
BRANCH   1   2
HETATM    2  C   UNK N   1      25.818  23.685  -7.903  0.00  0.00     0.156 C 
HETATM    3  O   UNK N   1      25.295  23.973  -8.967  0.00  0.00    -0.293 OA
BRANCH   2   4
HETATM    4  C   UNK N   1      25.918  24.701  -6.846  0.00  0.00     0.051 C 
HETATM    5  C   UNK N   1      26.074  25.992  -7.160  0.00  0.00     0.015 C 
BRANCH   5   6
HETATM    6  C   UNK N   1      26.179  27.046  -6.149  0.00  0.00    -0.033 A 
HETATM    7  C   UNK N   1      27.068  28.100  -6.366  0.00  0.00     0.051 A 
HETATM    8  C   UNK N   1      27.204  29.131  -5.429  0.00  0.00     0.102 A 
HETATM    9  C   UNK N   1      26.417  29.088  -4.247  0.00  0.00     0.099 A 
HETATM   10  C   UNK N   1      25.529  28.029  -4.038  0.00  0.00     0.040 A 
HETATM   11  C   UNK N   1      25.409  27.013  -4.983  0.00  0.00     0.014 A 
BRANCH   8  12
HETATM   12  O   UNK N   1      28.088  30.123  -5.708  0.00  0.00    -0.353 OA
HETATM   13  C   UNK N   1      29.145  30.024  -6.582  0.00  0.00     0.210 C 
ENDBRANCH   8  12
BRANCH   9  14
HETATM   14  O   UNK N   1      26.503  30.048  -3.312  0.00  0.00    -0.358 OA
HETATM   15  H   UNK N   1      26.722  30.925  -3.558  0.00  0.00     0.217 HD
ENDBRANCH   9  14
ENDBRANCH   5   6
ENDBRANCH   2   4
ENDBRANCH   1   2
BRANCH   1  16
HETATM   16  C   UNK N   1      27.833  22.051  -7.868  0.00  0.00     0.156 C 
HETATM   17  O   UNK N   1      28.272  21.794  -8.977  0.00  0.00    -0.293 OA
BRANCH  16  18
HETATM   18  C   UNK N   1      28.750  22.112  -6.722  0.00  0.00     0.051 C 
HETATM   19  C   UNK N   1      29.537  21.071  -6.430  0.00  0.00     0.015 C 
BRANCH  19  20
HETATM   20  C   UNK N   1      30.470  21.075  -5.301  0.00  0.00    -0.033 A 
HETATM   21  C   UNK N   1      30.155  21.827  -4.168  0.00  0.00     0.051 A 
HETATM   22  C   UNK N   1      31.014  21.862  -3.066  0.00  0.00     0.102 A 
HETATM   23  C   UNK N   1      32.222  21.115  -3.115  0.00  0.00     0.099 A 
HETATM   24  C   UNK N   1      32.530  20.366  -4.253  0.00  0.00     0.040 A 
HETATM   25  C   UNK N   1      31.661  20.343  -5.341  0.00  0.00     0.014 A 
BRANCH  22  26
HETATM   26  O   UNK N   1      30.641  22.616  -1.999  0.00  0.00    -0.353 OA
HETATM   27  C   UNK N   1      29.367  23.069  -1.751  0.00  0.00     0.210 C 
ENDBRANCH  22  26
BRANCH  23  28
HETATM   28  O   UNK N   1      33.086  21.110  -2.088  0.00  0.00    -0.358 OA
HETATM   29  H   UNK N   1      33.745  20.446  -2.033  0.00  0.00     0.217 HD
ENDBRANCH  23  28
ENDBRANCH  19  20
ENDBRANCH  16  18
ENDBRANCH   1  16
TORSDOF 10
ENDMDL
MODEL 5
REMARK VINA RESULT:      -6.5     14.147     17.377
REMARK  10 active torsions:
REMARK  status: ('A' for Active; 'I' for Inactive)
REMARK    1  A    between atoms: C_2  and  O_7 
REMARK    2  A    between atoms: C_3  and  O_8 
REMARK    3  A    between atoms: C_5  and  C_9 
REMARK    4  A    between atoms: C_10  and  C_11 
REMARK    5  A    between atoms: C_11  and  C_12 
REMARK    6  A    between atoms: C_12  and  C_14 
REMARK    7  A    between atoms: C_14  and  C_15 
REMARK    8  A    between atoms: C_17  and  C_18 
REMARK    9  A    between atoms: C_20  and  O_24 
REMARK   10  A    between atoms: C_21  and  O_25 
ROOT
HETATM    1  C   UNK N   1      26.398  15.730   6.737  0.00  0.00     0.165 C 
ENDROOT
BRANCH   1   2
HETATM    2  C   UNK N   1      25.838  14.334   6.712  0.00  0.00     0.156 C 
HETATM    3  O   UNK N   1      26.312  13.469   5.994  0.00  0.00    -0.293 OA
BRANCH   2   4
HETATM    4  C   UNK N   1      24.694  14.013   7.575  0.00  0.00     0.051 C 
HETATM    5  C   UNK N   1      24.847  13.207   8.631  0.00  0.00     0.015 C 
BRANCH   5   6
HETATM    6  C   UNK N   1      23.742  12.853   9.525  0.00  0.00    -0.033 A 
HETATM    7  C   UNK N   1      22.463  13.333   9.236  0.00  0.00     0.051 A 
HETATM    8  C   UNK N   1      21.375  13.022  10.060  0.00  0.00     0.102 A 
HETATM    9  C   UNK N   1      21.594  12.206  11.202  0.00  0.00     0.099 A 
HETATM   10  C   UNK N   1      22.877  11.730  11.484  0.00  0.00     0.040 A 
HETATM   11  C   UNK N   1      23.947  12.051  10.651  0.00  0.00     0.014 A 
BRANCH   8  12
HETATM   12  O   UNK N   1      20.161  13.524   9.716  0.00  0.00    -0.353 OA
HETATM   13  C   UNK N   1      19.925  14.805   9.275  0.00  0.00     0.210 C 
ENDBRANCH   8  12
BRANCH   9  14
HETATM   14  O   UNK N   1      20.590  11.874  12.030  0.00  0.00    -0.358 OA
HETATM   15  H   UNK N   1      20.681  12.002  12.953  0.00  0.00     0.217 HD
ENDBRANCH   9  14
ENDBRANCH   5   6
ENDBRANCH   2   4
ENDBRANCH   1   2
BRANCH   1  16
HETATM   16  C   UNK N   1      27.056  16.277   5.499  0.00  0.00     0.156 C 
HETATM   17  O   UNK N   1      26.418  16.499   4.483  0.00  0.00    -0.293 OA
BRANCH  16  18
HETATM   18  C   UNK N   1      28.499  16.549   5.522  0.00  0.00     0.051 C 
HETATM   19  C   UNK N   1      29.109  16.871   6.667  0.00  0.00     0.015 C 
BRANCH  19  20
HETATM   20  C   UNK N   1      30.544  17.152   6.750  0.00  0.00    -0.033 A 
HETATM   21  C   UNK N   1      31.305  17.123   5.580  0.00  0.00     0.051 A 
HETATM   22  C   UNK N   1      32.678  17.385   5.609  0.00  0.00     0.102 A 
HETATM   23  C   UNK N   1      33.292  17.683   6.855  0.00  0.00     0.099 A 
HETATM   24  C   UNK N   1      32.523  17.710   8.021  0.00  0.00     0.040 A 
HETATM   25  C   UNK N   1      31.156  17.446   7.972  0.00  0.00     0.014 A 
BRANCH  22  26
HETATM   26  O   UNK N   1      33.354  17.339   4.432  0.00  0.00    -0.353 OA
HETATM   27  C   UNK N   1      32.915  16.719   3.285  0.00  0.00     0.210 C 
ENDBRANCH  22  26
BRANCH  23  28
HETATM   28  O   UNK N   1      34.606  17.942   6.946  0.00  0.00    -0.358 OA
HETATM   29  H   UNK N   1      35.106  17.592   7.657  0.00  0.00     0.217 HD
ENDBRANCH  23  28
ENDBRANCH  19  20
ENDBRANCH  16  18
ENDBRANCH   1  16
TORSDOF 10
ENDMDL
MODEL 6
REMARK VINA RESULT:      -6.5      1.829      5.983
REMARK  10 active torsions:
REMARK  status: ('A' for Active; 'I' for Inactive)
REMARK    1  A    between atoms: C_2  and  O_7 
REMARK    2  A    between atoms: C_3  and  O_8 
REMARK    3  A    between atoms: C_5  and  C_9 
REMARK    4  A    between atoms: C_10  and  C_11 
REMARK    5  A    between atoms: C_11  and  C_12 
REMARK    6  A    between atoms: C_12  and  C_14 
REMARK    7  A    between atoms: C_14  and  C_15 
REMARK    8  A    between atoms: C_17  and  C_18 
REMARK    9  A    between atoms: C_20  and  O_24 
REMARK   10  A    between atoms: C_21  and  O_25 
ROOT
HETATM    1  C   UNK N   1      26.230  23.900  -9.073  0.00  0.00     0.165 C 
ENDROOT
BRANCH   1   2
HETATM    2  C   UNK N   1      25.766  25.316  -9.278  0.00  0.00     0.156 C 
HETATM    3  O   UNK N   1      25.532  25.756 -10.392  0.00  0.00    -0.293 OA
BRANCH   2   4
HETATM    4  C   UNK N   1      25.593  26.184  -8.105  0.00  0.00     0.051 C 
HETATM    5  C   UNK N   1      26.658  26.682  -7.468  0.00  0.00     0.015 C 
BRANCH   5   6
HETATM    6  C   UNK N   1      26.544  27.551  -6.295  0.00  0.00    -0.033 A 
HETATM    7  C   UNK N   1      27.385  28.661  -6.196  0.00  0.00     0.051 A 
HETATM    8  C   UNK N   1      27.315  29.522  -5.094  0.00  0.00     0.102 A 
HETATM    9  C   UNK N   1      26.367  29.246  -4.072  0.00  0.00     0.099 A 
HETATM   10  C   UNK N   1      25.529  28.133  -4.179  0.00  0.00     0.040 A 
HETATM   11  C   UNK N   1      25.615  27.289  -5.284  0.00  0.00     0.014 A 
BRANCH   8  12
HETATM   12  O   UNK N   1      28.164  30.580  -5.066  0.00  0.00    -0.353 OA
HETATM   13  C   UNK N   1      29.360  30.624  -4.389  0.00  0.00     0.210 C 
ENDBRANCH   8  12
BRANCH   9  14
HETATM   14  O   UNK N   1      26.252  30.035  -2.991  0.00  0.00    -0.358 OA
HETATM   15  H   UNK N   1      26.917  30.665  -2.798  0.00  0.00     0.217 HD
ENDBRANCH   9  14
ENDBRANCH   5   6
ENDBRANCH   2   4
ENDBRANCH   1   2
BRANCH   1  16
HETATM   16  C   UNK N   1      25.590  23.069  -7.995  0.00  0.00     0.156 C 
HETATM   17  O   UNK N   1      24.494  22.555  -8.152  0.00  0.00    -0.293 OA
BRANCH  16  18
HETATM   18  C   UNK N   1      26.305  22.874  -6.727  0.00  0.00     0.051 C 
HETATM   19  C   UNK N   1      27.419  23.567  -6.466  0.00  0.00     0.015 C 
BRANCH  19  20
HETATM   20  C   UNK N   1      28.174  23.415  -5.220  0.00  0.00    -0.033 A 
HETATM   21  C   UNK N   1      29.348  22.662  -5.232  0.00  0.00     0.051 A 
HETATM   22  C   UNK N   1      30.103  22.488  -4.067  0.00  0.00     0.102 A 
HETATM   23  C   UNK N   1      29.654  23.095  -2.864  0.00  0.00     0.099 A 
HETATM   24  C   UNK N   1      28.477  23.848  -2.861  0.00  0.00     0.040 A 
HETATM   25  C   UNK N   1      27.739  24.009  -4.031  0.00  0.00     0.014 A 
BRANCH  22  26
HETATM   26  O   UNK N   1      31.235  21.742  -4.155  0.00  0.00    -0.353 OA
HETATM   27  C   UNK N   1      31.683  21.104  -5.287  0.00  0.00     0.210 C 
ENDBRANCH  22  26
BRANCH  23  28
HETATM   28  O   UNK N   1      30.335  22.964  -1.714  0.00  0.00    -0.358 OA
HETATM   29  H   UNK N   1      30.923  23.639  -1.438  0.00  0.00     0.217 HD
ENDBRANCH  23  28
ENDBRANCH  19  20
ENDBRANCH  16  18
ENDBRANCH   1  16
TORSDOF 10
ENDMDL
MODEL 7
REMARK VINA RESULT:      -6.5      1.739      6.959
REMARK  10 active torsions:
REMARK  status: ('A' for Active; 'I' for Inactive)
REMARK    1  A    between atoms: C_2  and  O_7 
REMARK    2  A    between atoms: C_3  and  O_8 
REMARK    3  A    between atoms: C_5  and  C_9 
REMARK    4  A    between atoms: C_10  and  C_11 
REMARK    5  A    between atoms: C_11  and  C_12 
REMARK    6  A    between atoms: C_12  and  C_14 
REMARK    7  A    between atoms: C_14  and  C_15 
REMARK    8  A    between atoms: C_17  and  C_18 
REMARK    9  A    between atoms: C_20  and  O_24 
REMARK   10  A    between atoms: C_21  and  O_25 
ROOT
HETATM    1  C   UNK N   1      27.532  22.257  -8.458  0.00  0.00     0.165 C 
ENDROOT
BRANCH   1   2
HETATM    2  C   UNK N   1      28.424  21.046  -8.443  0.00  0.00     0.156 C 
HETATM    3  O   UNK N   1      28.440  20.254  -9.371  0.00  0.00    -0.293 OA
BRANCH   2   4
HETATM    4  C   UNK N   1      29.293  20.817  -7.281  0.00  0.00     0.051 C 
HETATM    5  C   UNK N   1      29.608  21.826  -6.462  0.00  0.00     0.015 C 
BRANCH   5   6
HETATM    6  C   UNK N   1      30.470  21.656  -5.290  0.00  0.00    -0.033 A 
HETATM    7  C   UNK N   1      30.100  22.263  -4.089  0.00  0.00     0.051 A 
HETATM    8  C   UNK N   1      30.889  22.130  -2.941  0.00  0.00     0.102 A 
HETATM    9  C   UNK N   1      32.082  21.361  -3.019  0.00  0.00     0.099 A 
HETATM   10  C   UNK N   1      32.445  20.756  -4.225  0.00  0.00     0.040 A 
HETATM   11  C   UNK N   1      31.645  20.901  -5.356  0.00  0.00     0.014 A 
BRANCH   8  12
HETATM   12  O   UNK N   1      30.466  22.749  -1.810  0.00  0.00    -0.353 OA
HETATM   13  C   UNK N   1      29.166  23.108  -1.537  0.00  0.00     0.210 C 
ENDBRANCH   8  12
BRANCH   9  14
HETATM   14  O   UNK N   1      32.881  21.197  -1.951  0.00  0.00    -0.358 OA
HETATM   15  H   UNK N   1      33.395  21.913  -1.635  0.00  0.00     0.217 HD
ENDBRANCH   9  14
ENDBRANCH   5   6
ENDBRANCH   2   4
ENDBRANCH   1   2
BRANCH   1  16
HETATM   16  C   UNK N   1      26.247  22.230  -7.676  0.00  0.00     0.156 C 
HETATM   17  O   UNK N   1      25.499  21.267  -7.712  0.00  0.00    -0.293 OA
BRANCH  16  18
HETATM   18  C   UNK N   1      25.892  23.392  -6.851  0.00  0.00     0.051 C 
HETATM   19  C   UNK N   1      26.768  24.386  -6.670  0.00  0.00     0.015 C 
BRANCH  19  20
HETATM   20  C   UNK N   1      26.469  25.568  -5.859  0.00  0.00    -0.033 A 
HETATM   21  C   UNK N   1      27.463  26.082  -5.024  0.00  0.00     0.051 A 
HETATM   22  C   UNK N   1      27.225  27.208  -4.231  0.00  0.00     0.102 A 
HETATM   23  C   UNK N   1      25.948  27.828  -4.288  0.00  0.00     0.099 A 
HETATM   24  C   UNK N   1      24.959  27.308  -5.126  0.00  0.00     0.040 A 
HETATM   25  C   UNK N   1      25.215  26.185  -5.909  0.00  0.00     0.014 A 
BRANCH  22  26
HETATM   26  O   UNK N   1      28.240  27.651  -3.444  0.00  0.00    -0.353 OA
HETATM   27  C   UNK N   1      29.225  28.528  -3.831  0.00  0.00     0.210 C 
ENDBRANCH  22  26
BRANCH  23  28
HETATM   28  O   UNK N   1      25.660  28.913  -3.550  0.00  0.00    -0.358 OA
HETATM   29  H   UNK N   1      25.751  29.769  -3.920  0.00  0.00     0.217 HD
ENDBRANCH  23  28
ENDBRANCH  19  20
ENDBRANCH  16  18
ENDBRANCH   1  16
TORSDOF 10
ENDMDL
MODEL 8
REMARK VINA RESULT:      -6.3      1.810      5.896
REMARK  10 active torsions:
REMARK  status: ('A' for Active; 'I' for Inactive)
REMARK    1  A    between atoms: C_2  and  O_7 
REMARK    2  A    between atoms: C_3  and  O_8 
REMARK    3  A    between atoms: C_5  and  C_9 
REMARK    4  A    between atoms: C_10  and  C_11 
REMARK    5  A    between atoms: C_11  and  C_12 
REMARK    6  A    between atoms: C_12  and  C_14 
REMARK    7  A    between atoms: C_14  and  C_15 
REMARK    8  A    between atoms: C_17  and  C_18 
REMARK    9  A    between atoms: C_20  and  O_24 
REMARK   10  A    between atoms: C_21  and  O_25 
ROOT
HETATM    1  C   UNK N   1      27.455  21.383  -8.727  0.00  0.00     0.165 C 
ENDROOT
BRANCH   1   2
HETATM    2  C   UNK N   1      26.165  22.141  -8.577  0.00  0.00     0.156 C 
HETATM    3  O   UNK N   1      25.267  22.044  -9.398  0.00  0.00    -0.293 OA
BRANCH   2   4
HETATM    4  C   UNK N   1      25.987  23.018  -7.412  0.00  0.00     0.051 C 
HETATM    5  C   UNK N   1      26.083  24.345  -7.542  0.00  0.00     0.015 C 
BRANCH   5   6
HETATM    6  C   UNK N   1      25.916  25.266  -6.415  0.00  0.00    -0.033 A 
HETATM    7  C   UNK N   1      26.354  24.869  -5.151  0.00  0.00     0.051 A 
HETATM    8  C   UNK N   1      26.216  25.714  -4.043  0.00  0.00     0.102 A 
HETATM    9  C   UNK N   1      25.619  26.990  -4.228  0.00  0.00     0.099 A 
HETATM   10  C   UNK N   1      25.183  27.379  -5.497  0.00  0.00     0.040 A 
HETATM   11  C   UNK N   1      25.330  26.524  -6.586  0.00  0.00     0.014 A 
BRANCH   8  12
HETATM   12  O   UNK N   1      26.666  25.260  -2.845  0.00  0.00    -0.353 OA
HETATM   13  C   UNK N   1      27.303  24.059  -2.637  0.00  0.00     0.210 C 
ENDBRANCH   8  12
BRANCH   9  14
HETATM   14  O   UNK N   1      25.459  27.844  -3.203  0.00  0.00    -0.358 OA
HETATM   15  H   UNK N   1      25.404  27.519  -2.326  0.00  0.00     0.217 HD
ENDBRANCH   9  14
ENDBRANCH   5   6
ENDBRANCH   2   4
ENDBRANCH   1   2
BRANCH   1  16
HETATM   16  C   UNK N   1      28.749  22.146  -8.804  0.00  0.00     0.156 C 
HETATM   17  O   UNK N   1      29.020  22.845  -9.766  0.00  0.00    -0.293 OA
BRANCH  16  18
HETATM   18  C   UNK N   1      29.702  22.044  -7.691  0.00  0.00     0.051 C 
HETATM   19  C   UNK N   1      29.281  21.704  -6.469  0.00  0.00     0.015 C 
BRANCH  19  20
HETATM   20  C   UNK N   1      30.185  21.586  -5.322  0.00  0.00    -0.033 A 
HETATM   21  C   UNK N   1      31.357  20.841  -5.462  0.00  0.00     0.051 A 
HETATM   22  C   UNK N   1      32.251  20.700  -4.396  0.00  0.00     0.102 A 
HETATM   23  C   UNK N   1      31.947  21.331  -3.160  0.00  0.00     0.099 A 
HETATM   24  C   UNK N   1      30.771  22.075  -3.029  0.00  0.00     0.040 A 
HETATM   25  C   UNK N   1      29.893  22.203  -4.102  0.00  0.00     0.014 A 
BRANCH  22  26
HETATM   26  O   UNK N   1      33.370  19.960  -4.606  0.00  0.00    -0.353 OA
HETATM   27  C   UNK N   1      33.676  19.290  -5.767  0.00  0.00     0.210 C 
ENDBRANCH  22  26
BRANCH  23  28
HETATM   28  O   UNK N   1      32.766  21.231  -2.101  0.00  0.00    -0.358 OA
HETATM   29  H   UNK N   1      32.519  21.609  -1.280  0.00  0.00     0.217 HD
ENDBRANCH  23  28
ENDBRANCH  19  20
ENDBRANCH  16  18
ENDBRANCH   1  16
TORSDOF 10
ENDMDL
MODEL 9
REMARK VINA RESULT:      -6.3     15.671     19.875
REMARK  10 active torsions:
REMARK  status: ('A' for Active; 'I' for Inactive)
REMARK    1  A    between atoms: C_2  and  O_7 
REMARK    2  A    between atoms: C_3  and  O_8 
REMARK    3  A    between atoms: C_5  and  C_9 
REMARK    4  A    between atoms: C_10  and  C_11 
REMARK    5  A    between atoms: C_11  and  C_12 
REMARK    6  A    between atoms: C_12  and  C_14 
REMARK    7  A    between atoms: C_14  and  C_15 
REMARK    8  A    between atoms: C_17  and  C_18 
REMARK    9  A    between atoms: C_20  and  O_24 
REMARK   10  A    between atoms: C_21  and  O_25 
ROOT
HETATM    1  C   UNK N   1      34.778  16.610   8.887  0.00  0.00     0.165 C 
ENDROOT
BRANCH   1   2
HETATM    2  C   UNK N   1      34.299  17.917   8.316  0.00  0.00     0.156 C 
HETATM    3  O   UNK N   1      35.000  18.916   8.332  0.00  0.00    -0.293 OA
BRANCH   2   4
HETATM    4  C   UNK N   1      32.954  17.985   7.728  0.00  0.00     0.051 C 
HETATM    5  C   UNK N   1      31.881  17.645   8.450  0.00  0.00     0.015 C 
BRANCH   5   6
HETATM    6  C   UNK N   1      30.519  17.694   7.915  0.00  0.00    -0.033 A 
HETATM    7  C   UNK N   1      30.239  17.021   6.725  0.00  0.00     0.051 A 
HETATM    8  C   UNK N   1      28.952  17.038   6.173  0.00  0.00     0.102 A 
HETATM    9  C   UNK N   1      27.929  17.755   6.850  0.00  0.00     0.099 A 
HETATM   10  C   UNK N   1      28.218  18.426   8.041  0.00  0.00     0.040 A 
HETATM   11  C   UNK N   1      29.505  18.396   8.573  0.00  0.00     0.014 A 
BRANCH   8  12
HETATM   12  O   UNK N   1      28.755  16.361   5.013  0.00  0.00    -0.353 OA
HETATM   13  C   UNK N   1      28.950  16.872   3.751  0.00  0.00     0.210 C 
ENDBRANCH   8  12
BRANCH   9  14
HETATM   14  O   UNK N   1      26.675  17.808   6.370  0.00  0.00    -0.358 OA
HETATM   15  H   UNK N   1      26.033  18.341   6.795  0.00  0.00     0.217 HD
ENDBRANCH   9  14
ENDBRANCH   5   6
ENDBRANCH   2   4
ENDBRANCH   1   2
BRANCH   1  16
HETATM   16  C   UNK N   1      35.260  16.566  10.311  0.00  0.00     0.156 C 
HETATM   17  O   UNK N   1      35.968  17.446  10.773  0.00  0.00    -0.293 OA
BRANCH  16  18
HETATM   18  C   UNK N   1      34.866  15.433  11.160  0.00  0.00     0.051 C 
HETATM   19  C   UNK N   1      35.786  14.756  11.855  0.00  0.00     0.015 C 
BRANCH  19  20
HETATM   20  C   UNK N   1      35.452  13.620  12.716  0.00  0.00    -0.033 A 
HETATM   21  C   UNK N   1      35.716  13.711  14.084  0.00  0.00     0.051 A 
HETATM   22  C   UNK N   1      35.415  12.653  14.946  0.00  0.00     0.102 A 
HETATM   23  C   UNK N   1      34.832  11.475  14.407  0.00  0.00     0.099 A 
HETATM   24  C   UNK N   1      34.570  11.392  13.037  0.00  0.00     0.040 A 
HETATM   25  C   UNK N   1      34.877  12.457  12.194  0.00  0.00     0.014 A 
BRANCH  22  26
HETATM   26  O   UNK N   1      35.701  12.813  16.265  0.00  0.00    -0.353 OA
HETATM   27  C   UNK N   1      34.843  13.326  17.209  0.00  0.00     0.210 C 
ENDBRANCH  22  26
BRANCH  23  28
HETATM   28  O   UNK N   1      34.520  10.426  15.185  0.00  0.00    -0.358 OA
HETATM   29  H   UNK N   1      35.192   9.981  15.663  0.00  0.00     0.217 HD
ENDBRANCH  23  28
ENDBRANCH  19  20
ENDBRANCH  16  18
ENDBRANCH   1  16
TORSDOF 10
ENDMDL
