REMARK  10 active torsions:
REMARK  status: ('A' for Active; 'I' for Inactive)
REMARK    1  A    between atoms: C_2  and  O_7 
REMARK    2  A    between atoms: C_3  and  O_8 
REMARK    3  A    between atoms: C_5  and  C_9 
REMARK    4  A    between atoms: C_10  and  C_11 
REMARK    5  A    between atoms: C_11  and  C_12 
REMARK    6  A    between atoms: C_12  and  C_14 
REMARK    7  A    between atoms: C_14  and  C_15 
REMARK    8  A    between atoms: C_17  and  C_18 
REMARK    9  A    between atoms: C_20  and  O_24 
REMARK   10  A    between atoms: C_21  and  O_25 
ROOT
HETATM    1  C   UNK N   1       0.002   2.502   0.000  0.00  0.00     0.165 C 
ENDROOT
BRANCH   1   2
HETATM    2  C   UNK N   1      -1.295   3.264   0.000  0.00  0.00     0.156 C 
HETATM    3  O   UNK N   1      -1.319   4.484   0.000  0.00  0.00    -0.293 OA
BRANCH   2   4
HETATM    4  C   UNK N   1      -2.559   2.515   0.000  0.00  0.00     0.051 C 
HETATM    5  C   UNK N   1      -2.554   1.178  -0.000  0.00  0.00     0.015 C 
BRANCH   5   6
HETATM    6  C   UNK N   1      -3.783   0.381  -0.000  0.00  0.00    -0.033 A 
HETATM    7  C   UNK N   1      -3.682  -1.011  -0.000  0.00  0.00     0.051 A 
HETATM    8  C   UNK N   1      -4.827  -1.816  -0.000  0.00  0.00     0.102 A 
HETATM    9  C   UNK N   1      -6.102  -1.189   0.000  0.00  0.00     0.099 A 
HETATM   10  C   UNK N   1      -6.194   0.205  -0.000  0.00  0.00     0.040 A 
HETATM   11  C   UNK N   1      -5.042   0.988  -0.000  0.00  0.00     0.014 A 
BRANCH   8  12
HETATM   12  O   UNK N   1      -4.651  -3.162  -0.000  0.00  0.00    -0.353 OA
HETATM   13  C   UNK N   1      -5.660  -4.097   0.000  0.00  0.00     0.210 C 
ENDBRANCH   8  12
BRANCH   9  14
HETATM   14  O   UNK N   1      -7.237  -1.908   0.000  0.00  0.00    -0.358 OA
HETATM   15  H   UNK N   1      -8.067  -1.474   0.000  0.00  0.00     0.217 HD
ENDBRANCH   9  14
ENDBRANCH   5   6
ENDBRANCH   2   4
ENDBRANCH   1   2
BRANCH   1  16
HETATM   16  C   UNK N   1       1.299   3.264  -0.000  0.00  0.00     0.156 C 
HETATM   17  O   UNK N   1       1.322   4.484  -0.000  0.00  0.00    -0.293 OA
BRANCH  16  18
HETATM   18  C   UNK N   1       2.563   2.516  -0.000  0.00  0.00     0.051 C 
HETATM   19  C   UNK N   1       2.558   1.179   0.000  0.00  0.00     0.015 C 
BRANCH  19  20
HETATM   20  C   UNK N   1       3.786   0.381   0.000  0.00  0.00    -0.033 A 
HETATM   21  C   UNK N   1       3.685  -1.011   0.000  0.00  0.00     0.051 A 
HETATM   22  C   UNK N   1       4.829  -1.815   0.000  0.00  0.00     0.102 A 
HETATM   23  C   UNK N   1       6.105  -1.190  -0.000  0.00  0.00     0.099 A 
HETATM   24  C   UNK N   1       6.197   0.204   0.000  0.00  0.00     0.040 A 
HETATM   25  C   UNK N   1       5.046   0.988   0.000  0.00  0.00     0.014 A 
BRANCH  22  26
HETATM   26  O   UNK N   1       4.653  -3.162   0.000  0.00  0.00    -0.353 OA
HETATM   27  C   UNK N   1       5.661  -4.097  -0.000  0.00  0.00     0.210 C 
ENDBRANCH  22  26
BRANCH  23  28
HETATM   28  O   UNK N   1       7.239  -1.909  -0.000  0.00  0.00    -0.358 OA
HETATM   29  H   UNK N   1       7.201  -2.845  -0.000  0.00  0.00     0.217 HD
ENDBRANCH  23  28
ENDBRANCH  19  20
ENDBRANCH  16  18
ENDBRANCH   1  16
TORSDOF 10
