MODEL 1
REMARK VINA RESULT:      -8.1      0.000      0.000
REMARK  5 active torsions:
REMARK  status: ('A' for Active; 'I' for Inactive)
REMARK    1  A    between atoms: C_1  and  C_7 
REMARK    2  A    between atoms: C_7  and  O_8 
REMARK    3  A    between atoms: O_8  and  C_9 
REMARK    4  A    between atoms: N_12  and  C_15 
REMARK    5  A    between atoms: C_17  and  C_26 
REMARK       I    between atoms: C_26  and  N_28 
ROOT
HETATM    1  C   UNK N   1      21.678  14.651   6.259  0.00  0.00     0.093 C 
HETATM    2  C   UNK N   1      22.072  14.543   4.936  0.00  0.00     0.112 C 
HETATM    3  C   UNK N   1      22.342  15.694   4.197  0.00  0.00     0.272 C 
HETATM    4  N   UNK N   1      22.200  16.965   4.770  0.00  0.00    -0.281 N 
HETATM    5  C   UNK N   1      21.663  17.059   6.044  0.00  0.00     0.019 C 
HETATM    6  C   UNK N   1      21.425  15.910   6.799  0.00  0.00     0.063 C 
HETATM    7 Br   UNK N   1      22.347  12.807   4.157  0.00  0.00    -0.042 Br
HETATM    8  O   UNK N   1      22.758  15.559   3.059  0.00  0.00    -0.266 OA
HETATM    9  C   UNK N   1      21.250  18.358   6.658  0.00  0.00     0.069 C 
ENDROOT
BRANCH   4  10
HETATM   10  C   UNK N   1      22.692  18.131   4.019  0.00  0.00     0.049 A 
HETATM   11  C   UNK N   1      24.010  18.583   4.231  0.00  0.00     0.047 A 
HETATM   12  C   UNK N   1      24.468  19.802   3.727  0.00  0.00     0.034 A 
HETATM   13  C   UNK N   1      23.612  20.588   2.958  0.00  0.00     0.017 A 
HETATM   14  C   UNK N   1      22.306  20.174   2.722  0.00  0.00     0.010 A 
HETATM   15  C   UNK N   1      21.823  18.979   3.259  0.00  0.00    -0.035 A 
HETATM   16  C   UNK N   1      20.353  18.764   3.136  0.00  0.00     0.050 C 
BRANCH  12  17
HETATM   17  C   UNK N   1      25.794  20.313   4.129  0.00  0.00     0.251 C 
HETATM   18  O   UNK N   1      26.652  20.515   3.279  0.00  0.00    -0.268 OA
HETATM   19  N   UNK N   1      26.083  20.479   5.443  0.00  0.00    -0.361 N 
HETATM   20  C   UNK N   1      27.394  20.877   5.891  0.00  0.00     0.149 C 
HETATM   21  H   UNK N   1      25.377  20.323   6.111  0.00  0.00     0.162 HD
ENDBRANCH  12  17
ENDBRANCH   4  10
BRANCH   1  22
HETATM   22  O   UNK N   1      21.577  13.526   6.997  0.00  0.00    -0.345 OA
BRANCH  22  23
HETATM   23  C   UNK N   1      21.010  13.474   8.249  0.00  0.00     0.217 C 
BRANCH  23  24
HETATM   24  C   UNK N   1      22.023  13.014   9.231  0.00  0.00     0.005 A 
HETATM   25  C   UNK N   1      21.625  12.560  10.494  0.00  0.00     0.127 A 
HETATM   26  C   UNK N   1      22.587  12.108  11.402  0.00  0.00     0.085 A 
HETATM   27  F   UNK N   1      20.314  12.555  10.844  0.00  0.00    -0.205 F 
HETATM   28  C   UNK N   1      23.940  12.111  11.049  0.00  0.00     0.119 A 
HETATM   29  C   UNK N   1      24.338  12.575   9.793  0.00  0.00     0.043 A 
HETATM   30  F   UNK N   1      24.869  11.660  11.923  0.00  0.00    -0.206 F 
HETATM   31  C   UNK N   1      23.381  13.029   8.888  0.00  0.00     0.015 A 
ENDBRANCH  23  24
ENDBRANCH  22  23
ENDBRANCH   1  22
TORSDOF 5
ENDMDL
MODEL 2
REMARK VINA RESULT:      -7.8      5.021      7.879
REMARK  5 active torsions:
REMARK  status: ('A' for Active; 'I' for Inactive)
REMARK    1  A    between atoms: C_1  and  C_7 
REMARK    2  A    between atoms: C_7  and  O_8 
REMARK    3  A    between atoms: O_8  and  C_9 
REMARK    4  A    between atoms: N_12  and  C_15 
REMARK    5  A    between atoms: C_17  and  C_26 
REMARK       I    between atoms: C_26  and  N_28 
ROOT
HETATM    1  C   UNK N   1      28.926  17.425   4.518  0.00  0.00     0.093 C 
HETATM    2  C   UNK N   1      27.985  16.784   3.730  0.00  0.00     0.112 C 
HETATM    3  C   UNK N   1      26.681  17.274   3.670  0.00  0.00     0.272 C 
HETATM    4  N   UNK N   1      26.302  18.400   4.412  0.00  0.00    -0.281 N 
HETATM    5  C   UNK N   1      27.213  18.938   5.307  0.00  0.00     0.019 C 
HETATM    6  C   UNK N   1      28.528  18.473   5.346  0.00  0.00     0.063 C 
HETATM    7 Br   UNK N   1      28.507  15.286   2.644  0.00  0.00    -0.042 Br
HETATM    8  O   UNK N   1      25.900  16.729   2.909  0.00  0.00    -0.266 OA
HETATM    9  C   UNK N   1      26.845  19.981   6.313  0.00  0.00     0.069 C 
ENDROOT
BRANCH   4  10
HETATM   10  C   UNK N   1      24.982  18.996   4.155  0.00  0.00     0.049 A 
HETATM   11  C   UNK N   1      23.824  18.331   4.606  0.00  0.00     0.047 A 
HETATM   12  C   UNK N   1      22.543  18.717   4.209  0.00  0.00     0.034 A 
HETATM   13  C   UNK N   1      22.390  19.817   3.366  0.00  0.00     0.017 A 
HETATM   14  C   UNK N   1      23.507  20.503   2.905  0.00  0.00     0.010 A 
HETATM   15  C   UNK N   1      24.796  20.098   3.258  0.00  0.00    -0.035 A 
HETATM   16  C   UNK N   1      25.907  20.759   2.516  0.00  0.00     0.050 C 
BRANCH  12  17
HETATM   17  C   UNK N   1      21.379  17.879   4.561  0.00  0.00     0.251 C 
HETATM   18  O   UNK N   1      21.017  17.798   5.728  0.00  0.00    -0.268 OA
HETATM   19  N   UNK N   1      20.765  17.139   3.605  0.00  0.00    -0.361 N 
HETATM   20  C   UNK N   1      19.693  16.229   3.915  0.00  0.00     0.149 C 
HETATM   21  H   UNK N   1      21.062  17.226   2.670  0.00  0.00     0.162 HD
ENDBRANCH  12  17
ENDBRANCH   4  10
BRANCH   1  22
HETATM   22  O   UNK N   1      30.214  17.030   4.438  0.00  0.00    -0.345 OA
BRANCH  22  23
HETATM   23  C   UNK N   1      30.799  16.134   5.301  0.00  0.00     0.217 C 
BRANCH  23  24
HETATM   24  C   UNK N   1      31.798  16.840   6.142  0.00  0.00     0.005 A 
HETATM   25  C   UNK N   1      31.458  17.266   7.432  0.00  0.00     0.127 A 
HETATM   26  C   UNK N   1      32.414  17.908   8.223  0.00  0.00     0.085 A 
HETATM   27  F   UNK N   1      30.208  17.061   7.920  0.00  0.00    -0.205 F 
HETATM   28  C   UNK N   1      33.705  18.124   7.727  0.00  0.00     0.119 A 
HETATM   29  C   UNK N   1      34.039  17.709   6.437  0.00  0.00     0.043 A 
HETATM   30  F   UNK N   1      34.634  18.734   8.498  0.00  0.00    -0.206 F 
HETATM   31  C   UNK N   1      33.086  17.071   5.645  0.00  0.00     0.015 A 
ENDBRANCH  23  24
ENDBRANCH  22  23
ENDBRANCH   1  22
TORSDOF 5
ENDMDL
MODEL 3
REMARK VINA RESULT:      -7.7      5.298      8.028
REMARK  5 active torsions:
REMARK  status: ('A' for Active; 'I' for Inactive)
REMARK    1  A    between atoms: C_1  and  C_7 
REMARK    2  A    between atoms: C_7  and  O_8 
REMARK    3  A    between atoms: O_8  and  C_9 
REMARK    4  A    between atoms: N_12  and  C_15 
REMARK    5  A    between atoms: C_17  and  C_26 
REMARK       I    between atoms: C_26  and  N_28 
ROOT
HETATM    1  C   UNK N   1      28.103  17.123   5.860  0.00  0.00     0.093 C 
HETATM    2  C   UNK N   1      27.672  18.348   6.342  0.00  0.00     0.112 C 
HETATM    3  C   UNK N   1      26.562  18.968   5.769  0.00  0.00     0.272 C 
HETATM    4  N   UNK N   1      25.885  18.376   4.695  0.00  0.00    -0.281 N 
HETATM    5  C   UNK N   1      26.416  17.229   4.130  0.00  0.00     0.019 C 
HETATM    6  C   UNK N   1      27.505  16.587   4.721  0.00  0.00     0.063 C 
HETATM    7 Br   UNK N   1      28.541  19.137   7.866  0.00  0.00    -0.042 Br
HETATM    8  O   UNK N   1      26.167  20.008   6.267  0.00  0.00    -0.266 OA
HETATM    9  C   UNK N   1      25.918  16.648   2.846  0.00  0.00     0.069 C 
ENDROOT
BRANCH   4  10
HETATM   10  C   UNK N   1      24.606  18.964   4.265  0.00  0.00     0.049 A 
HETATM   11  C   UNK N   1      23.401  18.313   4.595  0.00  0.00     0.047 A 
HETATM   12  C   UNK N   1      22.177  18.686   4.037  0.00  0.00     0.034 A 
HETATM   13  C   UNK N   1      22.130  19.761   3.150  0.00  0.00     0.017 A 
HETATM   14  C   UNK N   1      23.296  20.432   2.804  0.00  0.00     0.010 A 
HETATM   15  C   UNK N   1      24.533  20.038   3.320  0.00  0.00    -0.035 A 
HETATM   16  C   UNK N   1      25.726  20.677   2.696  0.00  0.00     0.050 C 
BRANCH  12  17
HETATM   17  C   UNK N   1      20.976  17.859   4.273  0.00  0.00     0.251 C 
HETATM   18  O   UNK N   1      20.006  17.967   3.534  0.00  0.00    -0.268 OA
HETATM   19  N   UNK N   1      20.921  17.044   5.355  0.00  0.00    -0.361 N 
HETATM   20  C   UNK N   1      19.736  16.295   5.687  0.00  0.00     0.149 C 
HETATM   21  H   UNK N   1      21.716  16.962   5.932  0.00  0.00     0.162 HD
ENDBRANCH  12  17
ENDBRANCH   4  10
BRANCH   1  22
HETATM   22  O   UNK N   1      29.075  16.471   6.530  0.00  0.00    -0.345 OA
BRANCH  22  23
HETATM   23  C   UNK N   1      30.200  15.948   5.937  0.00  0.00     0.217 C 
BRANCH  23  24
HETATM   24  C   UNK N   1      31.404  16.633   6.470  0.00  0.00     0.005 A 
HETATM   25  C   UNK N   1      32.491  16.904   5.630  0.00  0.00     0.127 A 
HETATM   26  C   UNK N   1      33.609  17.572   6.139  0.00  0.00     0.085 A 
HETATM   27  F   UNK N   1      32.468  16.524   4.328  0.00  0.00    -0.205 F 
HETATM   28  C   UNK N   1      33.640  17.966   7.481  0.00  0.00     0.119 A 
HETATM   29  C   UNK N   1      32.560  17.685   8.320  0.00  0.00     0.043 A 
HETATM   30  F   UNK N   1      34.716  18.624   7.969  0.00  0.00    -0.206 F 
HETATM   31  C   UNK N   1      31.446  17.017   7.816  0.00  0.00     0.015 A 
ENDBRANCH  23  24
ENDBRANCH  22  23
ENDBRANCH   1  22
TORSDOF 5
ENDMDL
MODEL 4
REMARK VINA RESULT:      -7.6      8.812     11.913
REMARK  5 active torsions:
REMARK  status: ('A' for Active; 'I' for Inactive)
REMARK    1  A    between atoms: C_1  and  C_7 
REMARK    2  A    between atoms: C_7  and  O_8 
REMARK    3  A    between atoms: O_8  and  C_9 
REMARK    4  A    between atoms: N_12  and  C_15 
REMARK    5  A    between atoms: C_17  and  C_26 
REMARK       I    between atoms: C_26  and  N_28 
ROOT
HETATM    1  C   UNK N   1      31.028  16.275   5.939  0.00  0.00     0.093 C 
HETATM    2  C   UNK N   1      31.303  14.922   5.837  0.00  0.00     0.112 C 
HETATM    3  C   UNK N   1      32.467  14.406   6.405  0.00  0.00     0.272 C 
HETATM    4  N   UNK N   1      33.376  15.244   7.064  0.00  0.00    -0.281 N 
HETATM    5  C   UNK N   1      33.160  16.611   7.027  0.00  0.00     0.019 C 
HETATM    6  C   UNK N   1      31.981  17.128   6.490  0.00  0.00     0.063 C 
HETATM    7 Br   UNK N   1      30.029  13.745   5.005  0.00  0.00    -0.042 Br
HETATM    8  O   UNK N   1      32.639  13.200   6.360  0.00  0.00    -0.266 OA
HETATM    9  C   UNK N   1      34.176  17.608   7.486  0.00  0.00     0.069 C 
ENDROOT
BRANCH   4  10
HETATM   10  C   UNK N   1      34.476  14.625   7.820  0.00  0.00     0.049 A 
HETATM   11  C   UNK N   1      34.375  14.514   9.221  0.00  0.00     0.047 A 
HETATM   12  C   UNK N   1      35.461  14.147  10.018  0.00  0.00     0.034 A 
HETATM   13  C   UNK N   1      36.680  13.844   9.415  0.00  0.00     0.017 A 
HETATM   14  C   UNK N   1      36.819  13.936   8.036  0.00  0.00     0.010 A 
HETATM   15  C   UNK N   1      35.753  14.346   7.232  0.00  0.00    -0.035 A 
HETATM   16  C   UNK N   1      36.090  14.633   5.808  0.00  0.00     0.050 C 
BRANCH  12  17
HETATM   17  C   UNK N   1      35.353  14.223  11.490  0.00  0.00     0.251 C 
HETATM   18  O   UNK N   1      34.252  14.313  12.016  0.00  0.00    -0.268 OA
HETATM   19  N   UNK N   1      36.477  14.275  12.247  0.00  0.00    -0.361 N 
HETATM   20  C   UNK N   1      36.427  14.452  13.676  0.00  0.00     0.149 C 
HETATM   21  H   UNK N   1      37.354  14.189  11.806  0.00  0.00     0.162 HD
ENDBRANCH  12  17
ENDBRANCH   4  10
BRANCH   1  22
HETATM   22  O   UNK N   1      29.825  16.723   5.522  0.00  0.00    -0.345 OA
BRANCH  22  23
HETATM   23  C   UNK N   1      28.749  16.925   6.354  0.00  0.00     0.217 C 
BRANCH  23  24
HETATM   24  C   UNK N   1      28.276  18.325   6.219  0.00  0.00     0.005 A 
HETATM   25  C   UNK N   1      27.909  19.058   7.355  0.00  0.00     0.127 A 
HETATM   26  C   UNK N   1      27.488  20.383   7.217  0.00  0.00     0.085 A 
HETATM   27  F   UNK N   1      27.958  18.491   8.587  0.00  0.00    -0.205 F 
HETATM   28  C   UNK N   1      27.434  20.973   5.949  0.00  0.00     0.119 A 
HETATM   29  C   UNK N   1      27.789  20.238   4.817  0.00  0.00     0.043 A 
HETATM   30  F   UNK N   1      27.039  22.260   5.818  0.00  0.00    -0.206 F 
HETATM   31  C   UNK N   1      28.206  18.916   4.951  0.00  0.00     0.015 A 
ENDBRANCH  23  24
ENDBRANCH  22  23
ENDBRANCH   1  22
TORSDOF 5
ENDMDL
MODEL 5
REMARK VINA RESULT:      -7.5     10.450     12.799
REMARK  5 active torsions:
REMARK  status: ('A' for Active; 'I' for Inactive)
REMARK    1  A    between atoms: C_1  and  C_7 
REMARK    2  A    between atoms: C_7  and  O_8 
REMARK    3  A    between atoms: O_8  and  C_9 
REMARK    4  A    between atoms: N_12  and  C_15 
REMARK    5  A    between atoms: C_17  and  C_26 
REMARK       I    between atoms: C_26  and  N_28 
ROOT
HETATM    1  C   UNK N   1      35.455  13.089  10.949  0.00  0.00     0.093 C 
HETATM    2  C   UNK N   1      34.415  12.665  10.140  0.00  0.00     0.112 C 
HETATM    3  C   UNK N   1      33.743  13.584   9.334  0.00  0.00     0.272 C 
HETATM    4  N   UNK N   1      34.095  14.940   9.345  0.00  0.00    -0.281 N 
HETATM    5  C   UNK N   1      35.035  15.371  10.267  0.00  0.00     0.019 C 
HETATM    6  C   UNK N   1      35.732  14.451  11.051  0.00  0.00     0.063 C 
HETATM    7 Br   UNK N   1      33.970  10.796  10.052  0.00  0.00    -0.042 Br
HETATM    8  O   UNK N   1      32.883  13.162   8.580  0.00  0.00    -0.266 OA
HETATM    9  C   UNK N   1      35.313  16.816  10.531  0.00  0.00     0.069 C 
ENDROOT
BRANCH   4  10
HETATM   10  C   UNK N   1      33.500  15.826   8.332  0.00  0.00     0.049 A 
HETATM   11  C   UNK N   1      32.208  16.348   8.544  0.00  0.00     0.047 A 
HETATM   12  C   UNK N   1      31.498  17.005   7.538  0.00  0.00     0.034 A 
HETATM   13  C   UNK N   1      32.091  17.188   6.290  0.00  0.00     0.017 A 
HETATM   14  C   UNK N   1      33.366  16.693   6.043  0.00  0.00     0.010 A 
HETATM   15  C   UNK N   1      34.068  15.993   7.028  0.00  0.00    -0.035 A 
HETATM   16  C   UNK N   1      35.313  15.311   6.571  0.00  0.00     0.050 C 
BRANCH  12  17
HETATM   17  C   UNK N   1      30.084  17.371   7.754  0.00  0.00     0.251 C 
HETATM   18  O   UNK N   1      29.406  17.766   6.814  0.00  0.00    -0.268 OA
HETATM   19  N   UNK N   1      29.564  17.347   9.006  0.00  0.00    -0.361 N 
HETATM   20  C   UNK N   1      28.222  17.792   9.284  0.00  0.00     0.149 C 
HETATM   21  H   UNK N   1      30.121  17.016   9.748  0.00  0.00     0.162 HD
ENDBRANCH  12  17
ENDBRANCH   4  10
BRANCH   1  22
HETATM   22  O   UNK N   1      36.190  12.161  11.596  0.00  0.00    -0.345 OA
BRANCH  22  23
HETATM   23  C   UNK N   1      37.183  12.459  12.500  0.00  0.00     0.217 C 
BRANCH  23  24
HETATM   24  C   UNK N   1      36.640  12.371  13.878  0.00  0.00     0.005 A 
HETATM   25  C   UNK N   1      36.464  13.532  14.641  0.00  0.00     0.127 A 
HETATM   26  C   UNK N   1      35.929  13.438  15.929  0.00  0.00     0.085 A 
HETATM   27  F   UNK N   1      36.809  14.745  14.142  0.00  0.00    -0.205 F 
HETATM   28  C   UNK N   1      35.572  12.190  16.451  0.00  0.00     0.119 A 
HETATM   29  C   UNK N   1      35.759  11.033  15.694  0.00  0.00     0.043 A 
HETATM   30  F   UNK N   1      35.042  12.102  17.693  0.00  0.00    -0.206 F 
HETATM   31  C   UNK N   1      36.295  11.123  14.411  0.00  0.00     0.015 A 
ENDBRANCH  23  24
ENDBRANCH  22  23
ENDBRANCH   1  22
TORSDOF 5
ENDMDL
MODEL 6
REMARK VINA RESULT:      -7.5      5.139      8.392
REMARK  5 active torsions:
REMARK  status: ('A' for Active; 'I' for Inactive)
REMARK    1  A    between atoms: C_1  and  C_7 
REMARK    2  A    between atoms: C_7  and  O_8 
REMARK    3  A    between atoms: O_8  and  C_9 
REMARK    4  A    between atoms: N_12  and  C_15 
REMARK    5  A    between atoms: C_17  and  C_26 
REMARK       I    between atoms: C_26  and  N_28 
ROOT
HETATM    1  C   UNK N   1      25.710  17.298   4.465  0.00  0.00     0.093 C 
HETATM    2  C   UNK N   1      26.414  16.186   4.897  0.00  0.00     0.112 C 
HETATM    3  C   UNK N   1      27.663  16.346   5.496  0.00  0.00     0.272 C 
HETATM    4  N   UNK N   1      28.227  17.619   5.651  0.00  0.00    -0.281 N 
HETATM    5  C   UNK N   1      27.579  18.702   5.081  0.00  0.00     0.019 C 
HETATM    6  C   UNK N   1      26.314  18.552   4.512  0.00  0.00     0.063 C 
HETATM    7 Br   UNK N   1      25.621  14.439   4.764  0.00  0.00    -0.042 Br
HETATM    8  O   UNK N   1      28.220  15.353   5.930  0.00  0.00    -0.266 OA
HETATM    9  C   UNK N   1      28.199  20.059   4.978  0.00  0.00     0.069 C 
ENDROOT
BRANCH   4  10
HETATM   10  C   UNK N   1      29.443  17.750   6.469  0.00  0.00     0.049 A 
HETATM   11  C   UNK N   1      30.697  17.458   5.895  0.00  0.00     0.047 A 
HETATM   12  C   UNK N   1      31.857  17.346   6.663  0.00  0.00     0.034 A 
HETATM   13  C   UNK N   1      31.791  17.562   8.038  0.00  0.00     0.017 A 
HETATM   14  C   UNK N   1      30.575  17.858   8.641  0.00  0.00     0.010 A 
HETATM   15  C   UNK N   1      29.399  17.928   7.890  0.00  0.00    -0.035 A 
HETATM   16  C   UNK N   1      28.135  18.015   8.676  0.00  0.00     0.050 C 
BRANCH  12  17
HETATM   17  C   UNK N   1      33.107  16.861   6.042  0.00  0.00     0.251 C 
HETATM   18  O   UNK N   1      34.109  17.563   6.060  0.00  0.00    -0.268 OA
HETATM   19  N   UNK N   1      33.117  15.676   5.382  0.00  0.00    -0.361 N 
HETATM   20  C   UNK N   1      34.280  15.207   4.673  0.00  0.00     0.149 C 
HETATM   21  H   UNK N   1      32.304  15.119   5.388  0.00  0.00     0.162 HD
ENDBRANCH  12  17
ENDBRANCH   4  10
BRANCH   1  22
HETATM   22  O   UNK N   1      24.441  17.133   4.036  0.00  0.00    -0.345 OA
BRANCH  22  23
HETATM   23  C   UNK N   1      23.335  17.594   4.710  0.00  0.00     0.217 C 
BRANCH  23  24
HETATM   24  C   UNK N   1      22.541  18.470   3.813  0.00  0.00     0.005 A 
HETATM   25  C   UNK N   1      21.287  18.054   3.349  0.00  0.00     0.127 A 
HETATM   26  C   UNK N   1      20.539  18.898   2.524  0.00  0.00     0.085 A 
HETATM   27  F   UNK N   1      20.794  16.837   3.693  0.00  0.00    -0.205 F 
HETATM   28  C   UNK N   1      21.042  20.153   2.164  0.00  0.00     0.119 A 
HETATM   29  C   UNK N   1      22.297  20.563   2.618  0.00  0.00     0.043 A 
HETATM   30  F   UNK N   1      20.312  20.975   1.376  0.00  0.00    -0.206 F 
HETATM   31  C   UNK N   1      23.047  19.721   3.437  0.00  0.00     0.015 A 
ENDBRANCH  23  24
ENDBRANCH  22  23
ENDBRANCH   1  22
TORSDOF 5
ENDMDL
MODEL 7
REMARK VINA RESULT:      -7.5      9.381     11.691
REMARK  5 active torsions:
REMARK  status: ('A' for Active; 'I' for Inactive)
REMARK    1  A    between atoms: C_1  and  C_7 
REMARK    2  A    between atoms: C_7  and  O_8 
REMARK    3  A    between atoms: O_8  and  C_9 
REMARK    4  A    between atoms: N_12  and  C_15 
REMARK    5  A    between atoms: C_17  and  C_26 
REMARK       I    between atoms: C_26  and  N_28 
ROOT
HETATM    1  C   UNK N   1      34.668  14.592   9.693  0.00  0.00     0.093 C 
HETATM    2  C   UNK N   1      33.729  13.895   8.951  0.00  0.00     0.112 C 
HETATM    3  C   UNK N   1      33.078  14.523   7.890  0.00  0.00     0.272 C 
HETATM    4  N   UNK N   1      33.348  15.861   7.574  0.00  0.00    -0.281 N 
HETATM    5  C   UNK N   1      34.176  16.585   8.416  0.00  0.00     0.019 C 
HETATM    6  C   UNK N   1      34.855  15.952   9.457  0.00  0.00     0.063 C 
HETATM    7 Br   UNK N   1      33.404  12.036   9.321  0.00  0.00    -0.042 Br
HETATM    8  O   UNK N   1      32.313  13.857   7.214  0.00  0.00    -0.266 OA
HETATM    9  C   UNK N   1      34.345  18.066   8.314  0.00  0.00     0.069 C 
ENDROOT
BRANCH   4  10
HETATM   10  C   UNK N   1      32.793  16.410   6.327  0.00  0.00     0.049 A 
HETATM   11  C   UNK N   1      31.507  16.986   6.337  0.00  0.00     0.047 A 
HETATM   12  C   UNK N   1      30.833  17.321   5.162  0.00  0.00     0.034 A 
HETATM   13  C   UNK N   1      31.458  17.117   3.933  0.00  0.00     0.017 A 
HETATM   14  C   UNK N   1      32.728  16.556   3.881  0.00  0.00     0.010 A 
HETATM   15  C   UNK N   1      33.394  16.174   5.048  0.00  0.00    -0.035 A 
HETATM   16  C   UNK N   1      34.636  15.374   4.850  0.00  0.00     0.050 C 
BRANCH  12  17
HETATM   17  C   UNK N   1      29.420  17.751   5.220  0.00  0.00     0.251 C 
HETATM   18  O   UNK N   1      28.683  17.304   6.089  0.00  0.00    -0.268 OA
HETATM   19  N   UNK N   1      28.926  18.574   4.262  0.00  0.00    -0.361 N 
HETATM   20  C   UNK N   1      27.533  18.939   4.216  0.00  0.00     0.149 C 
HETATM   21  H   UNK N   1      29.537  18.932   3.578  0.00  0.00     0.162 HD
ENDBRANCH  12  17
ENDBRANCH   4  10
BRANCH   1  22
HETATM   22  O   UNK N   1      35.397  13.919  10.608  0.00  0.00    -0.345 OA
BRANCH  22  23
HETATM   23  C   UNK N   1      35.963  14.500  11.719  0.00  0.00     0.217 C 
BRANCH  23  24
HETATM   24  C   UNK N   1      35.642  13.688  12.919  0.00  0.00     0.005 A 
HETATM   25  C   UNK N   1      36.101  14.084  14.181  0.00  0.00     0.127 A 
HETATM   26  C   UNK N   1      35.772  13.324  15.307  0.00  0.00     0.085 A 
HETATM   27  F   UNK N   1      36.864  15.197  14.320  0.00  0.00    -0.205 F 
HETATM   28  C   UNK N   1      34.987  12.173  15.171  0.00  0.00     0.119 A 
HETATM   29  C   UNK N   1      34.539  11.774  13.911  0.00  0.00     0.043 A 
HETATM   30  F   UNK N   1      34.658  11.446  16.263  0.00  0.00    -0.206 F 
HETATM   31  C   UNK N   1      34.869  12.528  12.787  0.00  0.00     0.015 A 
ENDBRANCH  23  24
ENDBRANCH  22  23
ENDBRANCH   1  22
TORSDOF 5
ENDMDL
MODEL 8
REMARK VINA RESULT:      -7.5     10.711     13.162
REMARK  5 active torsions:
REMARK  status: ('A' for Active; 'I' for Inactive)
REMARK    1  A    between atoms: C_1  and  C_7 
REMARK    2  A    between atoms: C_7  and  O_8 
REMARK    3  A    between atoms: O_8  and  C_9 
REMARK    4  A    between atoms: N_12  and  C_15 
REMARK    5  A    between atoms: C_17  and  C_26 
REMARK       I    between atoms: C_26  and  N_28 
ROOT
HETATM    1  C   UNK N   1      35.092  12.555  11.965  0.00  0.00     0.093 C 
HETATM    2  C   UNK N   1      35.529  13.868  12.018  0.00  0.00     0.112 C 
HETATM    3  C   UNK N   1      35.241  14.738  10.967  0.00  0.00     0.272 C 
HETATM    4  N   UNK N   1      34.530  14.296   9.844  0.00  0.00    -0.281 N 
HETATM    5  C   UNK N   1      34.231  12.947   9.740  0.00  0.00     0.019 C 
HETATM    6  C   UNK N   1      34.486  12.081  10.804  0.00  0.00     0.063 C 
HETATM    7 Br   UNK N   1      36.438  14.512  13.586  0.00  0.00    -0.042 Br
HETATM    8  O   UNK N   1      35.577  15.904  11.082  0.00  0.00    -0.266 OA
HETATM    9  C   UNK N   1      33.691  12.328   8.492  0.00  0.00     0.069 C 
ENDROOT
BRANCH   4  10
HETATM   10  C   UNK N   1      34.075  15.296   8.866  0.00  0.00     0.049 A 
HETATM   11  C   UNK N   1      32.824  15.920   9.045  0.00  0.00     0.047 A 
HETATM   12  C   UNK N   1      32.235  16.703   8.051  0.00  0.00     0.034 A 
HETATM   13  C   UNK N   1      32.914  16.911   6.852  0.00  0.00     0.017 A 
HETATM   14  C   UNK N   1      34.153  16.318   6.639  0.00  0.00     0.010 A 
HETATM   15  C   UNK N   1      34.732  15.495   7.608  0.00  0.00    -0.035 A 
HETATM   16  C   UNK N   1      35.937  14.733   7.171  0.00  0.00     0.050 C 
BRANCH  12  17
HETATM   17  C   UNK N   1      30.848  17.182   8.217  0.00  0.00     0.251 C 
HETATM   18  O   UNK N   1      30.026  16.988   7.331  0.00  0.00    -0.268 OA
HETATM   19  N   UNK N   1      30.511  17.908   9.312  0.00  0.00    -0.361 N 
HETATM   20  C   UNK N   1      29.200  18.484   9.472  0.00  0.00     0.149 C 
HETATM   21  H   UNK N   1      31.183  18.044  10.020  0.00  0.00     0.162 HD
ENDBRANCH  12  17
ENDBRANCH   4  10
BRANCH   1  22
HETATM   22  O   UNK N   1      35.244  11.779  13.058  0.00  0.00    -0.345 OA
BRANCH  22  23
HETATM   23  C   UNK N   1      34.202  11.342  13.842  0.00  0.00     0.217 C 
BRANCH  23  24
HETATM   24  C   UNK N   1      34.560  11.502  15.274  0.00  0.00     0.005 A 
HETATM   25  C   UNK N   1      34.909  10.385  16.042  0.00  0.00     0.127 A 
HETATM   26  C   UNK N   1      35.267  10.552  17.383  0.00  0.00     0.085 A 
HETATM   27  F   UNK N   1      34.902   9.142  15.497  0.00  0.00    -0.205 F 
HETATM   28  C   UNK N   1      35.276  11.830  17.952  0.00  0.00     0.119 A 
HETATM   29  C   UNK N   1      34.916  12.941  17.188  0.00  0.00     0.043 A 
HETATM   30  F   UNK N   1      35.635  11.992  19.246  0.00  0.00    -0.206 F 
HETATM   31  C   UNK N   1      34.556  12.777  15.853  0.00  0.00     0.015 A 
ENDBRANCH  23  24
ENDBRANCH  22  23
ENDBRANCH   1  22
TORSDOF 5
ENDMDL
MODEL 9
REMARK VINA RESULT:      -7.4     14.447     15.902
REMARK  5 active torsions:
REMARK  status: ('A' for Active; 'I' for Inactive)
REMARK    1  A    between atoms: C_1  and  C_7 
REMARK    2  A    between atoms: C_7  and  O_8 
REMARK    3  A    between atoms: O_8  and  C_9 
REMARK    4  A    between atoms: N_12  and  C_15 
REMARK    5  A    between atoms: C_17  and  C_26 
REMARK       I    between atoms: C_26  and  N_28 
ROOT
HETATM    1  C   UNK N   1      29.144  23.314  -6.219  0.00  0.00     0.093 C 
HETATM    2  C   UNK N   1      29.103  24.435  -7.031  0.00  0.00     0.112 C 
HETATM    3  C   UNK N   1      28.472  25.594  -6.583  0.00  0.00     0.272 C 
HETATM    4  N   UNK N   1      27.859  25.637  -5.324  0.00  0.00    -0.281 N 
HETATM    5  C   UNK N   1      27.779  24.466  -4.588  0.00  0.00     0.019 C 
HETATM    6  C   UNK N   1      28.439  23.313  -5.017  0.00  0.00     0.063 C 
HETATM    7 Br   UNK N   1      30.006  24.420  -8.729  0.00  0.00    -0.042 Br
HETATM    8  O   UNK N   1      28.520  26.583  -7.294  0.00  0.00    -0.266 OA
HETATM    9  C   UNK N   1      26.950  24.337  -3.351  0.00  0.00     0.069 C 
ENDROOT
BRANCH   4  10
HETATM   10  C   UNK N   1      27.392  26.936  -4.816  0.00  0.00     0.049 A 
HETATM   11  C   UNK N   1      28.192  27.649  -3.901  0.00  0.00     0.047 A 
HETATM   12  C   UNK N   1      27.719  28.768  -3.213  0.00  0.00     0.034 A 
HETATM   13  C   UNK N   1      26.425  29.224  -3.458  0.00  0.00     0.017 A 
HETATM   14  C   UNK N   1      25.606  28.552  -4.357  0.00  0.00     0.010 A 
HETATM   15  C   UNK N   1      26.053  27.404  -5.017  0.00  0.00    -0.035 A 
HETATM   16  C   UNK N   1      25.012  26.644  -5.766  0.00  0.00     0.050 C 
BRANCH  12  17
HETATM   17  C   UNK N   1      28.532  29.368  -2.136  0.00  0.00     0.251 C 
HETATM   18  O   UNK N   1      29.734  29.532  -2.298  0.00  0.00    -0.268 OA
HETATM   19  N   UNK N   1      27.959  29.658  -0.941  0.00  0.00    -0.361 N 
HETATM   20  C   UNK N   1      28.728  30.148   0.174  0.00  0.00     0.149 C 
HETATM   21  H   UNK N   1      26.988  29.530  -0.833  0.00  0.00     0.162 HD
ENDBRANCH  12  17
ENDBRANCH   4  10
BRANCH   1  22
HETATM   22  O   UNK N   1      29.893  22.262  -6.607  0.00  0.00    -0.345 OA
BRANCH  22  23
HETATM   23  C   UNK N   1      30.035  21.106  -5.875  0.00  0.00     0.217 C 
BRANCH  23  24
HETATM   24  C   UNK N   1      31.351  21.113  -5.190  0.00  0.00     0.005 A 
HETATM   25  C   UNK N   1      31.420  21.232  -3.797  0.00  0.00     0.127 A 
HETATM   26  C   UNK N   1      32.664  21.214  -3.161  0.00  0.00     0.085 A 
HETATM   27  F   UNK N   1      30.289  21.367  -3.059  0.00  0.00    -0.205 F 
HETATM   28  C   UNK N   1      33.835  21.077  -3.916  0.00  0.00     0.119 A 
HETATM   29  C   UNK N   1      33.766  20.969  -5.306  0.00  0.00     0.043 A 
HETATM   30  F   UNK N   1      35.038  21.046  -3.299  0.00  0.00    -0.206 F 
HETATM   31  C   UNK N   1      32.526  20.991  -5.942  0.00  0.00     0.015 A 
ENDBRANCH  23  24
ENDBRANCH  22  23
ENDBRANCH   1  22
TORSDOF 5
ENDMDL
