REMARK  5 active torsions:
REMARK  status: ('A' for Active; 'I' for Inactive)
REMARK    1  A    between atoms: C_1  and  C_7 
REMARK    2  A    between atoms: C_7  and  O_8 
REMARK    3  A    between atoms: O_8  and  C_9 
REMARK    4  A    between atoms: N_12  and  C_15 
REMARK    5  A    between atoms: C_17  and  C_26 
REMARK       I    between atoms: C_26  and  N_28 
ROOT
HETATM    1  C   UNK N   1      -0.772  -1.600  -0.409  0.00  0.00     0.093 C 
HETATM    2  C   UNK N   1      -1.936  -0.857  -0.511  0.00  0.00     0.112 C 
HETATM    3  C   UNK N   1      -1.918   0.505  -0.213  0.00  0.00     0.272 C 
HETATM    4  N   UNK N   1      -0.738   1.132   0.208  0.00  0.00    -0.281 N 
HETATM    5  C   UNK N   1       0.378   0.347   0.447  0.00  0.00     0.019 C 
HETATM    6  C   UNK N   1       0.374  -1.009   0.118  0.00  0.00     0.063 C 
HETATM    7 Br   UNK N   1      -3.546  -1.683  -1.162  0.00  0.00    -0.042 Br
HETATM    8  O   UNK N   1      -2.943   1.142  -0.385  0.00  0.00    -0.266 OA
HETATM    9  C   UNK N   1       1.609   0.866   1.118  0.00  0.00     0.069 C 
ENDROOT
BRANCH   4  10
HETATM   10  C   UNK N   1      -0.723   2.600   0.309  0.00  0.00     0.049 A 
HETATM   11  C   UNK N   1      -1.904   3.280   0.668  0.00  0.00     0.047 A 
HETATM   12  C   UNK N   1      -2.023   4.667   0.567  0.00  0.00     0.034 A 
HETATM   13  C   UNK N   1      -0.932   5.417   0.131  0.00  0.00     0.017 A 
HETATM   14  C   UNK N   1       0.252   4.784  -0.227  0.00  0.00     0.010 A 
HETATM   15  C   UNK N   1       0.368   3.393  -0.174  0.00  0.00    -0.035 A 
HETATM   16  C   UNK N   1       1.593   2.823  -0.804  0.00  0.00     0.050 C 
BRANCH  12  17
HETATM   17  C   UNK N   1      -3.335   5.311   0.781  0.00  0.00     0.251 C 
HETATM   18  O   UNK N   1      -4.283   4.646   1.178  0.00  0.00    -0.268 OA
HETATM   19  N   UNK N   1      -3.506   6.617   0.459  0.00  0.00    -0.361 N 
HETATM   20  C   UNK N   1      -4.790   7.264   0.552  0.00  0.00     0.149 C 
HETATM   21  H   UNK N   1      -2.729   7.139   0.152  0.00  0.00     0.162 HD
ENDBRANCH  12  17
ENDBRANCH   4  10
BRANCH   1  22
HETATM   22  O   UNK N   1      -0.778  -2.874  -0.853  0.00  0.00    -0.345 OA
BRANCH  22  23
HETATM   23  C   UNK N   1       0.358  -3.605  -1.110  0.00  0.00     0.217 C 
BRANCH  23  24
HETATM   24  C   UNK N   1       0.344  -4.843  -0.292  0.00  0.00     0.005 A 
HETATM   25  C   UNK N   1       1.533  -5.338   0.258  0.00  0.00     0.127 A 
HETATM   26  C   UNK N   1       1.503  -6.492   1.046  0.00  0.00     0.085 A 
HETATM   27  F   UNK N   1       2.713  -4.708   0.031  0.00  0.00    -0.205 F 
HETATM   28  C   UNK N   1       0.290  -7.148   1.283  0.00  0.00     0.119 A 
HETATM   29  C   UNK N   1      -0.893  -6.660   0.725  0.00  0.00     0.043 A 
HETATM   30  F   UNK N   1       0.260  -8.257   2.057  0.00  0.00    -0.206 F 
HETATM   31  C   UNK N   1      -0.865  -5.512  -0.064  0.00  0.00     0.015 A 
ENDBRANCH  23  24
ENDBRANCH  22  23
ENDBRANCH   1  22
TORSDOF 5
