REMARK  4 active torsions:
REMARK  status: ('A' for Active; 'I' for Inactive)
REMARK    1  A    between atoms: N_1  and  C_2 
REMARK    2  A    between atoms: C_2  and  C_3 
REMARK    3  A    between atoms: C_3  and  C_4 
REMARK    4  A    between atoms: C_7  and  O_8 
ROOT
HETATM    1  C   UNK N   1      -0.430   0.126  -0.000  0.00  0.00    -0.057 A 
HETATM    2  C   UNK N   1       0.231   1.359  -0.000  0.00  0.00     0.010 A 
HETATM    3  C   UNK N   1       1.630   1.408   0.000  0.00  0.00     0.037 A 
HETATM    4  C   UNK N   1       2.371   0.223  -0.000  0.00  0.00     0.065 A 
HETATM    5  C   UNK N   1       1.718  -1.011  -0.000  0.00  0.00     0.037 A 
HETATM    6  C   UNK N   1       0.323  -1.060  -0.000  0.00  0.00     0.010 A 
ENDROOT
BRANCH   1   7
HETATM    7  C   UNK N   1      -1.932   0.103  -0.000  0.00  0.00     0.057 C 
BRANCH   7   8
HETATM    8  C   UNK N   1      -2.509  -1.307   0.000  0.00  0.00     0.115 C 
BRANCH   8   9
HETATM    9  N   UNK N   1      -3.957  -1.247  -0.000  0.00  0.00    -0.430 N 
HETATM   10  H   UNK N   1      -4.430  -0.343  -0.000  0.00  0.00     0.149 HD
HETATM   11  H   UNK N   1      -4.504  -2.108  -0.000  0.00  0.00     0.149 HD
ENDBRANCH   8   9
ENDBRANCH   7   8
ENDBRANCH   1   7
BRANCH   4  12
HETATM   12  O   UNK N   1       3.713   0.268   0.000  0.00  0.00    -0.361 OA
HETATM   13  H   UNK N   1       4.209  -0.527   0.000  0.00  0.00     0.217 HD
ENDBRANCH   4  12
TORSDOF 4
