MODEL 1
REMARK VINA RESULT:      -4.5      0.000      0.000
REMARK  4 active torsions:
REMARK  status: ('A' for Active; 'I' for Inactive)
REMARK    1  A    between atoms: N_1  and  C_2 
REMARK    2  A    between atoms: C_2  and  C_3 
REMARK    3  A    between atoms: C_3  and  C_4 
REMARK    4  A    between atoms: C_7  and  O_8 
ROOT
HETATM    1  C   UNK N   1      35.683  12.452  16.394  0.00  0.00    -0.057 A 
HETATM    2  C   UNK N   1      35.481  13.740  16.901  0.00  0.00     0.010 A 
HETATM    3  C   UNK N   1      35.228  13.929  18.265  0.00  0.00     0.037 A 
HETATM    4  C   UNK N   1      35.177  12.828  19.125  0.00  0.00     0.065 A 
HETATM    5  C   UNK N   1      35.378  11.540  18.627  0.00  0.00     0.037 A 
HETATM    6  C   UNK N   1      35.630  11.352  17.267  0.00  0.00     0.010 A 
ENDROOT
BRANCH   1   7
HETATM    7  C   UNK N   1      35.952  12.278  14.927  0.00  0.00     0.057 C 
BRANCH   7   8
HETATM    8  C   UNK N   1      35.649  13.529  14.111  0.00  0.00     0.115 C 
BRANCH   8   9
HETATM    9  N   UNK N   1      36.843  13.964  13.414  0.00  0.00    -0.430 N 
HETATM   10  H   UNK N   1      37.587  13.296  13.212  0.00  0.00     0.149 HD
HETATM   11  H   UNK N   1      36.940  14.938  13.126  0.00  0.00     0.149 HD
ENDBRANCH   8   9
ENDBRANCH   7   8
ENDBRANCH   1   7
BRANCH   4  12
HETATM   12  O   UNK N   1      34.935  13.007  20.434  0.00  0.00    -0.361 OA
HETATM   13  H   UNK N   1      35.644  13.173  21.024  0.00  0.00     0.217 HD
ENDBRANCH   4  12
TORSDOF 4
ENDMDL
MODEL 2
REMARK VINA RESULT:      -4.5     11.217     12.103
REMARK  4 active torsions:
REMARK  status: ('A' for Active; 'I' for Inactive)
REMARK    1  A    between atoms: N_1  and  C_2 
REMARK    2  A    between atoms: C_2  and  C_3 
REMARK    3  A    between atoms: C_3  and  C_4 
REMARK    4  A    between atoms: C_7  and  O_8 
ROOT
HETATM    1  C   UNK N   1      30.511  17.354   7.406  0.00  0.00    -0.057 A 
HETATM    2  C   UNK N   1      31.329  17.806   8.447  0.00  0.00     0.010 A 
HETATM    3  C   UNK N   1      32.702  17.980   8.238  0.00  0.00     0.037 A 
HETATM    4  C   UNK N   1      33.260  17.701   6.987  0.00  0.00     0.065 A 
HETATM    5  C   UNK N   1      32.450  17.250   5.944  0.00  0.00     0.037 A 
HETATM    6  C   UNK N   1      31.080  17.076   6.152  0.00  0.00     0.010 A 
ENDROOT
BRANCH   1   7
HETATM    7  C   UNK N   1      29.041  17.176   7.657  0.00  0.00     0.057 C 
BRANCH   7   8
HETATM    8  C   UNK N   1      28.627  17.547   9.076  0.00  0.00     0.115 C 
BRANCH   8   9
HETATM    9  N   UNK N   1      27.622  18.590   9.040  0.00  0.00    -0.430 N 
HETATM   10  H   UNK N   1      27.736  19.428   9.610  0.00  0.00     0.149 HD
HETATM   11  H   UNK N   1      26.800  18.486   8.445  0.00  0.00     0.149 HD
ENDBRANCH   8   9
ENDBRANCH   7   8
ENDBRANCH   1   7
BRANCH   4  12
HETATM   12  O   UNK N   1      34.577  17.867   6.786  0.00  0.00    -0.361 OA
HETATM   13  H   UNK N   1      35.137  18.092   7.502  0.00  0.00     0.217 HD
ENDBRANCH   4  12
TORSDOF 4
ENDMDL
MODEL 3
REMARK VINA RESULT:      -4.5     26.551     27.609
REMARK  4 active torsions:
REMARK  status: ('A' for Active; 'I' for Inactive)
REMARK    1  A    between atoms: N_1  and  C_2 
REMARK    2  A    between atoms: C_2  and  C_3 
REMARK    3  A    between atoms: C_3  and  C_4 
REMARK    4  A    between atoms: C_7  and  O_8 
ROOT
HETATM    1  C   UNK N   1      25.851  25.119  -5.225  0.00  0.00    -0.057 A 
HETATM    2  C   UNK N   1      25.167  26.175  -5.837  0.00  0.00     0.010 A 
HETATM    3  C   UNK N   1      25.066  27.414  -5.195  0.00  0.00     0.037 A 
HETATM    4  C   UNK N   1      25.650  27.600  -3.939  0.00  0.00     0.065 A 
HETATM    5  C   UNK N   1      26.333  26.551  -3.322  0.00  0.00     0.037 A 
HETATM    6  C   UNK N   1      26.434  25.315  -3.962  0.00  0.00     0.010 A 
ENDROOT
BRANCH   1   7
HETATM    7  C   UNK N   1      25.943  23.799  -5.937  0.00  0.00     0.057 C 
BRANCH   7   8
HETATM    8  C   UNK N   1      25.943  23.936  -7.454  0.00  0.00     0.115 C 
BRANCH   8   9
HETATM    9  N   UNK N   1      24.867  23.148  -8.021  0.00  0.00    -0.430 N 
HETATM   10  H   UNK N   1      24.353  22.490  -7.434  0.00  0.00     0.149 HD
HETATM   11  H   UNK N   1      24.622  23.250  -9.006  0.00  0.00     0.149 HD
ENDBRANCH   8   9
ENDBRANCH   7   8
ENDBRANCH   1   7
BRANCH   4  12
HETATM   12  O   UNK N   1      25.554  28.789  -3.321  0.00  0.00    -0.361 OA
HETATM   13  H   UNK N   1      26.323  29.302  -3.170  0.00  0.00     0.217 HD
ENDBRANCH   4  12
TORSDOF 4
ENDMDL
MODEL 4
REMARK VINA RESULT:      -4.3     14.361     15.116
REMARK  4 active torsions:
REMARK  status: ('A' for Active; 'I' for Inactive)
REMARK    1  A    between atoms: N_1  and  C_2 
REMARK    2  A    between atoms: C_2  and  C_3 
REMARK    3  A    between atoms: C_3  and  C_4 
REMARK    4  A    between atoms: C_7  and  O_8 
ROOT
HETATM    1  C   UNK N   1      21.751  13.277  10.118  0.00  0.00    -0.057 A 
HETATM    2  C   UNK N   1      22.935  13.535   9.420  0.00  0.00     0.010 A 
HETATM    3  C   UNK N   1      24.148  13.001   9.870  0.00  0.00     0.037 A 
HETATM    4  C   UNK N   1      24.179  12.207  11.020  0.00  0.00     0.065 A 
HETATM    5  C   UNK N   1      23.000  11.945  11.721  0.00  0.00     0.037 A 
HETATM    6  C   UNK N   1      21.791  12.478  11.272  0.00  0.00     0.010 A 
ENDROOT
BRANCH   1   7
HETATM    7  C   UNK N   1      20.463  13.863   9.612  0.00  0.00     0.057 C 
BRANCH   7   8
HETATM    8  C   UNK N   1      20.653  15.191   8.891  0.00  0.00     0.115 C 
BRANCH   8   9
HETATM    9  N   UNK N   1      19.440  15.980   8.984  0.00  0.00    -0.430 N 
HETATM   10  H   UNK N   1      18.608  15.586   9.423  0.00  0.00     0.149 HD
HETATM   11  H   UNK N   1      19.419  16.930   8.612  0.00  0.00     0.149 HD
ENDBRANCH   8   9
ENDBRANCH   7   8
ENDBRANCH   1   7
BRANCH   4  12
HETATM   12  O   UNK N   1      25.342  11.694  11.453  0.00  0.00    -0.361 OA
HETATM   13  H   UNK N   1      25.348  11.075  12.156  0.00  0.00     0.217 HD
ENDBRANCH   4  12
TORSDOF 4
ENDMDL
MODEL 5
REMARK VINA RESULT:      -4.2     15.103     16.081
REMARK  4 active torsions:
REMARK  status: ('A' for Active; 'I' for Inactive)
REMARK    1  A    between atoms: N_1  and  C_2 
REMARK    2  A    between atoms: C_2  and  C_3 
REMARK    3  A    between atoms: C_3  and  C_4 
REMARK    4  A    between atoms: C_7  and  O_8 
ROOT
HETATM    1  C   UNK N   1      22.153  12.375   9.565  0.00  0.00    -0.057 A 
HETATM    2  C   UNK N   1      22.112  12.329   8.168  0.00  0.00     0.010 A 
HETATM    3  C   UNK N   1      21.326  13.243   7.455  0.00  0.00     0.037 A 
HETATM    4  C   UNK N   1      20.578  14.204   8.141  0.00  0.00     0.065 A 
HETATM    5  C   UNK N   1      20.614  14.256   9.535  0.00  0.00     0.037 A 
HETATM    6  C   UNK N   1      21.398  13.345  10.245  0.00  0.00     0.010 A 
ENDROOT
BRANCH   1   7
HETATM    7  C   UNK N   1      23.005  11.382  10.304  0.00  0.00     0.057 C 
BRANCH   7   8
HETATM    8  C   UNK N   1      23.748  11.993  11.485  0.00  0.00     0.115 C 
BRANCH   8   9
HETATM    9  N   UNK N   1      25.016  12.538  11.042  0.00  0.00    -0.430 N 
HETATM   10  H   UNK N   1      25.529  13.186  11.639  0.00  0.00     0.149 HD
HETATM   11  H   UNK N   1      25.395  12.273  10.133  0.00  0.00     0.149 HD
ENDBRANCH   8   9
ENDBRANCH   7   8
ENDBRANCH   1   7
BRANCH   4  12
HETATM   12  O   UNK N   1      19.824  15.082   7.459  0.00  0.00    -0.361 OA
HETATM   13  H   UNK N   1      19.835  15.989   7.691  0.00  0.00     0.217 HD
ENDBRANCH   4  12
TORSDOF 4
ENDMDL
MODEL 6
REMARK VINA RESULT:      -4.1     13.865     14.572
REMARK  4 active torsions:
REMARK  status: ('A' for Active; 'I' for Inactive)
REMARK    1  A    between atoms: N_1  and  C_2 
REMARK    2  A    between atoms: C_2  and  C_3 
REMARK    3  A    between atoms: C_3  and  C_4 
REMARK    4  A    between atoms: C_7  and  O_8 
ROOT
HETATM    1  C   UNK N   1      22.862  12.025   9.403  0.00  0.00    -0.057 A 
HETATM    2  C   UNK N   1      24.204  12.055   9.797  0.00  0.00     0.010 A 
HETATM    3  C   UNK N   1      24.538  12.108  11.156  0.00  0.00     0.037 A 
HETATM    4  C   UNK N   1      23.529  12.132  12.123  0.00  0.00     0.065 A 
HETATM    5  C   UNK N   1      22.188  12.103  11.737  0.00  0.00     0.037 A 
HETATM    6  C   UNK N   1      21.855  12.049  10.382  0.00  0.00     0.010 A 
ENDROOT
BRANCH   1   7
HETATM    7  C   UNK N   1      22.533  11.967   7.939  0.00  0.00     0.057 C 
BRANCH   7   8
HETATM    8  C   UNK N   1      21.311  12.798   7.566  0.00  0.00     0.115 C 
BRANCH   8   9
HETATM    9  N   UNK N   1      21.704  14.173   7.332  0.00  0.00    -0.430 N 
HETATM   10  H   UNK N   1      22.691  14.429   7.330  0.00  0.00     0.149 HD
HETATM   11  H   UNK N   1      20.993  14.887   7.169  0.00  0.00     0.149 HD
ENDBRANCH   8   9
ENDBRANCH   7   8
ENDBRANCH   1   7
BRANCH   4  12
HETATM   12  O   UNK N   1      23.847  12.184  13.427  0.00  0.00    -0.361 OA
HETATM   13  H   UNK N   1      24.669  11.844  13.723  0.00  0.00     0.217 HD
ENDBRANCH   4  12
TORSDOF 4
ENDMDL
MODEL 7
REMARK VINA RESULT:      -4.1     11.323     11.899
REMARK  4 active torsions:
REMARK  status: ('A' for Active; 'I' for Inactive)
REMARK    1  A    between atoms: N_1  and  C_2 
REMARK    2  A    between atoms: C_2  and  C_3 
REMARK    3  A    between atoms: C_3  and  C_4 
REMARK    4  A    between atoms: C_7  and  O_8 
ROOT
HETATM    1  C   UNK N   1      31.034  17.487   7.597  0.00  0.00    -0.057 A 
HETATM    2  C   UNK N   1      30.976  18.201   8.798  0.00  0.00     0.010 A 
HETATM    3  C   UNK N   1      29.742  18.456   9.407  0.00  0.00     0.037 A 
HETATM    4  C   UNK N   1      28.562  17.996   8.815  0.00  0.00     0.065 A 
HETATM    5  C   UNK N   1      28.613  17.282   7.616  0.00  0.00     0.037 A 
HETATM    6  C   UNK N   1      29.844  17.028   7.009  0.00  0.00     0.010 A 
ENDROOT
BRANCH   1   7
HETATM    7  C   UNK N   1      32.373  17.228   6.965  0.00  0.00     0.057 C 
BRANCH   7   8
HETATM    8  C   UNK N   1      32.270  16.627   5.569  0.00  0.00     0.115 C 
BRANCH   8   9
HETATM    9  N   UNK N   1      32.731  17.586   4.585  0.00  0.00    -0.430 N 
HETATM   10  H   UNK N   1      33.608  18.087   4.733  0.00  0.00     0.149 HD
HETATM   11  H   UNK N   1      32.180  17.760   3.744  0.00  0.00     0.149 HD
ENDBRANCH   8   9
ENDBRANCH   7   8
ENDBRANCH   1   7
BRANCH   4  12
HETATM   12  O   UNK N   1      27.377  18.239   9.397  0.00  0.00    -0.361 OA
HETATM   13  H   UNK N   1      27.304  18.908  10.050  0.00  0.00     0.217 HD
ENDBRANCH   4  12
TORSDOF 4
ENDMDL
MODEL 8
REMARK VINA RESULT:      -4.0     10.458     11.457
REMARK  4 active torsions:
REMARK  status: ('A' for Active; 'I' for Inactive)
REMARK    1  A    between atoms: N_1  and  C_2 
REMARK    2  A    between atoms: C_2  and  C_3 
REMARK    3  A    between atoms: C_3  and  C_4 
REMARK    4  A    between atoms: C_7  and  O_8 
ROOT
HETATM    1  C   UNK N   1      31.051  17.516   7.683  0.00  0.00    -0.057 A 
HETATM    2  C   UNK N   1      29.883  17.039   7.079  0.00  0.00     0.010 A 
HETATM    3  C   UNK N   1      28.635  17.295   7.659  0.00  0.00     0.037 A 
HETATM    4  C   UNK N   1      28.553  18.030   8.845  0.00  0.00     0.065 A 
HETATM    5  C   UNK N   1      29.715  18.509   9.453  0.00  0.00     0.037 A 
HETATM    6  C   UNK N   1      30.959  18.254   8.875  0.00  0.00     0.010 A 
ENDROOT
BRANCH   1   7
HETATM    7  C   UNK N   1      32.377  17.226   7.039  0.00  0.00     0.057 C 
BRANCH   7   8
HETATM    8  C   UNK N   1      33.167  16.140   7.758  0.00  0.00     0.115 C 
BRANCH   8   9
HETATM    9  N   UNK N   1      34.562  16.525   7.851  0.00  0.00    -0.430 N 
HETATM   10  H   UNK N   1      35.209  15.965   8.406  0.00  0.00     0.149 HD
HETATM   11  H   UNK N   1      34.896  17.355   7.361  0.00  0.00     0.149 HD
ENDBRANCH   8   9
ENDBRANCH   7   8
ENDBRANCH   1   7
BRANCH   4  12
HETATM   12  O   UNK N   1      27.357  18.277   9.403  0.00  0.00    -0.361 OA
HETATM   13  H   UNK N   1      27.009  17.690  10.046  0.00  0.00     0.217 HD
ENDBRANCH   4  12
TORSDOF 4
ENDMDL
MODEL 9
REMARK VINA RESULT:      -4.0     10.314     12.645
REMARK  4 active torsions:
REMARK  status: ('A' for Active; 'I' for Inactive)
REMARK    1  A    between atoms: N_1  and  C_2 
REMARK    2  A    between atoms: C_2  and  C_3 
REMARK    3  A    between atoms: C_3  and  C_4 
REMARK    4  A    between atoms: C_7  and  O_8 
ROOT
HETATM    1  C   UNK N   1      33.102  17.403   6.543  0.00  0.00    -0.057 A 
HETATM    2  C   UNK N   1      31.775  17.183   6.929  0.00  0.00     0.010 A 
HETATM    3  C   UNK N   1      30.758  17.148   5.967  0.00  0.00     0.037 A 
HETATM    4  C   UNK N   1      31.067  17.332   4.616  0.00  0.00     0.065 A 
HETATM    5  C   UNK N   1      32.389  17.552   4.224  0.00  0.00     0.037 A 
HETATM    6  C   UNK N   1      33.403  17.587   5.183  0.00  0.00     0.010 A 
ENDROOT
BRANCH   1   7
HETATM    7  C   UNK N   1      34.172  17.436   7.596  0.00  0.00     0.057 C 
BRANCH   7   8
HETATM    8  C   UNK N   1      33.770  16.724   8.881  0.00  0.00     0.115 C 
BRANCH   8   9
HETATM    9  N   UNK N   1      34.593  17.188   9.980  0.00  0.00    -0.430 N 
HETATM   10  H   UNK N   1      34.909  18.157  10.007  0.00  0.00     0.149 HD
HETATM   11  H   UNK N   1      34.856  16.545  10.728  0.00  0.00     0.149 HD
ENDBRANCH   8   9
ENDBRANCH   7   8
ENDBRANCH   1   7
BRANCH   4  12
HETATM   12  O   UNK N   1      30.094  17.298   3.692  0.00  0.00    -0.361 OA
HETATM   13  H   UNK N   1      29.624  18.080   3.477  0.00  0.00     0.217 HD
ENDBRANCH   4  12
TORSDOF 4
ENDMDL
