MODEL 1
REMARK VINA RESULT:      -8.6      0.000      0.000
REMARK  5 active torsions:
REMARK  status: ('A' for Active; 'I' for Inactive)
REMARK    1  A    between atoms: C_5  and  C_8 
REMARK    2  A    between atoms: C_11  and  O_24 
REMARK    3  A    between atoms: O_17  and  C_18 
REMARK    4  A    between atoms: O_24  and  C_25 
REMARK    5  A    between atoms: C_25  and  C_26 
ROOT
HETATM    1  N   UNK N   1      35.350  12.685  13.441  0.00  0.00    -0.290 N 
ATOM      2  HN  UNK N   1      35.934  13.443  13.089  1.00  0.00     0.187 HD
HETATM    3  N   UNK N   1      33.608  10.080  11.923  0.00  0.00    -0.283 N 
ATOM      4  HN  UNK N   1      32.996   9.265  11.940  1.00  0.00     0.188 HD
HETATM    5  C   UNK N   1      35.120  12.549  14.785  0.00  0.00     0.059 A 
HETATM    6  C   UNK N   1      34.324  11.469  15.241  0.00  0.00     0.036 A 
HETATM    7  C   UNK N   1      34.018  10.801  12.983  0.00  0.00     0.143 A 
HETATM    8  C   UNK N   1      34.889  11.697  11.270  0.00  0.00     0.144 A 
HETATM    9  N   UNK N   1      34.797  11.811  12.602  0.00  0.00    -0.222 N 
HETATM   10  N   UNK N   1      34.158  10.641  10.843  0.00  0.00    -0.284 N 
ATOM     11  HN  UNK N   1      34.050  10.330   9.878  1.00  0.00     0.188 HD
HETATM   12  C   UNK N   1      33.754  10.574  14.323  0.00  0.00     0.054 A 
ENDROOT
BRANCH   8  13
HETATM   13  C   UNK N   1      35.786  12.516  10.408  0.00  0.00     0.255 C 
BRANCH  13  14
HETATM   14  O   UNK N   1      35.132  13.278   9.463  0.00  0.00    -0.343 OA
BRANCH  14  15
HETATM   15  C   UNK N   1      35.116  14.635   9.563  0.00  0.00     0.083 A 
HETATM   16  C   UNK N   1      34.746  15.475   8.484  0.00  0.00     0.024 A 
HETATM   17  C   UNK N   1      34.671  16.871   8.691  0.00  0.00     0.047 A 
HETATM   18  C   UNK N   1      34.460  14.959   7.215  0.00  0.00     0.019 A 
HETATM   19  C   UNK N   1      34.290  17.714   7.641  0.00  0.00     0.067 A 
HETATM   20  N   UNK N   1      34.965  17.395   9.911  0.00  0.00    -0.365 N 
HETATM   21  C   UNK N   1      33.995  17.179   6.372  0.00  0.00     0.070 A 
HETATM   22  C   UNK N   1      34.092  15.803   6.171  0.00  0.00     0.038 A 
HETATM   23  C   UNK N   1      35.352  16.606  10.948  0.00  0.00     0.091 A 
ATOM     24  HN  UNK N   1      34.893  18.402  10.050  1.00  0.00     0.165 HD
HETATM   25  C   UNK N   1      35.436  15.220  10.790  0.00  0.00     0.054 A 
BRANCH  21  26
HETATM   26  O   UNK N   1      33.616  17.962   5.336  0.00  0.00    -0.356 OA
HETATM   27  C   UNK N   1      32.705  17.567   4.385  0.00  0.00     0.210 C 
ENDBRANCH  21  26
ENDBRANCH  14  15
ENDBRANCH  13  14
ENDBRANCH   8  13
BRANCH   5  28
HETATM   28  C   UNK N   1      35.649  13.546  15.744  0.00  0.00    -0.008 A 
HETATM   29  C   UNK N   1      35.110  13.641  17.035  0.00  0.00     0.014 A 
HETATM   30  C   UNK N   1      35.646  14.539  17.964  0.00  0.00     0.001 A 
HETATM   31  C   UNK N   1      36.719  15.358  17.605  0.00  0.00     0.000 A 
HETATM   32  C   UNK N   1      37.257  15.280  16.317  0.00  0.00     0.001 A 
HETATM   33  C   UNK N   1      36.730  14.371  15.394  0.00  0.00     0.014 A 
ENDBRANCH   5  28
TORSDOF 5
ENDMDL
MODEL 2
REMARK VINA RESULT:      -8.5     12.024     16.046
REMARK  5 active torsions:
REMARK  status: ('A' for Active; 'I' for Inactive)
REMARK    1  A    between atoms: C_5  and  C_8 
REMARK    2  A    between atoms: C_11  and  O_24 
REMARK    3  A    between atoms: O_17  and  C_18 
REMARK    4  A    between atoms: O_24  and  C_25 
REMARK    5  A    between atoms: C_25  and  C_26 
ROOT
HETATM    1  N   UNK N   1      22.368  18.451   3.789  0.00  0.00    -0.290 N 
ATOM      2  HN  UNK N   1      22.854  17.754   4.354  1.00  0.00     0.187 HD
HETATM    3  N   UNK N   1      19.141  18.686   2.502  0.00  0.00    -0.283 N 
ATOM      4  HN  UNK N   1      18.410  19.148   1.963  1.00  0.00     0.188 HD
HETATM    5  C   UNK N   1      23.013  19.589   3.380  0.00  0.00     0.059 A 
HETATM    6  C   UNK N   1      22.299  20.548   2.618  0.00  0.00     0.036 A 
HETATM    7  C   UNK N   1      20.398  19.126   2.696  0.00  0.00     0.143 A 
HETATM    8  C   UNK N   1      20.240  17.281   3.727  0.00  0.00     0.144 A 
HETATM    9  N   UNK N   1      21.097  18.269   3.436  0.00  0.00    -0.222 N 
HETATM   10  N   UNK N   1      19.039  17.525   3.155  0.00  0.00    -0.284 N 
ATOM     11  HN  UNK N   1      18.209  16.934   3.212  1.00  0.00     0.188 HD
HETATM   12  C   UNK N   1      20.962  20.313   2.260  0.00  0.00     0.054 A 
ENDROOT
BRANCH   8  13
HETATM   13  C   UNK N   1      20.523  16.162   4.670  0.00  0.00     0.255 C 
BRANCH  13  14
HETATM   14  O   UNK N   1      21.131  16.546   5.846  0.00  0.00    -0.343 OA
BRANCH  14  15
HETATM   15  C   UNK N   1      22.113  15.782   6.396  0.00  0.00     0.083 A 
HETATM   16  C   UNK N   1      21.910  14.998   7.558  0.00  0.00     0.024 A 
HETATM   17  C   UNK N   1      22.955  14.165   8.019  0.00  0.00     0.047 A 
HETATM   18  C   UNK N   1      20.703  15.032   8.266  0.00  0.00     0.019 A 
HETATM   19  C   UNK N   1      22.765  13.370   9.155  0.00  0.00     0.067 A 
HETATM   20  N   UNK N   1      24.142  14.132   7.358  0.00  0.00    -0.365 N 
HETATM   21  C   UNK N   1      21.542  13.407   9.852  0.00  0.00     0.070 A 
HETATM   22  C   UNK N   1      20.524  14.247   9.402  0.00  0.00     0.038 A 
HETATM   23  C   UNK N   1      24.365  14.902   6.259  0.00  0.00     0.091 A 
ATOM     24  HN  UNK N   1      24.882  13.517   7.693  1.00  0.00     0.165 HD
HETATM   25  C   UNK N   1      23.359  15.738   5.765  0.00  0.00     0.054 A 
BRANCH  21  26
HETATM   26  O   UNK N   1      21.319  12.647  10.949  0.00  0.00    -0.356 OA
HETATM   27  C   UNK N   1      22.316  11.983  11.622  0.00  0.00     0.210 C 
ENDBRANCH  21  26
ENDBRANCH  14  15
ENDBRANCH  13  14
ENDBRANCH   8  13
BRANCH   5  28
HETATM   28  C   UNK N   1      24.448  19.791   3.682  0.00  0.00    -0.008 A 
HETATM   29  C   UNK N   1      25.021  19.204   4.819  0.00  0.00     0.014 A 
HETATM   30  C   UNK N   1      26.389  19.342   5.076  0.00  0.00     0.001 A 
HETATM   31  C   UNK N   1      27.194  20.078   4.203  0.00  0.00     0.000 A 
HETATM   32  C   UNK N   1      26.631  20.677   3.072  0.00  0.00     0.001 A 
HETATM   33  C   UNK N   1      25.266  20.526   2.808  0.00  0.00     0.014 A 
ENDBRANCH   5  28
TORSDOF 5
ENDMDL
MODEL 3
REMARK VINA RESULT:      -8.5     12.390     16.282
REMARK  5 active torsions:
REMARK  status: ('A' for Active; 'I' for Inactive)
REMARK    1  A    between atoms: C_5  and  C_8 
REMARK    2  A    between atoms: C_11  and  O_24 
REMARK    3  A    between atoms: O_17  and  C_18 
REMARK    4  A    between atoms: O_24  and  C_25 
REMARK    5  A    between atoms: C_25  and  C_26 
ROOT
HETATM    1  N   UNK N   1      22.473  18.040   3.838  0.00  0.00    -0.290 N 
ATOM      2  HN  UNK N   1      23.059  17.334   4.283  1.00  0.00     0.187 HD
HETATM    3  N   UNK N   1      19.141  18.116   2.829  0.00  0.00    -0.283 N 
ATOM      4  HN  UNK N   1      18.332  18.564   2.401  1.00  0.00     0.188 HD
HETATM    5  C   UNK N   1      22.985  19.269   3.514  0.00  0.00     0.059 A 
HETATM    6  C   UNK N   1      22.134  20.234   2.920  0.00  0.00     0.036 A 
HETATM    7  C   UNK N   1      20.369  18.645   2.978  0.00  0.00     0.143 A 
HETATM    8  C   UNK N   1      20.450  16.694   3.803  0.00  0.00     0.144 A 
HETATM    9  N   UNK N   1      21.196  17.782   3.562  0.00  0.00    -0.222 N 
HETATM   10  N   UNK N   1      19.189  16.888   3.352  0.00  0.00    -0.284 N 
ATOM     11  HN  UNK N   1      18.419  16.222   3.403  1.00  0.00     0.188 HD
HETATM   12  C   UNK N   1      20.796  19.919   2.639  0.00  0.00     0.054 A 
ENDROOT
BRANCH   8  13
HETATM   13  C   UNK N   1      20.902  15.512   4.589  0.00  0.00     0.255 C 
BRANCH  13  14
HETATM   14  O   UNK N   1      21.528  15.821   5.777  0.00  0.00    -0.343 OA
BRANCH  14  15
HETATM   15  C   UNK N   1      20.890  15.631   6.963  0.00  0.00     0.083 A 
HETATM   16  C   UNK N   1      21.262  14.615   7.876  0.00  0.00     0.024 A 
HETATM   17  C   UNK N   1      20.605  14.536   9.126  0.00  0.00     0.047 A 
HETATM   18  C   UNK N   1      22.259  13.681   7.571  0.00  0.00     0.019 A 
HETATM   19  C   UNK N   1      20.974  13.549  10.047  0.00  0.00     0.067 A 
HETATM   20  N   UNK N   1      19.620  15.420   9.435  0.00  0.00    -0.365 N 
HETATM   21  C   UNK N   1      21.986  12.622   9.729  0.00  0.00     0.070 A 
HETATM   22  C   UNK N   1      22.613  12.695   8.486  0.00  0.00     0.038 A 
HETATM   23  C   UNK N   1      19.229  16.382   8.557  0.00  0.00     0.091 A 
ATOM     24  HN  UNK N   1      19.165  15.359  10.344  1.00  0.00     0.165 HD
HETATM   25  C   UNK N   1      19.852  16.500   7.312  0.00  0.00     0.054 A 
BRANCH  21  26
HETATM   26  O   UNK N   1      22.373  11.660  10.597  0.00  0.00    -0.356 OA
HETATM   27  C   UNK N   1      23.096  11.918  11.738  0.00  0.00     0.210 C 
ENDBRANCH  21  26
ENDBRANCH  14  15
ENDBRANCH  13  14
ENDBRANCH   8  13
BRANCH   5  28
HETATM   28  C   UNK N   1      24.420  19.567   3.730  0.00  0.00    -0.008 A 
HETATM   29  C   UNK N   1      25.121  20.368   2.818  0.00  0.00     0.014 A 
HETATM   30  C   UNK N   1      26.459  20.702   3.049  0.00  0.00     0.001 A 
HETATM   31  C   UNK N   1      27.111  20.229   4.189  0.00  0.00     0.000 A 
HETATM   32  C   UNK N   1      26.425  19.421   5.101  0.00  0.00     0.001 A 
HETATM   33  C   UNK N   1      25.083  19.099   4.876  0.00  0.00     0.014 A 
ENDBRANCH   5  28
TORSDOF 5
ENDMDL
MODEL 4
REMARK VINA RESULT:      -8.3      6.472      9.794
REMARK  5 active torsions:
REMARK  status: ('A' for Active; 'I' for Inactive)
REMARK    1  A    between atoms: C_5  and  C_8 
REMARK    2  A    between atoms: C_11  and  O_24 
REMARK    3  A    between atoms: O_17  and  C_18 
REMARK    4  A    between atoms: O_24  and  C_25 
REMARK    5  A    between atoms: C_25  and  C_26 
ROOT
HETATM    1  N   UNK N   1      29.891  17.749   7.268  0.00  0.00    -0.290 N 
ATOM      2  HN  UNK N   1      30.370  17.797   6.368  1.00  0.00     0.187 HD
HETATM    3  N   UNK N   1      30.575  16.141  10.279  0.00  0.00    -0.283 N 
ATOM      4  HN  UNK N   1      30.357  15.884  11.241  1.00  0.00     0.188 HD
HETATM    5  C   UNK N   1      28.712  18.419   7.466  0.00  0.00     0.059 A 
HETATM    6  C   UNK N   1      28.088  18.352   8.737  0.00  0.00     0.036 A 
HETATM    7  C   UNK N   1      29.834  16.918   9.467  0.00  0.00     0.143 A 
HETATM    8  C   UNK N   1      31.537  16.328   8.350  0.00  0.00     0.144 A 
HETATM    9  N   UNK N   1      30.401  17.035   8.268  0.00  0.00    -0.222 N 
HETATM   10  N   UNK N   1      31.649  15.771   9.578  0.00  0.00    -0.284 N 
ATOM     11  HN  UNK N   1      32.413  15.181   9.908  1.00  0.00     0.188 HD
HETATM   12  C   UNK N   1      28.655  17.581   9.763  0.00  0.00     0.054 A 
ENDROOT
BRANCH   8  13
HETATM   13  C   UNK N   1      32.591  16.290   7.298  0.00  0.00     0.255 C 
BRANCH  13  14
HETATM   14  O   UNK N   1      32.346  15.400   6.274  0.00  0.00    -0.343 OA
BRANCH  14  15
HETATM   15  C   UNK N   1      31.942  15.845   5.054  0.00  0.00     0.083 A 
HETATM   16  C   UNK N   1      30.643  15.604   4.545  0.00  0.00     0.024 A 
HETATM   17  C   UNK N   1      30.271  16.173   3.305  0.00  0.00     0.047 A 
HETATM   18  C   UNK N   1      29.719  14.810   5.234  0.00  0.00     0.019 A 
HETATM   19  C   UNK N   1      28.985  15.959   2.796  0.00  0.00     0.067 A 
HETATM   20  N   UNK N   1      31.160  16.931   2.610  0.00  0.00    -0.365 N 
HETATM   21  C   UNK N   1      28.063  15.167   3.505  0.00  0.00     0.070 A 
HETATM   22  C   UNK N   1      28.445  14.592   4.717  0.00  0.00     0.038 A 
HETATM   23  C   UNK N   1      32.422  17.146   3.069  0.00  0.00     0.091 A 
ATOM     24  HN  UNK N   1      30.874  17.346   1.724  1.00  0.00     0.165 HD
HETATM   25  C   UNK N   1      32.832  16.607   4.291  0.00  0.00     0.054 A 
BRANCH  21  26
HETATM   26  O   UNK N   1      26.809  14.945   3.048  0.00  0.00    -0.356 OA
HETATM   27  C   UNK N   1      26.056  15.903   2.413  0.00  0.00     0.210 C 
ENDBRANCH  21  26
ENDBRANCH  14  15
ENDBRANCH  13  14
ENDBRANCH   8  13
BRANCH   5  28
HETATM   28  C   UNK N   1      28.070  19.159   6.355  0.00  0.00    -0.008 A 
HETATM   29  C   UNK N   1      28.018  18.600   5.070  0.00  0.00     0.014 A 
HETATM   30  C   UNK N   1      27.360  19.266   4.032  0.00  0.00     0.001 A 
HETATM   31  C   UNK N   1      26.757  20.504   4.267  0.00  0.00     0.000 A 
HETATM   32  C   UNK N   1      26.812  21.076   5.541  0.00  0.00     0.001 A 
HETATM   33  C   UNK N   1      27.458  20.402   6.582  0.00  0.00     0.014 A 
ENDBRANCH   5  28
TORSDOF 5
ENDMDL
MODEL 5
REMARK VINA RESULT:      -8.3     11.271     15.099
REMARK  5 active torsions:
REMARK  status: ('A' for Active; 'I' for Inactive)
REMARK    1  A    between atoms: C_5  and  C_8 
REMARK    2  A    between atoms: C_11  and  O_24 
REMARK    3  A    between atoms: O_17  and  C_18 
REMARK    4  A    between atoms: O_24  and  C_25 
REMARK    5  A    between atoms: C_25  and  C_26 
ROOT
HETATM    1  N   UNK N   1      22.407  18.394   3.644  0.00  0.00    -0.290 N 
ATOM      2  HN  UNK N   1      22.961  17.675   4.108  1.00  0.00     0.187 HD
HETATM    3  N   UNK N   1      19.132  18.525   2.468  0.00  0.00    -0.283 N 
ATOM      4  HN  UNK N   1      18.351  18.990   2.006  1.00  0.00     0.188 HD
HETATM    5  C   UNK N   1      22.949  19.621   3.364  0.00  0.00     0.059 A 
HETATM    6  C   UNK N   1      22.141  20.604   2.741  0.00  0.00     0.036 A 
HETATM    7  C   UNK N   1      20.357  19.037   2.686  0.00  0.00     0.143 A 
HETATM    8  C   UNK N   1      20.373  17.074   3.486  0.00  0.00     0.144 A 
HETATM    9  N   UNK N   1      21.143  18.156   3.300  0.00  0.00    -0.222 N 
HETATM   10  N   UNK N   1      19.139  17.290   2.975  0.00  0.00    -0.284 N 
ATOM     11  HN  UNK N   1      18.359  16.633   2.977  1.00  0.00     0.188 HD
HETATM   12  C   UNK N   1      20.815  20.310   2.388  0.00  0.00     0.054 A 
ENDROOT
BRANCH   8  13
HETATM   13  C   UNK N   1      20.769  15.876   4.277  0.00  0.00     0.255 C 
BRANCH  13  14
HETATM   14  O   UNK N   1      21.989  15.337   3.925  0.00  0.00    -0.343 OA
BRANCH  14  15
HETATM   15  C   UNK N   1      23.010  15.296   4.822  0.00  0.00     0.083 A 
HETATM   16  C   UNK N   1      24.331  15.687   4.493  0.00  0.00     0.024 A 
HETATM   17  C   UNK N   1      25.319  15.698   5.504  0.00  0.00     0.047 A 
HETATM   18  C   UNK N   1      24.685  16.056   3.190  0.00  0.00     0.019 A 
HETATM   19  C   UNK N   1      26.625  16.099   5.199  0.00  0.00     0.067 A 
HETATM   20  N   UNK N   1      25.001  15.324   6.771  0.00  0.00    -0.365 N 
HETATM   21  C   UNK N   1      26.964  16.477   3.886  0.00  0.00     0.070 A 
HETATM   22  C   UNK N   1      25.988  16.444   2.891  0.00  0.00     0.038 A 
HETATM   23  C   UNK N   1      23.746  14.915   7.097  0.00  0.00     0.091 A 
ATOM     24  HN  UNK N   1      25.721  15.349   7.493  1.00  0.00     0.165 HD
HETATM   25  C   UNK N   1      22.736  14.892   6.132  0.00  0.00     0.054 A 
BRANCH  21  26
HETATM   26  O   UNK N   1      28.214  16.878   3.557  0.00  0.00    -0.356 OA
HETATM   27  C   UNK N   1      29.089  16.104   2.833  0.00  0.00     0.210 C 
ENDBRANCH  21  26
ENDBRANCH  14  15
ENDBRANCH  13  14
ENDBRANCH   8  13
BRANCH   5  28
HETATM   28  C   UNK N   1      24.374  19.898   3.657  0.00  0.00    -0.008 A 
HETATM   29  C   UNK N   1      24.925  19.538   4.895  0.00  0.00     0.014 A 
HETATM   30  C   UNK N   1      26.284  19.742   5.154  0.00  0.00     0.001 A 
HETATM   31  C   UNK N   1      27.102  20.319   4.180  0.00  0.00     0.000 A 
HETATM   32  C   UNK N   1      26.562  20.693   2.946  0.00  0.00     0.001 A 
HETATM   33  C   UNK N   1      25.206  20.474   2.683  0.00  0.00     0.014 A 
ENDBRANCH   5  28
TORSDOF 5
ENDMDL
MODEL 6
REMARK VINA RESULT:      -8.1      5.859      8.550
REMARK  5 active torsions:
REMARK  status: ('A' for Active; 'I' for Inactive)
REMARK    1  A    between atoms: C_5  and  C_8 
REMARK    2  A    between atoms: C_11  and  O_24 
REMARK    3  A    between atoms: O_17  and  C_18 
REMARK    4  A    between atoms: O_24  and  C_25 
REMARK    5  A    between atoms: C_25  and  C_26 
ROOT
HETATM    1  N   UNK N   1      30.087  17.506   7.001  0.00  0.00    -0.290 N 
ATOM      2  HN  UNK N   1      30.527  16.985   6.242  1.00  0.00     0.187 HD
HETATM    3  N   UNK N   1      27.158  19.369   7.263  0.00  0.00    -0.283 N 
ATOM      4  HN  UNK N   1      26.499  19.959   7.770  1.00  0.00     0.188 HD
HETATM    5  C   UNK N   1      30.676  17.566   8.237  0.00  0.00     0.059 A 
HETATM    6  C   UNK N   1      30.024  18.279   9.275  0.00  0.00     0.036 A 
HETATM    7  C   UNK N   1      28.302  18.846   7.741  0.00  0.00     0.143 A 
HETATM    8  C   UNK N   1      28.144  18.211   5.724  0.00  0.00     0.144 A 
HETATM    9  N   UNK N   1      28.933  18.140   6.806  0.00  0.00    -0.222 N 
HETATM   10  N   UNK N   1      27.055  18.967   5.994  0.00  0.00    -0.284 N 
ATOM     11  HN  UNK N   1      26.296  19.188   5.349  1.00  0.00     0.188 HD
HETATM   12  C   UNK N   1      28.812  18.940   9.025  0.00  0.00     0.054 A 
ENDROOT
BRANCH   8  13
HETATM   13  C   UNK N   1      28.358  17.443   4.466  0.00  0.00     0.255 C 
BRANCH  13  14
HETATM   14  O   UNK N   1      29.675  17.350   4.069  0.00  0.00    -0.343 OA
BRANCH  14  15
HETATM   15  C   UNK N   1      30.325  16.156   4.109  0.00  0.00     0.083 A 
HETATM   16  C   UNK N   1      31.678  16.036   4.509  0.00  0.00     0.024 A 
HETATM   17  C   UNK N   1      32.258  14.751   4.606  0.00  0.00     0.047 A 
HETATM   18  C   UNK N   1      32.460  17.160   4.804  0.00  0.00     0.019 A 
HETATM   19  C   UNK N   1      33.588  14.614   5.018  0.00  0.00     0.067 A 
HETATM   20  N   UNK N   1      31.523  13.648   4.305  0.00  0.00    -0.365 N 
HETATM   21  C   UNK N   1      34.359  15.753   5.321  0.00  0.00     0.070 A 
HETATM   22  C   UNK N   1      33.786  17.018   5.203  0.00  0.00     0.038 A 
HETATM   23  C   UNK N   1      30.232  13.747   3.889  0.00  0.00     0.091 A 
ATOM     24  HN  UNK N   1      31.950  12.726   4.392  1.00  0.00     0.165 HD
HETATM   25  C   UNK N   1      29.617  14.997   3.782  0.00  0.00     0.054 A 
BRANCH  21  26
HETATM   26  O   UNK N   1      35.646  15.659   5.730  0.00  0.00    -0.356 OA
HETATM   27  C   UNK N   1      36.237  14.474   6.098  0.00  0.00     0.210 C 
ENDBRANCH  21  26
ENDBRANCH  14  15
ENDBRANCH  13  14
ENDBRANCH   8  13
BRANCH   5  28
HETATM   28  C   UNK N   1      31.998  16.943   8.473  0.00  0.00    -0.008 A 
HETATM   29  C   UNK N   1      33.142  17.742   8.609  0.00  0.00     0.014 A 
HETATM   30  C   UNK N   1      34.383  17.163   8.892  0.00  0.00     0.001 A 
HETATM   31  C   UNK N   1      34.492  15.777   9.030  0.00  0.00     0.000 A 
HETATM   32  C   UNK N   1      33.361  14.970   8.885  0.00  0.00     0.001 A 
HETATM   33  C   UNK N   1      32.118  15.551   8.616  0.00  0.00     0.014 A 
ENDBRANCH   5  28
TORSDOF 5
ENDMDL
MODEL 7
REMARK VINA RESULT:      -8.0      7.007      9.250
REMARK  5 active torsions:
REMARK  status: ('A' for Active; 'I' for Inactive)
REMARK    1  A    between atoms: C_5  and  C_8 
REMARK    2  A    between atoms: C_11  and  O_24 
REMARK    3  A    between atoms: O_17  and  C_18 
REMARK    4  A    between atoms: O_24  and  C_25 
REMARK    5  A    between atoms: C_25  and  C_26 
ROOT
HETATM    1  N   UNK N   1      29.909  17.565   6.705  0.00  0.00    -0.290 N 
ATOM      2  HN  UNK N   1      30.111  17.261   5.752  1.00  0.00     0.187 HD
HETATM    3  N   UNK N   1      27.352  19.438   8.144  0.00  0.00    -0.283 N 
ATOM      4  HN  UNK N   1      26.891  19.892   8.933  1.00  0.00     0.188 HD
HETATM    5  C   UNK N   1      30.747  17.230   7.736  0.00  0.00     0.059 A 
HETATM    6  C   UNK N   1      30.421  17.647   9.050  0.00  0.00     0.036 A 
HETATM    7  C   UNK N   1      28.498  18.734   8.179  0.00  0.00     0.143 A 
HETATM    8  C   UNK N   1      27.842  18.720   6.163  0.00  0.00     0.144 A 
HETATM    9  N   UNK N   1      28.826  18.294   6.967  0.00  0.00    -0.222 N 
HETATM   10  N   UNK N   1      26.935  19.428   6.876  0.00  0.00    -0.284 N 
ATOM     11  HN  UNK N   1      26.090  19.869   6.513  1.00  0.00     0.188 HD
HETATM   12  C   UNK N   1      29.274  18.421   9.282  0.00  0.00     0.054 A 
ENDROOT
BRANCH   8  13
HETATM   13  C   UNK N   1      27.689  18.339   4.731  0.00  0.00     0.255 C 
BRANCH  13  14
HETATM   14  O   UNK N   1      28.873  18.037   4.091  0.00  0.00    -0.343 OA
BRANCH  14  15
HETATM   15  C   UNK N   1      29.126  16.769   3.670  0.00  0.00     0.083 A 
HETATM   16  C   UNK N   1      30.439  16.255   3.541  0.00  0.00     0.024 A 
HETATM   17  C   UNK N   1      30.617  14.900   3.179  0.00  0.00     0.047 A 
HETATM   18  C   UNK N   1      31.566  17.056   3.755  0.00  0.00     0.019 A 
HETATM   19  C   UNK N   1      31.908  14.372   3.065  0.00  0.00     0.067 A 
HETATM   20  N   UNK N   1      29.536  14.109   2.947  0.00  0.00    -0.365 N 
HETATM   21  C   UNK N   1      33.032  15.187   3.293  0.00  0.00     0.070 A 
HETATM   22  C   UNK N   1      32.848  16.528   3.629  0.00  0.00     0.038 A 
HETATM   23  C   UNK N   1      28.269  14.595   3.035  0.00  0.00     0.091 A 
ATOM     24  HN  UNK N   1      29.679  13.131   2.700  1.00  0.00     0.165 HD
HETATM   25  C   UNK N   1      28.045  15.927   3.393  0.00  0.00     0.054 A 
BRANCH  21  26
HETATM   26  O   UNK N   1      34.295  14.709   3.200  0.00  0.00    -0.356 OA
HETATM   27  C   UNK N   1      34.686  13.788   2.257  0.00  0.00     0.210 C 
ENDBRANCH  21  26
ENDBRANCH  14  15
ENDBRANCH  13  14
ENDBRANCH   8  13
BRANCH   5  28
HETATM   28  C   UNK N   1      32.003  16.490   7.475  0.00  0.00    -0.008 A 
HETATM   29  C   UNK N   1      31.979  15.102   7.282  0.00  0.00     0.014 A 
HETATM   30  C   UNK N   1      33.153  14.407   6.975  0.00  0.00     0.001 A 
HETATM   31  C   UNK N   1      34.365  15.094   6.870  0.00  0.00     0.000 A 
HETATM   32  C   UNK N   1      34.403  16.477   7.071  0.00  0.00     0.001 A 
HETATM   33  C   UNK N   1      33.225  17.173   7.363  0.00  0.00     0.014 A 
ENDBRANCH   5  28
TORSDOF 5
ENDMDL
MODEL 8
REMARK VINA RESULT:      -8.0      7.864     10.763
REMARK  5 active torsions:
REMARK  status: ('A' for Active; 'I' for Inactive)
REMARK    1  A    between atoms: C_5  and  C_8 
REMARK    2  A    between atoms: C_11  and  O_24 
REMARK    3  A    between atoms: O_17  and  C_18 
REMARK    4  A    between atoms: O_24  and  C_25 
REMARK    5  A    between atoms: C_25  and  C_26 
ROOT
HETATM    1  N   UNK N   1      29.682  17.784   6.169  0.00  0.00    -0.290 N 
ATOM      2  HN  UNK N   1      29.447  18.030   5.208  1.00  0.00     0.187 HD
HETATM    3  N   UNK N   1      28.281  18.549   9.264  0.00  0.00    -0.283 N 
ATOM      4  HN  UNK N   1      28.251  18.509  10.282  1.00  0.00     0.188 HD
HETATM    5  C   UNK N   1      30.762  16.985   6.440  0.00  0.00     0.059 A 
HETATM    6  C   UNK N   1      31.044  16.642   7.786  0.00  0.00     0.036 A 
HETATM    7  C   UNK N   1      29.191  17.965   8.462  0.00  0.00     0.143 A 
HETATM    8  C   UNK N   1      27.837  18.989   7.192  0.00  0.00     0.144 A 
HETATM    9  N   UNK N   1      28.945  18.235   7.182  0.00  0.00    -0.222 N 
HETATM   10  N   UNK N   1      27.425  19.191   8.465  0.00  0.00    -0.284 N 
ATOM     11  HN  UNK N   1      26.612  19.732   8.760  1.00  0.00     0.188 HD
HETATM   12  C   UNK N   1      30.246  17.145   8.825  0.00  0.00     0.054 A 
ENDROOT
BRANCH   8  13
HETATM   13  C   UNK N   1      27.085  19.409   5.977  0.00  0.00     0.255 C 
BRANCH  13  14
HETATM   14  O   UNK N   1      27.504  18.807   4.809  0.00  0.00    -0.343 OA
BRANCH  14  15
HETATM   15  C   UNK N   1      26.717  17.890   4.185  0.00  0.00     0.083 A 
HETATM   16  C   UNK N   1      27.247  16.811   3.437  0.00  0.00     0.024 A 
HETATM   17  C   UNK N   1      26.366  15.852   2.890  0.00  0.00     0.047 A 
HETATM   18  C   UNK N   1      28.623  16.674   3.219  0.00  0.00     0.019 A 
HETATM   19  C   UNK N   1      26.875  14.770   2.163  0.00  0.00     0.067 A 
HETATM   20  N   UNK N   1      25.025  15.976   3.072  0.00  0.00    -0.365 N 
HETATM   21  C   UNK N   1      28.262  14.639   1.960  0.00  0.00     0.070 A 
HETATM   22  C   UNK N   1      29.123  15.602   2.486  0.00  0.00     0.038 A 
HETATM   23  C   UNK N   1      24.496  17.023   3.761  0.00  0.00     0.091 A 
ATOM     24  HN  UNK N   1      24.402  15.270   2.684  1.00  0.00     0.165 HD
HETATM   25  C   UNK N   1      25.330  17.994   4.323  0.00  0.00     0.054 A 
BRANCH  21  26
HETATM   26  O   UNK N   1      28.791  13.603   1.270  0.00  0.00    -0.356 OA
HETATM   27  C   UNK N   1      29.215  12.438   1.864  0.00  0.00     0.210 C 
ENDBRANCH  21  26
ENDBRANCH  14  15
ENDBRANCH  13  14
ENDBRANCH   8  13
BRANCH   5  28
HETATM   28  C   UNK N   1      31.653  16.529   5.348  0.00  0.00    -0.008 A 
HETATM   29  C   UNK N   1      32.025  17.411   4.324  0.00  0.00     0.014 A 
HETATM   30  C   UNK N   1      32.915  17.004   3.325  0.00  0.00     0.001 A 
HETATM   31  C   UNK N   1      33.432  15.706   3.336  0.00  0.00     0.000 A 
HETATM   32  C   UNK N   1      33.059  14.815   4.346  0.00  0.00     0.001 A 
HETATM   33  C   UNK N   1      32.181  15.228   5.353  0.00  0.00     0.014 A 
ENDBRANCH   5  28
TORSDOF 5
ENDMDL
MODEL 9
REMARK VINA RESULT:      -7.9      3.057      8.975
REMARK  5 active torsions:
REMARK  status: ('A' for Active; 'I' for Inactive)
REMARK    1  A    between atoms: C_5  and  C_8 
REMARK    2  A    between atoms: C_11  and  O_24 
REMARK    3  A    between atoms: O_17  and  C_18 
REMARK    4  A    between atoms: O_24  and  C_25 
REMARK    5  A    between atoms: C_25  and  C_26 
ROOT
HETATM    1  N   UNK N   1      35.181  14.973  10.728  0.00  0.00    -0.290 N 
ATOM      2  HN  UNK N   1      34.623  15.443  11.442  1.00  0.00     0.187 HD
HETATM    3  N   UNK N   1      37.935  12.846  10.836  0.00  0.00    -0.283 N 
ATOM      4  HN  UNK N   1      38.663  12.280  10.402  1.00  0.00     0.188 HD
HETATM    5  C   UNK N   1      34.888  15.131   9.399  0.00  0.00     0.059 A 
HETATM    6  C   UNK N   1      35.668  14.442   8.436  0.00  0.00     0.036 A 
HETATM    7  C   UNK N   1      36.985  13.558  10.204  0.00  0.00     0.143 A 
HETATM    8  C   UNK N   1      36.677  13.852  12.280  0.00  0.00     0.144 A 
HETATM    9  N   UNK N   1      36.207  14.197  11.074  0.00  0.00    -0.222 N 
HETATM   10  N   UNK N   1      37.741  13.027  12.145  0.00  0.00    -0.284 N 
ATOM     11  HN  UNK N   1      38.290  12.618  12.901  1.00  0.00     0.188 HD
HETATM   12  C   UNK N   1      36.745  13.641   8.842  0.00  0.00     0.054 A 
ENDROOT
BRANCH   8  13
HETATM   13  C   UNK N   1      36.027  14.199  13.575  0.00  0.00     0.255 C 
BRANCH  13  14
HETATM   14  O   UNK N   1      34.868  13.500  13.839  0.00  0.00    -0.343 OA
BRANCH  14  15
HETATM   15  C   UNK N   1      34.921  12.274  14.426  0.00  0.00     0.083 A 
HETATM   16  C   UNK N   1      35.030  12.102  15.827  0.00  0.00     0.024 A 
HETATM   17  C   UNK N   1      34.992  10.797  16.367  0.00  0.00     0.047 A 
HETATM   18  C   UNK N   1      35.181  13.192  16.692  0.00  0.00     0.019 A 
HETATM   19  C   UNK N   1      35.080  10.610  17.751  0.00  0.00     0.067 A 
HETATM   20  N   UNK N   1      34.866   9.722  15.543  0.00  0.00    -0.365 N 
HETATM   21  C   UNK N   1      35.222  11.717  18.610  0.00  0.00     0.070 A 
HETATM   22  C   UNK N   1      35.279  13.000  18.067  0.00  0.00     0.038 A 
HETATM   23  C   UNK N   1      34.792   9.868  14.194  0.00  0.00     0.091 A 
ATOM     24  HN  UNK N   1      34.826   8.788  15.948  1.00  0.00     0.165 HD
HETATM   25  C   UNK N   1      34.821  11.140  13.616  0.00  0.00     0.054 A 
BRANCH  21  26
HETATM   26  O   UNK N   1      35.303  11.576  19.953  0.00  0.00    -0.356 OA
HETATM   27  C   UNK N   1      35.546  10.374  20.573  0.00  0.00     0.210 C 
ENDBRANCH  21  26
ENDBRANCH  14  15
ENDBRANCH  13  14
ENDBRANCH   8  13
BRANCH   5  28
HETATM   28  C   UNK N   1      33.807  16.048   8.970  0.00  0.00    -0.008 A 
HETATM   29  C   UNK N   1      34.110  17.351   8.553  0.00  0.00     0.014 A 
HETATM   30  C   UNK N   1      33.100  18.201   8.089  0.00  0.00     0.001 A 
HETATM   31  C   UNK N   1      31.776  17.757   8.051  0.00  0.00     0.000 A 
HETATM   32  C   UNK N   1      31.461  16.463   8.475  0.00  0.00     0.001 A 
HETATM   33  C   UNK N   1      32.473  15.610   8.924  0.00  0.00     0.014 A 
ENDBRANCH   5  28
TORSDOF 5
ENDMDL
