MODEL 1
REMARK VINA RESULT:      -8.4      0.000      0.000
REMARK  2 active torsions:
REMARK  status: ('A' for Active; 'I' for Inactive)
REMARK    1  A    between atoms: C_9  and  C_17 
REMARK    2  A    between atoms: C_19  and  O_27 
ROOT
HETATM    1  C   UNK N   1      28.473  25.254  -6.927  0.00  0.00    -0.032 C 
HETATM    2  C   UNK N   1      29.138  24.077  -6.087  0.00  0.00    -0.032 C 
HETATM    3  C   UNK N   1      31.344  23.522  -4.710  0.00  0.00    -0.035 C 
HETATM    4  C   UNK N   1      28.354  26.600  -6.093  0.00  0.00    -0.000 C 
HETATM    5  C   UNK N   1      30.424  24.605  -5.385  0.00  0.00     0.003 C 
HETATM    6  C   UNK N   1      31.177  22.129  -5.389  0.00  0.00     0.004 C 
HETATM    7  C   UNK N   1      26.934  27.184  -5.795  0.00  0.00     0.006 C 
HETATM    8  C   UNK N   1      32.332  21.143  -5.021  0.00  0.00    -0.017 C 
HETATM    9  C   UNK N   1      26.566  27.761  -4.435  0.00  0.00     0.018 C 
HETATM   10  C   UNK N   1      25.786  26.228  -6.032  0.00  0.00    -0.039 C 
HETATM   11  C   UNK N   1      29.477  22.906  -7.061  0.00  0.00     0.011 C 
HETATM   12  C   UNK N   1      27.132  24.767  -7.558  0.00  0.00     0.011 C 
HETATM   13  C   UNK N   1      29.495  26.940  -5.129  0.00  0.00     0.006 C 
HETATM   14  C   UNK N   1      31.070  23.269  -3.199  0.00  0.00     0.012 C 
HETATM   15  C   UNK N   1      30.089  25.743  -4.409  0.00  0.00     0.006 C 
HETATM   16  C   UNK N   1      30.853  22.234  -6.872  0.00  0.00     0.007 C 
HETATM   17  C   UNK N   1      25.058  28.029  -4.585  0.00  0.00     0.010 C 
HETATM   18  C   UNK N   1      32.811  21.432  -3.576  0.00  0.00     0.126 C 
HETATM   19  C   UNK N   1      25.906  25.697  -7.452  0.00  0.00     0.010 C 
HETATM   20  C   UNK N   1      24.591  27.129  -5.751  0.00  0.00     0.010 C 
HETATM   21  C   UNK N   1      31.722  21.969  -2.639  0.00  0.00     0.033 C 
HETATM   22  C   UNK N   1      29.385  25.538  -8.137  0.00  0.00     0.016 C 
HETATM   23  C   UNK N   1      28.194  23.525  -5.021  0.00  0.00     0.016 C 
HETATM   24  C   UNK N   1      32.774  24.074  -4.822  0.00  0.00     0.016 C 
HETATM   25  C   UNK N   1      33.536  21.316  -5.939  0.00  0.00     0.018 C 
HETATM   26  C   UNK N   1      31.838  19.708  -5.171  0.00  0.00     0.018 C 
HETATM   27  C   UNK N   1      25.699  25.068  -5.036  0.00  0.00     0.015 C 
ENDROOT
BRANCH   9  28
HETATM   28  C   UNK N   1      27.339  28.975  -4.008  0.00  0.00    -0.089 C 
HETATM   29  C   UNK N   1      27.775  29.060  -2.755  0.00  0.00     0.014 C 
HETATM   30  C   UNK N   1      27.613  30.094  -4.958  0.00  0.00     0.043 C 
ENDBRANCH   9  28
BRANCH  18  31
HETATM   31  O   UNK N   1      33.543  20.382  -3.015  0.00  0.00    -0.395 OA
HETATM   32  H   UNK N   1      33.368  20.028  -2.128  0.00  0.00     0.210 HD
ENDBRANCH  18  31
TORSDOF 2
ENDMDL
MODEL 2
REMARK VINA RESULT:      -7.8     13.077     15.991
REMARK  2 active torsions:
REMARK  status: ('A' for Active; 'I' for Inactive)
REMARK    1  A    between atoms: C_9  and  C_17 
REMARK    2  A    between atoms: C_19  and  O_27 
ROOT
HETATM    1  C   UNK N   1      32.375  16.500   5.597  0.00  0.00    -0.032 C 
HETATM    2  C   UNK N   1      33.065  15.263   6.321  0.00  0.00    -0.032 C 
HETATM    3  C   UNK N   1      34.353  14.646   8.565  0.00  0.00    -0.035 C 
HETATM    4  C   UNK N   1      31.249  17.173   6.491  0.00  0.00    -0.000 C 
HETATM    5  C   UNK N   1      33.445  15.662   7.778  0.00  0.00     0.003 C 
HETATM    6  C   UNK N   1      35.220  13.787   7.595  0.00  0.00     0.004 C 
HETATM    7  C   UNK N   1      29.770  17.166   5.980  0.00  0.00     0.006 C 
HETATM    8  C   UNK N   1      36.395  13.063   8.327  0.00  0.00    -0.017 C 
HETATM    9  C   UNK N   1      28.596  16.877   6.904  0.00  0.00     0.018 C 
HETATM   10  C   UNK N   1      29.492  16.211   4.839  0.00  0.00    -0.039 C 
HETATM   11  C   UNK N   1      34.334  14.858   5.507  0.00  0.00     0.011 C 
HETATM   12  C   UNK N   1      31.902  16.086   4.169  0.00  0.00     0.011 C 
HETATM   13  C   UNK N   1      31.493  17.250   8.001  0.00  0.00     0.006 C 
HETATM   14  C   UNK N   1      33.587  13.614   9.443  0.00  0.00     0.012 C 
HETATM   15  C   UNK N   1      32.195  16.038   8.588  0.00  0.00     0.006 C 
HETATM   16  C   UNK N   1      35.601  14.538   6.327  0.00  0.00     0.007 C 
HETATM   17  C   UNK N   1      27.411  16.809   5.925  0.00  0.00     0.010 C 
HETATM   18  C   UNK N   1      35.954  12.697   9.766  0.00  0.00     0.126 C 
HETATM   19  C   UNK N   1      30.487  16.509   3.728  0.00  0.00     0.010 C 
HETATM   20  C   UNK N   1      28.033  16.531   4.539  0.00  0.00     0.010 C 
HETATM   21  C   UNK N   1      34.455  12.411   9.920  0.00  0.00     0.033 C 
HETATM   22  C   UNK N   1      33.464  17.563   5.347  0.00  0.00     0.016 C 
HETATM   23  C   UNK N   1      32.149  14.042   6.375  0.00  0.00     0.016 C 
HETATM   24  C   UNK N   1      35.198  15.507   9.518  0.00  0.00     0.016 C 
HETATM   25  C   UNK N   1      37.623  13.958   8.445  0.00  0.00     0.018 C 
HETATM   26  C   UNK N   1      36.799  11.826   7.532  0.00  0.00     0.018 C 
HETATM   27  C   UNK N   1      29.543  14.728   5.215  0.00  0.00     0.015 C 
ENDROOT
BRANCH   9  28
HETATM   28  C   UNK N   1      28.383  17.859   8.019  0.00  0.00    -0.089 C 
HETATM   29  C   UNK N   1      28.261  19.151   7.733  0.00  0.00     0.014 C 
HETATM   30  C   UNK N   1      28.322  17.414   9.443  0.00  0.00     0.043 C 
ENDBRANCH   9  28
BRANCH  18  31
HETATM   31  O   UNK N   1      36.759  11.720  10.360  0.00  0.00    -0.395 OA
HETATM   32  H   UNK N   1      37.656  11.898  10.684  0.00  0.00     0.210 HD
ENDBRANCH  18  31
TORSDOF 2
ENDMDL
MODEL 3
REMARK VINA RESULT:      -7.8     10.736     13.478
REMARK  2 active torsions:
REMARK  status: ('A' for Active; 'I' for Inactive)
REMARK    1  A    between atoms: C_9  and  C_17 
REMARK    2  A    between atoms: C_19  and  O_27 
ROOT
HETATM    1  C   UNK N   1      27.896  15.772   3.709  0.00  0.00    -0.032 C 
HETATM    2  C   UNK N   1      28.856  15.587   4.965  0.00  0.00    -0.032 C 
HETATM    3  C   UNK N   1      31.044  16.634   6.056  0.00  0.00    -0.035 C 
HETATM    4  C   UNK N   1      27.306  17.242   3.611  0.00  0.00    -0.000 C 
HETATM    5  C   UNK N   1      29.864  16.774   5.025  0.00  0.00     0.003 C 
HETATM    6  C   UNK N   1      31.372  15.140   6.348  0.00  0.00     0.004 C 
HETATM    7  C   UNK N   1      25.759  17.447   3.724  0.00  0.00     0.006 C 
HETATM    8  C   UNK N   1      32.760  14.957   7.042  0.00  0.00    -0.017 C 
HETATM    9  C   UNK N   1      25.150  18.585   4.530  0.00  0.00     0.018 C 
HETATM   10  C   UNK N   1      24.993  16.258   4.265  0.00  0.00    -0.039 C 
HETATM   11  C   UNK N   1      29.608  14.227   4.817  0.00  0.00     0.011 C 
HETATM   12  C   UNK N   1      26.820  14.643   3.692  0.00  0.00     0.011 C 
HETATM   13  C   UNK N   1      28.221  18.403   4.010  0.00  0.00     0.006 C 
HETATM   14  C   UNK N   1      30.784  17.272   7.451  0.00  0.00     0.012 C 
HETATM   15  C   UNK N   1      29.128  18.111   5.193  0.00  0.00     0.006 C 
HETATM   16  C   UNK N   1      31.113  14.236   5.151  0.00  0.00     0.007 C 
HETATM   17  C   UNK N   1      23.647  18.260   4.483  0.00  0.00     0.010 C 
HETATM   18  C   UNK N   1      33.040  16.176   7.955  0.00  0.00     0.126 C 
HETATM   19  C   UNK N   1      25.357  15.047   3.421  0.00  0.00     0.010 C 
HETATM   20  C   UNK N   1      23.559  16.755   4.146  0.00  0.00     0.010 C 
HETATM   21  C   UNK N   1      31.787  16.824   8.556  0.00  0.00     0.033 C 
HETATM   22  C   UNK N   1      28.734  15.523   2.439  0.00  0.00     0.016 C 
HETATM   23  C   UNK N   1      28.083  15.541   6.281  0.00  0.00     0.016 C 
HETATM   24  C   UNK N   1      32.226  17.393   5.428  0.00  0.00     0.016 C 
HETATM   25  C   UNK N   1      33.893  14.884   6.025  0.00  0.00     0.018 C 
HETATM   26  C   UNK N   1      32.763  13.652   7.831  0.00  0.00     0.018 C 
HETATM   27  C   UNK N   1      25.229  15.963   5.749  0.00  0.00     0.015 C 
ENDROOT
BRANCH   9  28
HETATM   28  C   UNK N   1      25.467  19.971   4.049  0.00  0.00    -0.089 C 
HETATM   29  C   UNK N   1      26.026  20.838   4.886  0.00  0.00     0.014 C 
HETATM   30  C   UNK N   1      25.152  20.398   2.653  0.00  0.00     0.043 C 
ENDBRANCH   9  28
BRANCH  18  31
HETATM   31  O   UNK N   1      34.040  15.939   8.904  0.00  0.00    -0.395 OA
HETATM   32  H   UNK N   1      33.853  15.803   9.847  0.00  0.00     0.210 HD
ENDBRANCH  18  31
TORSDOF 2
ENDMDL
MODEL 4
REMARK VINA RESULT:      -7.5     11.930     14.915
REMARK  2 active torsions:
REMARK  status: ('A' for Active; 'I' for Inactive)
REMARK    1  A    between atoms: C_9  and  C_17 
REMARK    2  A    between atoms: C_19  and  O_27 
ROOT
HETATM    1  C   UNK N   1      27.811  17.953   5.307  0.00  0.00    -0.032 C 
HETATM    2  C   UNK N   1      26.838  16.716   5.069  0.00  0.00    -0.032 C 
HETATM    3  C   UNK N   1      26.605  14.539   3.559  0.00  0.00    -0.035 C 
HETATM    4  C   UNK N   1      29.295  17.498   5.641  0.00  0.00    -0.000 C 
HETATM    5  C   UNK N   1      27.516  15.703   4.100  0.00  0.00     0.003 C 
HETATM    6  C   UNK N   1      25.102  14.950   3.550  0.00  0.00     0.004 C 
HETATM    7  C   UNK N   1      29.906  17.866   7.033  0.00  0.00     0.006 C 
HETATM    8  C   UNK N   1      24.228  13.997   2.672  0.00  0.00    -0.017 C 
HETATM    9  C   UNK N   1      30.739  16.880   7.838  0.00  0.00     0.018 C 
HETATM   10  C   UNK N   1      28.903  18.324   8.071  0.00  0.00    -0.039 C 
HETATM   11  C   UNK N   1      25.499  17.249   4.468  0.00  0.00     0.011 C 
HETATM   12  C   UNK N   1      27.186  18.930   6.351  0.00  0.00     0.011 C 
HETATM   13  C   UNK N   1      29.840  16.265   4.914  0.00  0.00     0.006 C 
HETATM   14  C   UNK N   1      26.658  13.219   4.381  0.00  0.00     0.012 C 
HETATM   15  C   UNK N   1      28.822  15.160   4.699  0.00  0.00     0.006 C 
HETATM   16  C   UNK N   1      24.901  16.438   3.301  0.00  0.00     0.007 C 
HETATM   17  C   UNK N   1      30.947  17.626   9.167  0.00  0.00     0.010 C 
HETATM   18  C   UNK N   1      24.810  12.563   2.739  0.00  0.00     0.126 C 
HETATM   19  C   UNK N   1      28.099  19.467   7.471  0.00  0.00     0.010 C 
HETATM   20  C   UNK N   1      29.824  18.685   9.229  0.00  0.00     0.010 C 
HETATM   21  C   UNK N   1      25.507  12.219   4.060  0.00  0.00     0.033 C 
HETATM   22  C   UNK N   1      27.859  18.768   4.000  0.00  0.00     0.016 C 
HETATM   23  C   UNK N   1      26.497  15.991   6.370  0.00  0.00     0.016 C 
HETATM   24  C   UNK N   1      27.145  14.217   2.156  0.00  0.00     0.016 C 
HETATM   25  C   UNK N   1      24.231  14.418   1.207  0.00  0.00     0.018 C 
HETATM   26  C   UNK N   1      22.785  14.041   3.163  0.00  0.00     0.018 C 
HETATM   27  C   UNK N   1      27.967  17.228   8.587  0.00  0.00     0.015 C 
ENDROOT
BRANCH   9  28
HETATM   28  C   UNK N   1      32.025  16.438   7.203  0.00  0.00    -0.089 C 
HETATM   29  C   UNK N   1      32.343  15.148   7.207  0.00  0.00     0.014 C 
HETATM   30  C   UNK N   1      32.961  17.423   6.582  0.00  0.00     0.043 C 
ENDBRANCH   9  28
BRANCH  18  31
HETATM   31  O   UNK N   1      23.905  11.579   2.328  0.00  0.00    -0.395 OA
HETATM   32  H   UNK N   1      23.778  11.331   1.398  0.00  0.00     0.210 HD
ENDBRANCH  18  31
TORSDOF 2
ENDMDL
MODEL 5
REMARK VINA RESULT:      -7.4     12.990     17.361
REMARK  2 active torsions:
REMARK  status: ('A' for Active; 'I' for Inactive)
REMARK    1  A    between atoms: C_9  and  C_17 
REMARK    2  A    between atoms: C_19  and  O_27 
ROOT
HETATM    1  C   UNK N   1      34.112  16.414   8.068  0.00  0.00    -0.032 C 
HETATM    2  C   UNK N   1      32.582  16.107   7.753  0.00  0.00    -0.032 C 
HETATM    3  C   UNK N   1      30.804  16.311   5.786  0.00  0.00    -0.035 C 
HETATM    4  C   UNK N   1      35.094  15.713   7.037  0.00  0.00    -0.000 C 
HETATM    5  C   UNK N   1      32.312  16.330   6.235  0.00  0.00     0.003 C 
HETATM    6  C   UNK N   1      29.856  16.716   6.954  0.00  0.00     0.004 C 
HETATM    7  C   UNK N   1      36.104  14.639   7.561  0.00  0.00     0.006 C 
HETATM    8  C   UNK N   1      28.421  17.086   6.458  0.00  0.00    -0.017 C 
HETATM    9  C   UNK N   1      36.377  13.347   6.806  0.00  0.00     0.018 C 
HETATM   10  C   UNK N   1      35.816  14.115   8.952  0.00  0.00    -0.039 C 
HETATM   11  C   UNK N   1      31.699  17.058   8.620  0.00  0.00     0.011 C 
HETATM   12  C   UNK N   1      34.420  16.103   9.565  0.00  0.00     0.011 C 
HETATM   13  C   UNK N   1      34.648  15.634   5.573  0.00  0.00     0.006 C 
HETATM   14  C   UNK N   1      30.276  14.931   5.297  0.00  0.00     0.012 C 
HETATM   15  C   UNK N   1      33.164  15.380   5.381  0.00  0.00     0.006 C 
HETATM   16  C   UNK N   1      30.495  17.712   7.911  0.00  0.00     0.007 C 
HETATM   17  C   UNK N   1      37.273  12.571   7.786  0.00  0.00     0.010 C 
HETATM   18  C   UNK N   1      28.070  16.224   5.219  0.00  0.00     0.126 C 
HETATM   19  C   UNK N   1      35.703  15.309   9.886  0.00  0.00     0.010 C 
HETATM   20  C   UNK N   1      37.013  13.199   9.173  0.00  0.00     0.010 C 
HETATM   21  C   UNK N   1      28.724  14.837   5.202  0.00  0.00     0.033 C 
HETATM   22  C   UNK N   1      34.319  17.937   7.943  0.00  0.00     0.016 C 
HETATM   23  C   UNK N   1      32.196  14.673   8.110  0.00  0.00     0.016 C 
HETATM   24  C   UNK N   1      30.723  17.272   4.589  0.00  0.00     0.016 C 
HETATM   25  C   UNK N   1      28.330  18.546   6.033  0.00  0.00     0.018 C 
HETATM   26  C   UNK N   1      27.424  16.871   7.591  0.00  0.00     0.018 C 
HETATM   27  C   UNK N   1      34.569  13.234   9.061  0.00  0.00     0.015 C 
ENDROOT
BRANCH   9  28
HETATM   28  C   UNK N   1      36.989  13.501   5.444  0.00  0.00    -0.089 C 
HETATM   29  C   UNK N   1      38.055  14.281   5.295  0.00  0.00     0.014 C 
HETATM   30  C   UNK N   1      36.414  12.809   4.253  0.00  0.00     0.043 C 
ENDBRANCH   9  28
BRANCH  18  31
HETATM   31  O   UNK N   1      26.700  16.185   4.942  0.00  0.00    -0.395 OA
HETATM   32  H   UNK N   1      26.103  16.929   5.117  0.00  0.00     0.210 HD
ENDBRANCH  18  31
TORSDOF 2
ENDMDL
MODEL 6
REMARK VINA RESULT:      -7.3      2.529      4.628
REMARK  2 active torsions:
REMARK  status: ('A' for Active; 'I' for Inactive)
REMARK    1  A    between atoms: C_9  and  C_17 
REMARK    2  A    between atoms: C_19  and  O_27 
ROOT
HETATM    1  C   UNK N   1      29.537  24.013  -4.383  0.00  0.00    -0.032 C 
HETATM    2  C   UNK N   1      29.804  23.332  -5.797  0.00  0.00    -0.032 C 
HETATM    3  C   UNK N   1      28.610  21.773  -7.590  0.00  0.00    -0.035 C 
HETATM    4  C   UNK N   1      28.236  24.923  -4.387  0.00  0.00    -0.000 C 
HETATM    5  C   UNK N   1      28.482  22.698  -6.324  0.00  0.00     0.003 C 
HETATM    6  C   UNK N   1      30.032  21.147  -7.697  0.00  0.00     0.004 C 
HETATM    7  C   UNK N   1      28.384  26.458  -4.120  0.00  0.00     0.006 C 
HETATM    8  C   UNK N   1      30.081  19.941  -8.690  0.00  0.00    -0.017 C 
HETATM    9  C   UNK N   1      27.612  27.496  -4.920  0.00  0.00     0.018 C 
HETATM   10  C   UNK N   1      29.796  26.992  -4.226  0.00  0.00    -0.039 C 
HETATM   11  C   UNK N   1      30.910  22.245  -5.620  0.00  0.00     0.011 C 
HETATM   12  C   UNK N   1      30.827  24.735  -3.887  0.00  0.00     0.011 C 
HETATM   13  C   UNK N   1      27.036  24.443  -5.208  0.00  0.00     0.006 C 
HETATM   14  C   UNK N   1      28.378  22.483  -8.955  0.00  0.00     0.012 C 
HETATM   15  C   UNK N   1      27.400  23.770  -6.520  0.00  0.00     0.006 C 
HETATM   16  C   UNK N   1      30.670  20.900  -6.337  0.00  0.00     0.007 C 
HETATM   17  C   UNK N   1      28.219  28.819  -4.422  0.00  0.00     0.010 C 
HETATM   18  C   UNK N   1      29.073  20.186  -9.842  0.00  0.00     0.126 C 
HETATM   19  C   UNK N   1      30.680  26.158  -3.313  0.00  0.00     0.010 C 
HETATM   20  C   UNK N   1      29.591  28.446  -3.819  0.00  0.00     0.010 C 
HETATM   21  C   UNK N   1      28.853  21.663 -10.192  0.00  0.00     0.033 C 
HETATM   22  C   UNK N   1      29.309  22.885  -3.356  0.00  0.00     0.016 C 
HETATM   23  C   UNK N   1      30.309  24.334  -6.833  0.00  0.00     0.016 C 
HETATM   24  C   UNK N   1      27.502  20.718  -7.438  0.00  0.00     0.016 C 
HETATM   25  C   UNK N   1      29.684  18.635  -8.013  0.00  0.00     0.018 C 
HETATM   26  C   UNK N   1      31.503  19.776  -9.215  0.00  0.00     0.018 C 
HETATM   27  C   UNK N   1      30.370  27.016  -5.646  0.00  0.00     0.015 C 
ENDROOT
BRANCH   9  28
HETATM   28  C   UNK N   1      26.118  27.447  -4.786  0.00  0.00    -0.089 C 
HETATM   29  C   UNK N   1      25.563  27.687  -3.603  0.00  0.00     0.014 C 
HETATM   30  C   UNK N   1      25.245  27.118  -5.953  0.00  0.00     0.043 C 
ENDBRANCH   9  28
BRANCH  18  31
HETATM   31  O   UNK N   1      29.313  19.389 -10.966  0.00  0.00    -0.395 OA
HETATM   32  H   UNK N   1      29.455  18.431 -10.914  0.00  0.00     0.210 HD
ENDBRANCH  18  31
TORSDOF 2
ENDMDL
MODEL 7
REMARK VINA RESULT:      -7.0     12.452     14.191
REMARK  2 active torsions:
REMARK  status: ('A' for Active; 'I' for Inactive)
REMARK    1  A    between atoms: C_9  and  C_17 
REMARK    2  A    between atoms: C_19  and  O_27 
ROOT
HETATM    1  C   UNK N   1      25.884  14.976   3.263  0.00  0.00    -0.032 C 
HETATM    2  C   UNK N   1      26.933  15.192   4.440  0.00  0.00    -0.032 C 
HETATM    3  C   UNK N   1      28.385  17.107   5.579  0.00  0.00    -0.035 C 
HETATM    4  C   UNK N   1      24.621  15.929   3.396  0.00  0.00    -0.000 C 
HETATM    5  C   UNK N   1      27.196  16.716   4.626  0.00  0.00     0.003 C 
HETATM    6  C   UNK N   1      29.457  15.978   5.645  0.00  0.00     0.004 C 
HETATM    7  C   UNK N   1      23.208  15.290   3.598  0.00  0.00     0.006 C 
HETATM    8  C   UNK N   1      30.810  16.473   6.250  0.00  0.00    -0.017 C 
HETATM    9  C   UNK N   1      22.194  15.860   4.580  0.00  0.00     0.018 C 
HETATM   10  C   UNK N   1      23.216  13.830   3.997  0.00  0.00    -0.039 C 
HETATM   11  C   UNK N   1      28.250  14.441   4.072  0.00  0.00     0.011 C 
HETATM   12  C   UNK N   1      25.537  13.461   3.129  0.00  0.00     0.011 C 
HETATM   13  C   UNK N   1      24.855  17.350   3.918  0.00  0.00     0.006 C 
HETATM   14  C   UNK N   1      27.988  17.374   7.059  0.00  0.00     0.012 C 
HETATM   15  C   UNK N   1      25.905  17.454   5.010  0.00  0.00     0.006 C 
HETATM   16  C   UNK N   1      29.568  15.196   4.344  0.00  0.00     0.007 C 
HETATM   17  C   UNK N   1      21.071  14.810   4.548  0.00  0.00     0.010 C 
HETATM   18  C   UNK N   1      30.526  17.563   7.314  0.00  0.00     0.126 C 
HETATM   19  C   UNK N   1      24.053  13.073   2.977  0.00  0.00     0.010 C 
HETATM   20  C   UNK N   1      21.725  13.519   4.006  0.00  0.00     0.010 C 
HETATM   21  C   UNK N   1      29.191  17.403   8.050  0.00  0.00     0.033 C 
HETATM   22  C   UNK N   1      26.591  15.326   1.937  0.00  0.00     0.016 C 
HETATM   23  C   UNK N   1      26.436  14.620   5.767  0.00  0.00     0.016 C 
HETATM   24  C   UNK N   1      28.941  18.426   5.018  0.00  0.00     0.016 C 
HETATM   25  C   UNK N   1      31.706  17.100   5.189  0.00  0.00     0.018 C 
HETATM   26  C   UNK N   1      31.561  15.287   6.847  0.00  0.00     0.018 C 
HETATM   27  C   UNK N   1      23.727  13.553   5.413  0.00  0.00     0.015 C 
ENDROOT
BRANCH   9  28
HETATM   28  C   UNK N   1      21.709  17.250   4.286  0.00  0.00    -0.089 C 
HETATM   29  C   UNK N   1      21.276  17.543   3.064  0.00  0.00     0.014 C 
HETATM   30  C   UNK N   1      21.719  18.313   5.335  0.00  0.00     0.043 C 
ENDBRANCH   9  28
BRANCH  18  31
HETATM   31  O   UNK N   1      31.602  17.784   8.179  0.00  0.00    -0.395 OA
HETATM   32  H   UNK N   1      31.567  18.412   8.919  0.00  0.00     0.210 HD
ENDBRANCH  18  31
TORSDOF 2
ENDMDL
MODEL 8
REMARK VINA RESULT:      -6.9     12.386     15.199
REMARK  2 active torsions:
REMARK  status: ('A' for Active; 'I' for Inactive)
REMARK    1  A    between atoms: C_9  and  C_17 
REMARK    2  A    between atoms: C_19  and  O_27 
ROOT
HETATM    1  C   UNK N   1      26.998  14.243   4.508  0.00  0.00    -0.032 C 
HETATM    2  C   UNK N   1      25.697  14.852   3.823  0.00  0.00    -0.032 C 
HETATM    3  C   UNK N   1      23.293  15.802   4.448  0.00  0.00    -0.035 C 
HETATM    4  C   UNK N   1      27.608  15.208   5.611  0.00  0.00    -0.000 C 
HETATM    5  C   UNK N   1      24.734  15.387   4.924  0.00  0.00     0.003 C 
HETATM    6  C   UNK N   1      22.874  15.031   3.161  0.00  0.00     0.004 C 
HETATM    7  C   UNK N   1      29.049  15.783   5.403  0.00  0.00     0.006 C 
HETATM    8  C   UNK N   1      21.338  15.116   2.888  0.00  0.00    -0.017 C 
HETATM    9  C   UNK N   1      29.395  17.231   5.715  0.00  0.00     0.018 C 
HETATM   10  C   UNK N   1      29.597  15.643   3.999  0.00  0.00    -0.039 C 
HETATM   11  C   UNK N   1      25.011  13.731   2.981  0.00  0.00     0.011 C 
HETATM   12  C   UNK N   1      28.015  13.791   3.414  0.00  0.00     0.011 C 
HETATM   13  C   UNK N   1      26.629  16.005   6.477  0.00  0.00     0.006 C 
HETATM   14  C   UNK N   1      23.122  17.307   4.092  0.00  0.00     0.012 C 
HETATM   15  C   UNK N   1      25.400  16.506   5.739  0.00  0.00     0.006 C 
HETATM   16  C   UNK N   1      23.476  13.634   3.091  0.00  0.00     0.007 C 
HETATM   17  C   UNK N   1      30.836  17.349   5.189  0.00  0.00     0.010 C 
HETATM   18  C   UNK N   1      20.806  16.486   3.377  0.00  0.00     0.126 C 
HETATM   19  C   UNK N   1      29.495  14.178   3.602  0.00  0.00     0.010 C 
HETATM   20  C   UNK N   1      31.005  16.194   4.178  0.00  0.00     0.010 C 
HETATM   21  C   UNK N   1      21.823  17.631   3.294  0.00  0.00     0.033 C 
HETATM   22  C   UNK N   1      26.587  12.935   5.213  0.00  0.00     0.016 C 
HETATM   23  C   UNK N   1      26.030  15.999   2.870  0.00  0.00     0.016 C 
HETATM   24  C   UNK N   1      22.371  15.516   5.645  0.00  0.00     0.016 C 
HETATM   25  C   UNK N   1      20.570  14.038   3.644  0.00  0.00     0.018 C 
HETATM   26  C   UNK N   1      21.077  14.912   1.399  0.00  0.00     0.018 C 
HETATM   27  C   UNK N   1      28.914  16.526   2.951  0.00  0.00     0.015 C 
ENDROOT
BRANCH   9  28
HETATM   28  C   UNK N   1      29.257  17.642   7.152  0.00  0.00    -0.089 C 
HETATM   29  C   UNK N   1      29.924  16.972   8.087  0.00  0.00     0.014 C 
HETATM   30  C   UNK N   1      28.374  18.777   7.553  0.00  0.00     0.043 C 
ENDBRANCH   9  28
BRANCH  18  31
HETATM   31  O   UNK N   1      19.561  16.822   2.836  0.00  0.00    -0.395 OA
HETATM   32  H   UNK N   1      18.892  16.162   2.596  0.00  0.00     0.210 HD
ENDBRANCH  18  31
TORSDOF 2
ENDMDL
MODEL 9
REMARK VINA RESULT:      -6.9     20.628     25.102
REMARK  2 active torsions:
REMARK  status: ('A' for Active; 'I' for Inactive)
REMARK    1  A    between atoms: C_9  and  C_17 
REMARK    2  A    between atoms: C_19  and  O_27 
ROOT
HETATM    1  C   UNK N   1      36.896  11.873  14.408  0.00  0.00    -0.032 C 
HETATM    2  C   UNK N   1      35.958  11.464  13.190  0.00  0.00    -0.032 C 
HETATM    3  C   UNK N   1      35.354   9.368  11.668  0.00  0.00    -0.035 C 
HETATM    4  C   UNK N   1      36.674  10.948  15.679  0.00  0.00    -0.000 C 
HETATM    5  C   UNK N   1      36.026   9.922  12.979  0.00  0.00     0.003 C 
HETATM    6  C   UNK N   1      35.325  10.446  10.543  0.00  0.00     0.004 C 
HETATM    7  C   UNK N   1      36.146  11.593  17.003  0.00  0.00     0.006 C 
HETATM    8  C   UNK N   1      35.036   9.832   9.136  0.00  0.00    -0.017 C 
HETATM    9  C   UNK N   1      35.089  10.919  17.865  0.00  0.00     0.018 C 
HETATM   10  C   UNK N   1      35.564  12.981  16.851  0.00  0.00    -0.039 C 
HETATM   11  C   UNK N   1      36.445  12.221  11.915  0.00  0.00     0.011 C 
HETATM   12  C   UNK N   1      36.764  13.401  14.693  0.00  0.00     0.011 C 
HETATM   13  C   UNK N   1      36.395   9.462  15.435  0.00  0.00     0.006 C 
HETATM   14  C   UNK N   1      33.876   8.907  11.825  0.00  0.00     0.012 C 
HETATM   15  C   UNK N   1      35.525   9.176  14.224  0.00  0.00     0.006 C 
HETATM   16  C   UNK N   1      36.510  11.399  10.612  0.00  0.00     0.007 C 
HETATM   17  C   UNK N   1      34.785  11.996  18.921  0.00  0.00     0.010 C 
HETATM   18  C   UNK N   1      34.093   8.612   9.293  0.00  0.00     0.126 C 
HETATM   19  C   UNK N   1      36.604  13.849  16.159  0.00  0.00     0.010 C 
HETATM   20  C   UNK N   1      35.255  13.330  18.301  0.00  0.00     0.010 C 
HETATM   21  C   UNK N   1      33.123   8.705  10.476  0.00  0.00     0.033 C 
HETATM   22  C   UNK N   1      38.359  11.693  13.953  0.00  0.00     0.016 C 
HETATM   23  C   UNK N   1      34.501  11.859  13.426  0.00  0.00     0.016 C 
HETATM   24  C   UNK N   1      36.174   8.125  11.284  0.00  0.00     0.016 C 
HETATM   25  C   UNK N   1      36.310   9.334   8.464  0.00  0.00     0.018 C 
HETATM   26  C   UNK N   1      34.425  10.900   8.235  0.00  0.00     0.018 C 
HETATM   27  C   UNK N   1      34.233  13.042  16.097  0.00  0.00     0.015 C 
ENDROOT
BRANCH   9  28
HETATM   28  C   UNK N   1      35.476   9.599  18.465  0.00  0.00    -0.089 C 
HETATM   29  C   UNK N   1      34.596   8.603  18.470  0.00  0.00     0.014 C 
HETATM   30  C   UNK N   1      36.825   9.389  19.071  0.00  0.00     0.043 C 
ENDBRANCH   9  28
BRANCH  18  31
HETATM   31  O   UNK N   1      33.465   8.241   8.100  0.00  0.00    -0.395 OA
HETATM   32  H   UNK N   1      33.806   8.483   7.225  0.00  0.00     0.210 HD
ENDBRANCH  18  31
TORSDOF 2
ENDMDL
