REMARK  2 active torsions:
REMARK  status: ('A' for Active; 'I' for Inactive)
REMARK    1  A    between atoms: S_2  and  N_4 
REMARK    2  A    between atoms: S_2  and  C_11 
ROOT
HETATM    1  C   UNK N   1      -0.703  -1.916   0.042  0.00  0.00     0.086 A 
HETATM    2  C   UNK N   1      -1.544  -3.033  -0.038  0.00  0.00     0.026 A 
HETATM    3  C   UNK N   1      -1.021  -4.326  -0.107  0.00  0.00     0.002 A 
HETATM    4  C   UNK N   1       0.359  -4.521  -0.084  0.00  0.00     0.014 A 
HETATM    5  C   UNK N   1       1.215  -3.425  -0.005  0.00  0.00    -0.009 A 
HETATM    6  C   UNK N   1       0.696  -2.107   0.056  0.00  0.00    -0.000 A 
HETATM    7  C   UNK N   1       1.584  -1.035   0.149  0.00  0.00     0.031 A 
HETATM    8  C   UNK N   1       2.597  -3.620   0.031  0.00  0.00     0.100 A 
HETATM    9  N   UNK N   1       3.434  -2.555   0.115  0.00  0.00    -0.374 N 
ATOM     10  HN  UNK N   1       4.442  -2.714   0.138  1.00  0.00     0.164 HD
HETATM   11  C   UNK N   1       2.961  -1.279   0.172  0.00  0.00     0.088 A 
ENDROOT
BRANCH   1  12
HETATM   12  S   UNK N   1      -1.496  -0.307   0.269  0.00  0.00     0.244 S 
HETATM   13  O   UNK N   1      -3.027  -0.353   0.118  0.00  0.00    -0.206 OA
HETATM   14  O   UNK N   1      -1.517  -0.372   1.799  0.00  0.00    -0.206 OA
BRANCH  12  15
HETATM   15  N   UNK N   1      -0.965   1.393   0.205  0.00  0.00    -0.205 NA
HETATM   16  C   UNK N   1      -2.119   2.228  -0.124  0.00  0.00     0.127 C 
HETATM   17  C   UNK N   1      -1.980   3.606   0.510  0.00  0.00     0.129 C 
HETATM   18  N   UNK N   1      -0.888   4.346  -0.110  0.00  0.00    -0.420 N 
HETATM   19  C   UNK N   1       0.357   3.850   0.461  0.00  0.00     0.115 C 
HETATM   20  H   UNK N   1      -0.979   5.077  -0.814  0.00  0.00     0.153 HD
HETATM   21  C   UNK N   1       0.984   2.768  -0.431  0.00  0.00     0.035 C 
HETATM   22  C   UNK N   1       0.042   1.614  -0.822  0.00  0.00     0.109 C 
ENDBRANCH  12  15
ENDBRANCH   1  12
TORSDOF 2
