MODEL 1
REMARK VINA RESULT:      -6.6      0.000      0.000
REMARK  2 active torsions:
REMARK  status: ('A' for Active; 'I' for Inactive)
REMARK    1  A    between atoms: S_2  and  N_4 
REMARK    2  A    between atoms: S_2  and  C_11 
ROOT
HETATM    1  C   UNK N   1      21.430  13.579   9.475  0.00  0.00     0.086 A 
HETATM    2  C   UNK N   1      20.286  13.190  10.182  0.00  0.00     0.026 A 
HETATM    3  C   UNK N   1      20.382  12.411  11.337  0.00  0.00     0.002 A 
HETATM    4  C   UNK N   1      21.634  12.019  11.810  0.00  0.00     0.014 A 
HETATM    5  C   UNK N   1      22.785  12.393  11.122  0.00  0.00    -0.009 A 
HETATM    6  C   UNK N   1      22.700  13.176   9.943  0.00  0.00    -0.000 A 
HETATM    7  C   UNK N   1      23.876  13.544   9.290  0.00  0.00     0.031 A 
HETATM    8  C   UNK N   1      24.040  12.011  11.602  0.00  0.00     0.100 A 
HETATM    9  N   UNK N   1      25.165  12.381  10.939  0.00  0.00    -0.374 N 
ATOM     10  HN  UNK N   1      26.074  12.091  11.301  1.00  0.00     0.164 HD
HETATM   11  C   UNK N   1      25.110  13.130   9.803  0.00  0.00     0.088 A 
ENDROOT
BRANCH   1  12
HETATM   12  S   UNK N   1      21.189  14.703   8.079  0.00  0.00     0.244 S 
HETATM   13  O   UNK N   1      19.755  14.684   7.519  0.00  0.00    -0.206 OA
HETATM   14  O   UNK N   1      20.974  15.953   8.936  0.00  0.00    -0.206 OA
BRANCH  12  15
HETATM   15  N   UNK N   1      22.252  15.516   6.902  0.00  0.00    -0.205 NA
HETATM   16  C   UNK N   1      21.474  16.538   6.203  0.00  0.00     0.127 C 
HETATM   17  C   UNK N   1      22.367  17.703   5.796  0.00  0.00     0.129 C 
HETATM   18  N   UNK N   1      23.311  17.288   4.766  0.00  0.00    -0.420 N 
HETATM   19  C   UNK N   1      24.390  16.565   5.427  0.00  0.00     0.115 C 
HETATM   20  H   UNK N   1      23.232  17.471   3.767  0.00  0.00     0.153 HD
HETATM   21  C   UNK N   1      24.146  15.049   5.390  0.00  0.00     0.035 C 
HETATM   22  C   UNK N   1      22.766  14.595   5.900  0.00  0.00     0.109 C 
ENDBRANCH  12  15
ENDBRANCH   1  12
TORSDOF 2
ENDMDL
MODEL 2
REMARK VINA RESULT:      -6.5      9.462     12.130
REMARK  2 active torsions:
REMARK  status: ('A' for Active; 'I' for Inactive)
REMARK    1  A    between atoms: S_2  and  N_4 
REMARK    2  A    between atoms: S_2  and  C_11 
ROOT
HETATM    1  C   UNK N   1      32.658  16.713   6.052  0.00  0.00     0.086 A 
HETATM    2  C   UNK N   1      32.705  16.831   4.657  0.00  0.00     0.026 A 
HETATM    3  C   UNK N   1      31.582  17.226   3.928  0.00  0.00     0.002 A 
HETATM    4  C   UNK N   1      30.391  17.523   4.589  0.00  0.00     0.014 A 
HETATM    5  C   UNK N   1      30.320  17.413   5.976  0.00  0.00    -0.009 A 
HETATM    6  C   UNK N   1      31.452  17.004   6.727  0.00  0.00    -0.000 A 
HETATM    7  C   UNK N   1      31.347  16.919   8.115  0.00  0.00     0.031 A 
HETATM    8  C   UNK N   1      29.132  17.723   6.641  0.00  0.00     0.100 A 
HETATM    9  N   UNK N   1      29.061  17.624   7.993  0.00  0.00    -0.374 N 
ATOM     10  HN  UNK N   1      28.185  17.852   8.464  1.00  0.00     0.164 HD
HETATM   11  C   UNK N   1      30.132  17.230   8.736  0.00  0.00     0.088 A 
ENDROOT
BRANCH   1  12
HETATM   12  S   UNK N   1      34.210  16.332   6.896  0.00  0.00     0.244 S 
HETATM   13  O   UNK N   1      35.365  16.001   5.934  0.00  0.00    -0.206 OA
HETATM   14  O   UNK N   1      34.627  17.792   7.097  0.00  0.00    -0.206 OA
BRANCH  12  15
HETATM   15  N   UNK N   1      34.672  15.824   8.541  0.00  0.00    -0.205 NA
HETATM   16  C   UNK N   1      33.819  14.706   8.939  0.00  0.00     0.127 C 
HETATM   17  C   UNK N   1      34.564  13.775   9.886  0.00  0.00     0.129 C 
HETATM   18  N   UNK N   1      34.808  14.435  11.163  0.00  0.00    -0.420 N 
HETATM   19  C   UNK N   1      35.948  15.325  10.985  0.00  0.00     0.115 C 
HETATM   20  H   UNK N   1      34.279  14.297  12.023  0.00  0.00     0.153 HD
HETATM   21  C   UNK N   1      35.489  16.758  10.675  0.00  0.00     0.035 C 
HETATM   22  C   UNK N   1      34.483  16.888   9.516  0.00  0.00     0.109 C 
ENDBRANCH  12  15
ENDBRANCH   1  12
TORSDOF 2
ENDMDL
MODEL 3
REMARK VINA RESULT:      -6.5     14.664     15.841
REMARK  2 active torsions:
REMARK  status: ('A' for Active; 'I' for Inactive)
REMARK    1  A    between atoms: S_2  and  N_4 
REMARK    2  A    between atoms: S_2  and  C_11 
ROOT
HETATM    1  C   UNK N   1      35.272  11.623  17.175  0.00  0.00     0.086 A 
HETATM    2  C   UNK N   1      35.022  12.700  18.034  0.00  0.00     0.026 A 
HETATM    3  C   UNK N   1      35.372  12.641  19.385  0.00  0.00     0.002 A 
HETATM    4  C   UNK N   1      35.991  11.501  19.895  0.00  0.00     0.014 A 
HETATM    5  C   UNK N   1      36.249  10.417  19.059  0.00  0.00    -0.009 A 
HETATM    6  C   UNK N   1      35.890  10.462  17.688  0.00  0.00    -0.000 A 
HETATM    7  C   UNK N   1      36.178   9.362  16.878  0.00  0.00     0.031 A 
HETATM    8  C   UNK N   1      36.881   9.280  19.565  0.00  0.00     0.100 A 
HETATM    9  N   UNK N   1      37.140   8.225  18.752  0.00  0.00    -0.374 N 
ATOM     10  HN  UNK N   1      37.601   7.400  19.139  1.00  0.00     0.164 HD
HETATM   11  C   UNK N   1      36.803   8.241  17.433  0.00  0.00     0.088 A 
ENDROOT
BRANCH   1  12
HETATM   12  S   UNK N   1      34.905  11.870  15.422  0.00  0.00     0.244 S 
HETATM   13  O   UNK N   1      33.752  10.990  14.908  0.00  0.00    -0.206 OA
HETATM   14  O   UNK N   1      34.033  13.112  15.631  0.00  0.00    -0.206 OA
BRANCH  12  15
HETATM   15  N   UNK N   1      35.779  12.543  14.022  0.00  0.00    -0.205 NA
HETATM   16  C   UNK N   1      37.018  11.789  13.841  0.00  0.00     0.127 C 
HETATM   17  C   UNK N   1      37.411  11.750  12.370  0.00  0.00     0.129 C 
HETATM   18  N   UNK N   1      37.798  13.077  11.909  0.00  0.00    -0.420 N 
HETATM   19  C   UNK N   1      36.575  13.830  11.664  0.00  0.00     0.115 C 
HETATM   20  H   UNK N   1      38.750  13.416  11.781  0.00  0.00     0.153 HD
HETATM   21  C   UNK N   1      36.200  14.691  12.879  0.00  0.00     0.035 C 
HETATM   22  C   UNK N   1      36.141  13.939  14.222  0.00  0.00     0.109 C 
ENDBRANCH  12  15
ENDBRANCH   1  12
TORSDOF 2
ENDMDL
MODEL 4
REMARK VINA RESULT:      -6.4      9.669     12.370
REMARK  2 active torsions:
REMARK  status: ('A' for Active; 'I' for Inactive)
REMARK    1  A    between atoms: S_2  and  N_4 
REMARK    2  A    between atoms: S_2  and  C_11 
ROOT
HETATM    1  C   UNK N   1      32.214  17.237   7.046  0.00  0.00     0.086 A 
HETATM    2  C   UNK N   1      31.128  17.202   7.930  0.00  0.00     0.026 A 
HETATM    3  C   UNK N   1      29.818  17.094   7.459  0.00  0.00     0.002 A 
HETATM    4  C   UNK N   1      29.575  17.005   6.090  0.00  0.00     0.014 A 
HETATM    5  C   UNK N   1      30.639  17.037   5.191  0.00  0.00    -0.009 A 
HETATM    6  C   UNK N   1      31.973  17.157   5.657  0.00  0.00    -0.000 A 
HETATM    7  C   UNK N   1      33.014  17.171   4.728  0.00  0.00     0.031 A 
HETATM    8  C   UNK N   1      30.398  16.936   3.820  0.00  0.00     0.100 A 
HETATM    9  N   UNK N   1      31.433  16.960   2.942  0.00  0.00    -0.374 N 
ATOM     10  HN  UNK N   1      31.240  16.887   1.942  1.00  0.00     0.164 HD
HETATM   11  C   UNK N   1      32.723  17.076   3.363  0.00  0.00     0.088 A 
ENDROOT
BRANCH   1  12
HETATM   12  S   UNK N   1      33.867  17.236   7.777  0.00  0.00     0.244 S 
HETATM   13  O   UNK N   1      34.767  18.371   7.256  0.00  0.00    -0.206 OA
HETATM   14  O   UNK N   1      33.459  17.974   9.056  0.00  0.00    -0.206 OA
BRANCH  12  15
HETATM   15  N   UNK N   1      34.884  16.040   8.620  0.00  0.00    -0.205 NA
HETATM   16  C   UNK N   1      34.393  14.702   8.296  0.00  0.00     0.127 C 
HETATM   17  C   UNK N   1      35.537  13.695   8.307  0.00  0.00     0.129 C 
HETATM   18  N   UNK N   1      36.041  13.510   9.662  0.00  0.00    -0.420 N 
HETATM   19  C   UNK N   1      36.905  14.642   9.967  0.00  0.00     0.115 C 
HETATM   20  H   UNK N   1      35.828  12.730  10.283  0.00  0.00     0.153 HD
HETATM   21  C   UNK N   1      36.138  15.737  10.725  0.00  0.00     0.035 C 
HETATM   22  C   UNK N   1      34.822  16.190  10.067  0.00  0.00     0.109 C 
ENDBRANCH  12  15
ENDBRANCH   1  12
TORSDOF 2
ENDMDL
MODEL 5
REMARK VINA RESULT:      -6.4      8.122     10.599
REMARK  2 active torsions:
REMARK  status: ('A' for Active; 'I' for Inactive)
REMARK    1  A    between atoms: S_2  and  N_4 
REMARK    2  A    between atoms: S_2  and  C_11 
ROOT
HETATM    1  C   UNK N   1      30.282  16.691   6.268  0.00  0.00     0.086 A 
HETATM    2  C   UNK N   1      30.196  16.800   4.875  0.00  0.00     0.026 A 
HETATM    3  C   UNK N   1      29.263  17.648   4.274  0.00  0.00     0.002 A 
HETATM    4  C   UNK N   1      28.406  18.413   5.064  0.00  0.00     0.014 A 
HETATM    5  C   UNK N   1      28.473  18.320   6.453  0.00  0.00    -0.009 A 
HETATM    6  C   UNK N   1      29.410  17.456   7.074  0.00  0.00    -0.000 A 
HETATM    7  C   UNK N   1      29.458  17.401   8.467  0.00  0.00     0.031 A 
HETATM    8  C   UNK N   1      27.625  19.095   7.245  0.00  0.00     0.100 A 
HETATM    9  N   UNK N   1      27.692  19.013   8.598  0.00  0.00    -0.374 N 
ATOM     10  HN  UNK N   1      27.063  19.585   9.164  1.00  0.00     0.164 HD
HETATM   11  C   UNK N   1      28.581  18.189   9.220  0.00  0.00     0.088 A 
ENDROOT
BRANCH   1  12
HETATM   12  S   UNK N   1      31.620  15.671   6.930  0.00  0.00     0.244 S 
HETATM   13  O   UNK N   1      31.453  14.171   6.628  0.00  0.00    -0.206 OA
HETATM   14  O   UNK N   1      32.584  15.929   5.768  0.00  0.00    -0.206 OA
BRANCH  12  15
HETATM   15  N   UNK N   1      32.862  15.866   8.193  0.00  0.00    -0.205 NA
HETATM   16  C   UNK N   1      32.398  15.198   9.408  0.00  0.00     0.127 C 
HETATM   17  C   UNK N   1      33.579  14.666  10.210  0.00  0.00     0.129 C 
HETATM   18  N   UNK N   1      34.364  15.767  10.754  0.00  0.00    -0.420 N 
HETATM   19  C   UNK N   1      35.201  16.282   9.679  0.00  0.00     0.115 C 
HETATM   20  H   UNK N   1      34.334  16.113  11.712  0.00  0.00     0.153 HD
HETATM   21  C   UNK N   1      34.542  17.488   8.993  0.00  0.00     0.035 C 
HETATM   22  C   UNK N   1      33.093  17.265   8.524  0.00  0.00     0.109 C 
ENDBRANCH  12  15
ENDBRANCH   1  12
TORSDOF 2
ENDMDL
MODEL 6
REMARK VINA RESULT:      -6.4     14.472     15.319
REMARK  2 active torsions:
REMARK  status: ('A' for Active; 'I' for Inactive)
REMARK    1  A    between atoms: S_2  and  N_4 
REMARK    2  A    between atoms: S_2  and  C_11 
ROOT
HETATM    1  C   UNK N   1      35.227  10.741  16.344  0.00  0.00     0.086 A 
HETATM    2  C   UNK N   1      35.213   9.395  16.728  0.00  0.00     0.026 A 
HETATM    3  C   UNK N   1      35.241   9.029  18.075  0.00  0.00     0.002 A 
HETATM    4  C   UNK N   1      35.272  10.012  19.063  0.00  0.00     0.014 A 
HETATM    5  C   UNK N   1      35.287  11.357  18.705  0.00  0.00    -0.009 A 
HETATM    6  C   UNK N   1      35.267  11.741  17.340  0.00  0.00    -0.000 A 
HETATM    7  C   UNK N   1      35.268  13.099  17.020  0.00  0.00     0.031 A 
HETATM    8  C   UNK N   1      35.305  12.343  19.694  0.00  0.00     0.100 A 
HETATM    9  N   UNK N   1      35.312  13.655  19.349  0.00  0.00    -0.374 N 
ATOM     10  HN  UNK N   1      35.327  14.364  20.084  1.00  0.00     0.164 HD
HETATM   11  C   UNK N   1      35.296  14.050  18.046  0.00  0.00     0.088 A 
ENDROOT
BRANCH   1  12
HETATM   12  S   UNK N   1      35.043  11.093  14.580  0.00  0.00     0.244 S 
HETATM   13  O   UNK N   1      34.309   9.982  13.808  0.00  0.00    -0.206 OA
HETATM   14  O   UNK N   1      33.804  11.979  14.738  0.00  0.00    -0.206 OA
BRANCH  12  15
HETATM   15  N   UNK N   1      35.842  12.173  13.408  0.00  0.00    -0.205 NA
HETATM   16  C   UNK N   1      37.153  11.615  13.082  0.00  0.00     0.127 C 
HETATM   17  C   UNK N   1      37.548  11.976  11.656  0.00  0.00     0.129 C 
HETATM   18  N   UNK N   1      37.794  13.408  11.541  0.00  0.00    -0.420 N 
HETATM   19  C   UNK N   1      36.500  14.069  11.454  0.00  0.00     0.115 C 
HETATM   20  H   UNK N   1      38.706  13.863  11.524  0.00  0.00     0.153 HD
HETATM   21  C   UNK N   1      36.037  14.565  12.832  0.00  0.00     0.035 C 
HETATM   22  C   UNK N   1      36.057  13.506  13.950  0.00  0.00     0.109 C 
ENDBRANCH  12  15
ENDBRANCH   1  12
TORSDOF 2
ENDMDL
MODEL 7
REMARK VINA RESULT:      -6.3     12.242     13.463
REMARK  2 active torsions:
REMARK  status: ('A' for Active; 'I' for Inactive)
REMARK    1  A    between atoms: S_2  and  N_4 
REMARK    2  A    between atoms: S_2  and  C_11 
ROOT
HETATM    1  C   UNK N   1      35.236  12.251  12.893  0.00  0.00     0.086 A 
HETATM    2  C   UNK N   1      34.418  11.146  12.630  0.00  0.00     0.026 A 
HETATM    3  C   UNK N   1      33.804  10.440  13.668  0.00  0.00     0.002 A 
HETATM    4  C   UNK N   1      33.993  10.841  14.989  0.00  0.00     0.014 A 
HETATM    5  C   UNK N   1      34.803  11.938  15.274  0.00  0.00    -0.009 A 
HETATM    6  C   UNK N   1      35.439  12.656  14.230  0.00  0.00    -0.000 A 
HETATM    7  C   UNK N   1      36.231  13.758  14.554  0.00  0.00     0.031 A 
HETATM    8  C   UNK N   1      34.982  12.348  16.597  0.00  0.00     0.100 A 
HETATM    9  N   UNK N   1      35.765  13.420  16.878  0.00  0.00    -0.374 N 
ATOM     10  HN  UNK N   1      35.888  13.707  17.850  1.00  0.00     0.164 HD
HETATM   11  C   UNK N   1      36.389  14.126  15.894  0.00  0.00     0.088 A 
ENDROOT
BRANCH   1  12
HETATM   12  S   UNK N   1      35.859  13.168  11.464  0.00  0.00     0.244 S 
HETATM   13  O   UNK N   1      37.378  13.022  11.258  0.00  0.00    -0.206 OA
HETATM   14  O   UNK N   1      35.488  12.098  10.434  0.00  0.00    -0.206 OA
BRANCH  12  15
HETATM   15  N   UNK N   1      35.275  14.530  10.473  0.00  0.00    -0.205 NA
HETATM   16  C   UNK N   1      35.119  15.699  11.337  0.00  0.00     0.127 C 
HETATM   17  C   UNK N   1      35.370  16.980  10.552  0.00  0.00     0.129 C 
HETATM   18  N   UNK N   1      34.315  17.191   9.568  0.00  0.00    -0.420 N 
HETATM   19  C   UNK N   1      34.596  16.324   8.432  0.00  0.00     0.115 C 
HETATM   20  H   UNK N   1      33.525  17.829   9.659  0.00  0.00     0.153 HD
HETATM   21  C   UNK N   1      33.820  15.003   8.537  0.00  0.00     0.035 C 
HETATM   22  C   UNK N   1      33.979  14.253   9.873  0.00  0.00     0.109 C 
ENDBRANCH  12  15
ENDBRANCH   1  12
TORSDOF 2
ENDMDL
MODEL 8
REMARK VINA RESULT:      -6.1      1.611      2.098
REMARK  2 active torsions:
REMARK  status: ('A' for Active; 'I' for Inactive)
REMARK    1  A    between atoms: S_2  and  N_4 
REMARK    2  A    between atoms: S_2  and  C_11 
ROOT
HETATM    1  C   UNK N   1      20.970  14.327   8.724  0.00  0.00     0.086 A 
HETATM    2  C   UNK N   1      20.147  13.901   9.774  0.00  0.00     0.026 A 
HETATM    3  C   UNK N   1      20.601  12.976  10.716  0.00  0.00     0.002 A 
HETATM    4  C   UNK N   1      21.896  12.470  10.627  0.00  0.00     0.014 A 
HETATM    5  C   UNK N   1      22.733  12.878   9.591  0.00  0.00    -0.009 A 
HETATM    6  C   UNK N   1      22.280  13.810   8.623  0.00  0.00    -0.000 A 
HETATM    7  C   UNK N   1      23.151  14.206   7.608  0.00  0.00     0.031 A 
HETATM    8  C   UNK N   1      24.035  12.381   9.508  0.00  0.00     0.100 A 
HETATM    9  N   UNK N   1      24.855  12.782   8.504  0.00  0.00    -0.374 N 
ATOM     10  HN  UNK N   1      25.804  12.408   8.456  1.00  0.00     0.164 HD
HETATM   11  C   UNK N   1      24.444  13.674   7.560  0.00  0.00     0.088 A 
ENDROOT
BRANCH   1  12
HETATM   12  S   UNK N   1      20.323  15.631   7.651  0.00  0.00     0.244 S 
HETATM   13  O   UNK N   1      18.831  15.928   7.882  0.00  0.00    -0.206 OA
HETATM   14  O   UNK N   1      20.820  16.790   8.520  0.00  0.00    -0.206 OA
BRANCH  12  15
HETATM   15  N   UNK N   1      20.825  16.379   6.114  0.00  0.00    -0.205 NA
HETATM   16  C   UNK N   1      21.251  17.751   6.382  0.00  0.00     0.127 C 
HETATM   17  C   UNK N   1      22.332  18.177   5.397  0.00  0.00     0.129 C 
HETATM   18  N   UNK N   1      21.782  18.292   4.052  0.00  0.00    -0.420 N 
HETATM   19  C   UNK N   1      21.678  16.945   3.506  0.00  0.00     0.115 C 
HETATM   20  H   UNK N   1      21.519  19.156   3.580  0.00  0.00     0.153 HD
HETATM   21  C   UNK N   1      20.267  16.372   3.709  0.00  0.00     0.035 C 
HETATM   22  C   UNK N   1      19.734  16.439   5.152  0.00  0.00     0.109 C 
ENDBRANCH  12  15
ENDBRANCH   1  12
TORSDOF 2
ENDMDL
MODEL 9
REMARK VINA RESULT:      -6.0      9.467     11.851
REMARK  2 active torsions:
REMARK  status: ('A' for Active; 'I' for Inactive)
REMARK    1  A    between atoms: S_2  and  N_4 
REMARK    2  A    between atoms: S_2  and  C_11 
ROOT
HETATM    1  C   UNK N   1      31.966  17.180   7.882  0.00  0.00     0.086 A 
HETATM    2  C   UNK N   1      31.428  18.164   8.720  0.00  0.00     0.026 A 
HETATM    3  C   UNK N   1      30.065  18.467   8.694  0.00  0.00     0.002 A 
HETATM    4  C   UNK N   1      29.215  17.777   7.831  0.00  0.00     0.014 A 
HETATM    5  C   UNK N   1      29.728  16.795   6.987  0.00  0.00    -0.009 A 
HETATM    6  C   UNK N   1      31.111  16.484   6.999  0.00  0.00    -0.000 A 
HETATM    7  C   UNK N   1      31.586  15.484   6.150  0.00  0.00     0.031 A 
HETATM    8  C   UNK N   1      28.875  16.094   6.132  0.00  0.00     0.100 A 
HETATM    9  N   UNK N   1      29.370  15.131   5.314  0.00  0.00    -0.374 N 
ATOM     10  HN  UNK N   1      28.734  14.630   4.693  1.00  0.00     0.164 HD
HETATM   11  C   UNK N   1      30.695  14.816   5.304  0.00  0.00     0.088 A 
ENDROOT
BRANCH   1  12
HETATM   12  S   UNK N   1      33.715  16.777   8.107  0.00  0.00     0.244 S 
HETATM   13  O   UNK N   1      34.567  17.028   6.850  0.00  0.00    -0.206 OA
HETATM   14  O   UNK N   1      34.082  18.105   8.777  0.00  0.00    -0.206 OA
BRANCH  12  15
HETATM   15  N   UNK N   1      34.654  15.778   9.245  0.00  0.00    -0.205 NA
HETATM   16  C   UNK N   1      35.363  16.664  10.166  0.00  0.00     0.127 C 
HETATM   17  C   UNK N   1      35.536  15.996  11.524  0.00  0.00     0.129 C 
HETATM   18  N   UNK N   1      36.455  14.869  11.425  0.00  0.00    -0.420 N 
HETATM   19  C   UNK N   1      35.715  13.749  10.859  0.00  0.00     0.115 C 
HETATM   20  H   UNK N   1      37.435  14.865  11.702  0.00  0.00     0.153 HD
HETATM   21  C   UNK N   1      35.919  13.660   9.339  0.00  0.00     0.035 C 
HETATM   22  C   UNK N   1      35.651  14.964   8.565  0.00  0.00     0.109 C 
ENDBRANCH  12  15
ENDBRANCH   1  12
TORSDOF 2
ENDMDL
