MODEL 1
REMARK VINA RESULT:      -4.6      0.000      0.000
REMARK  6 active torsions:
REMARK  status: ('A' for Active; 'I' for Inactive)
REMARK    1  A    between atoms: C_1  and  C_2 
REMARK    2  A    between atoms: C_1  and  O_7 
REMARK    3  A    between atoms: C_2  and  O_3 
REMARK    4  A    between atoms: C_2  and  C_4 
REMARK    5  A    between atoms: C_4  and  C_5 
REMARK    6  A    between atoms: C_5  and  O_9 
ROOT
HETATM    1  C   UNK N   1      34.849  16.620  10.080  0.00  0.00     0.225 C 
ENDROOT
BRANCH   1   2
HETATM    2  C   UNK N   1      34.529  15.294  10.699  0.00  0.00     0.170 C 
HETATM    3  O   UNK N   1      35.404  14.459  10.845  0.00  0.00    -0.648 OA
BRANCH   2   4
HETATM    4  O   UNK N   1      33.272  15.021  11.099  0.00  0.00    -0.774 OA
HETATM    5  H   UNK N   1      32.573  15.014  10.475  0.00  0.00     0.167 HD
ENDBRANCH   2   4
ENDBRANCH   1   2
BRANCH   1   6
HETATM    6  O   UNK N   1      35.982  17.298  10.533  0.00  0.00    -0.384 OA
HETATM    7  H   UNK N   1      36.867  16.967  10.313  0.00  0.00     0.210 HD
ENDBRANCH   1   6
BRANCH   1   8
HETATM    8  C   UNK N   1      33.955  17.208   8.981  0.00  0.00     0.152 C 
BRANCH   8   9
HETATM    9  C   UNK N   1      34.570  18.200   8.031  0.00  0.00     0.142 C 
HETATM   10  O   UNK N   1      34.440  18.094   6.823  0.00  0.00    -0.650 OA
BRANCH   9  11
HETATM   11  O   UNK N   1      35.280  19.227   8.533  0.00  0.00    -0.776 OA
HETATM   12  H   UNK N   1      34.997  20.107   8.385  0.00  0.00     0.167 HD
ENDBRANCH   9  11
ENDBRANCH   8   9
ENDBRANCH   1   8
TORSDOF 6
ENDMDL
MODEL 2
REMARK VINA RESULT:      -4.6     15.732     16.660
REMARK  6 active torsions:
REMARK  status: ('A' for Active; 'I' for Inactive)
REMARK    1  A    between atoms: C_1  and  C_2 
REMARK    2  A    between atoms: C_1  and  O_7 
REMARK    3  A    between atoms: C_2  and  O_3 
REMARK    4  A    between atoms: C_2  and  C_4 
REMARK    5  A    between atoms: C_4  and  C_5 
REMARK    6  A    between atoms: C_5  and  O_9 
ROOT
HETATM    1  C   UNK N   1      20.589  19.699   1.682  0.00  0.00     0.225 C 
ENDROOT
BRANCH   1   2
HETATM    2  C   UNK N   1      20.909  20.695   2.754  0.00  0.00     0.170 C 
HETATM    3  O   UNK N   1      20.311  20.666   3.815  0.00  0.00    -0.648 OA
BRANCH   2   4
HETATM    4  O   UNK N   1      21.861  21.627   2.548  0.00  0.00    -0.774 OA
HETATM    5  H   UNK N   1      22.759  21.371   2.471  0.00  0.00     0.167 HD
ENDBRANCH   2   4
ENDBRANCH   1   2
BRANCH   1   6
HETATM    6  O   UNK N   1      20.759  20.090   0.353  0.00  0.00    -0.384 OA
HETATM    7  H   UNK N   1      20.572  21.005   0.088  0.00  0.00     0.210 HD
ENDBRANCH   1   6
BRANCH   1   8
HETATM    8  C   UNK N   1      20.089  18.294   2.041  0.00  0.00     0.152 C 
BRANCH   8   9
HETATM    9  C   UNK N   1      20.288  17.197   1.030  0.00  0.00     0.142 C 
HETATM   10  O   UNK N   1      20.483  16.042   1.370  0.00  0.00    -0.650 OA
BRANCH   9  11
HETATM   11  O   UNK N   1      20.250  17.505  -0.279  0.00  0.00    -0.776 OA
HETATM   12  H   UNK N   1      20.737  18.238  -0.602  0.00  0.00     0.167 HD
ENDBRANCH   9  11
ENDBRANCH   8   9
ENDBRANCH   1   8
TORSDOF 6
ENDMDL
MODEL 3
REMARK VINA RESULT:      -4.6      1.382      4.054
REMARK  6 active torsions:
REMARK  status: ('A' for Active; 'I' for Inactive)
REMARK    1  A    between atoms: C_1  and  C_2 
REMARK    2  A    between atoms: C_1  and  O_7 
REMARK    3  A    between atoms: C_2  and  O_3 
REMARK    4  A    between atoms: C_2  and  C_4 
REMARK    5  A    between atoms: C_4  and  C_5 
REMARK    6  A    between atoms: C_5  and  O_9 
ROOT
HETATM    1  C   UNK N   1      34.029  17.193   9.061  0.00  0.00     0.225 C 
ENDROOT
BRANCH   1   2
HETATM    2  C   UNK N   1      34.593  18.194   8.101  0.00  0.00     0.170 C 
HETATM    3  O   UNK N   1      35.227  19.149   8.515  0.00  0.00    -0.648 OA
BRANCH   2   4
HETATM    4  O   UNK N   1      34.401  18.043   6.776  0.00  0.00    -0.774 OA
HETATM    5  H   UNK N   1      35.138  17.976   6.201  0.00  0.00     0.167 HD
ENDBRANCH   2   4
ENDBRANCH   1   2
BRANCH   1   6
HETATM    6  O   UNK N   1      34.626  17.081  10.318  0.00  0.00    -0.384 OA
HETATM    7  H   UNK N   1      34.803  16.205  10.695  0.00  0.00     0.210 HD
ENDBRANCH   1   6
BRANCH   1   8
HETATM    8  C   UNK N   1      32.830  16.319   8.668  0.00  0.00     0.152 C 
BRANCH   8   9
HETATM    9  C   UNK N   1      32.606  15.046   9.439  0.00  0.00     0.142 C 
HETATM   10  O   UNK N   1      32.303  14.005   8.881  0.00  0.00    -0.650 OA
BRANCH   9  11
HETATM   11  O   UNK N   1      32.744  15.064  10.777  0.00  0.00    -0.776 OA
HETATM   12  H   UNK N   1      31.990  15.164  11.324  0.00  0.00     0.167 HD
ENDBRANCH   9  11
ENDBRANCH   8   9
ENDBRANCH   1   8
TORSDOF 6
ENDMDL
MODEL 4
REMARK VINA RESULT:      -4.5     15.918     17.000
REMARK  6 active torsions:
REMARK  status: ('A' for Active; 'I' for Inactive)
REMARK    1  A    between atoms: C_1  and  C_2 
REMARK    2  A    between atoms: C_1  and  O_7 
REMARK    3  A    between atoms: C_2  and  O_3 
REMARK    4  A    between atoms: C_2  and  C_4 
REMARK    5  A    between atoms: C_4  and  C_5 
REMARK    6  A    between atoms: C_5  and  O_9 
ROOT
HETATM    1  C   UNK N   1      20.738  20.463   2.325  0.00  0.00     0.225 C 
ENDROOT
BRANCH   1   2
HETATM    2  C   UNK N   1      20.721  21.038   0.943  0.00  0.00     0.170 C 
HETATM    3  O   UNK N   1      20.906  20.319  -0.023  0.00  0.00    -0.648 OA
BRANCH   2   4
HETATM    4  O   UNK N   1      20.500  22.355   0.761  0.00  0.00    -0.774 OA
HETATM    5  H   UNK N   1      20.493  22.935   1.497  0.00  0.00     0.167 HD
ENDBRANCH   2   4
ENDBRANCH   1   2
BRANCH   1   6
HETATM    6  O   UNK N   1      20.620  21.343   3.402  0.00  0.00    -0.384 OA
HETATM    7  H   UNK N   1      20.269  21.028   4.250  0.00  0.00     0.210 HD
ENDBRANCH   1   6
BRANCH   1   8
HETATM    8  C   UNK N   1      20.883  18.951   2.543  0.00  0.00     0.152 C 
BRANCH   8   9
HETATM    9  C   UNK N   1      19.631  18.155   2.794  0.00  0.00     0.142 C 
HETATM   10  O   UNK N   1      19.670  17.041   3.289  0.00  0.00    -0.650 OA
BRANCH   9  11
HETATM   11  O   UNK N   1      18.442  18.691   2.463  0.00  0.00    -0.776 OA
HETATM   12  H   UNK N   1      17.795  18.166   2.035  0.00  0.00     0.167 HD
ENDBRANCH   9  11
ENDBRANCH   8   9
ENDBRANCH   1   8
TORSDOF 6
ENDMDL
MODEL 5
REMARK VINA RESULT:      -4.5      2.395      5.189
REMARK  6 active torsions:
REMARK  status: ('A' for Active; 'I' for Inactive)
REMARK    1  A    between atoms: C_1  and  C_2 
REMARK    2  A    between atoms: C_1  and  O_7 
REMARK    3  A    between atoms: C_2  and  O_3 
REMARK    4  A    between atoms: C_2  and  C_4 
REMARK    5  A    between atoms: C_4  and  C_5 
REMARK    6  A    between atoms: C_5  and  O_9 
ROOT
HETATM    1  C   UNK N   1      34.702  15.041  11.342  0.00  0.00     0.225 C 
ENDROOT
BRANCH   1   2
HETATM    2  C   UNK N   1      35.574  16.184  10.924  0.00  0.00     0.170 C 
HETATM    3  O   UNK N   1      35.076  17.232  10.553  0.00  0.00    -0.648 OA
BRANCH   2   4
HETATM    4  O   UNK N   1      36.915  16.058  10.956  0.00  0.00    -0.774 OA
HETATM    5  H   UNK N   1      37.425  16.605  11.521  0.00  0.00     0.167 HD
ENDBRANCH   2   4
ENDBRANCH   1   2
BRANCH   1   6
HETATM    6  O   UNK N   1      33.333  15.135  11.086  0.00  0.00    -0.384 OA
HETATM    7  H   UNK N   1      33.019  15.364  10.197  0.00  0.00     0.210 HD
ENDBRANCH   1   6
BRANCH   1   8
HETATM    8  C   UNK N   1      35.301  13.808  12.030  0.00  0.00     0.152 C 
BRANCH   8   9
HETATM    9  C   UNK N   1      35.700  13.934  13.475  0.00  0.00     0.142 C 
HETATM   10  O   UNK N   1      35.018  13.463  14.370  0.00  0.00    -0.650 OA
BRANCH   9  11
HETATM   11  O   UNK N   1      36.837  14.585  13.782  0.00  0.00    -0.776 OA
HETATM   12  H   UNK N   1      37.660  14.140  13.729  0.00  0.00     0.167 HD
ENDBRANCH   9  11
ENDBRANCH   8   9
ENDBRANCH   1   8
TORSDOF 6
ENDMDL
MODEL 6
REMARK VINA RESULT:      -4.5     15.728     16.593
REMARK  6 active torsions:
REMARK  status: ('A' for Active; 'I' for Inactive)
REMARK    1  A    between atoms: C_1  and  C_2 
REMARK    2  A    between atoms: C_1  and  O_7 
REMARK    3  A    between atoms: C_2  and  O_3 
REMARK    4  A    between atoms: C_2  and  C_4 
REMARK    5  A    between atoms: C_4  and  C_5 
REMARK    6  A    between atoms: C_5  and  O_9 
ROOT
HETATM    1  C   UNK N   1      19.751  18.423   2.121  0.00  0.00     0.225 C 
ENDROOT
BRANCH   1   2
HETATM    2  C   UNK N   1      20.066  17.336   1.140  0.00  0.00     0.170 C 
HETATM    3  O   UNK N   1      20.091  16.173   1.501  0.00  0.00    -0.648 OA
BRANCH   2   4
HETATM    4  O   UNK N   1      20.324  17.641  -0.147  0.00  0.00    -0.774 OA
HETATM    5  H   UNK N   1      20.725  17.007  -0.708  0.00  0.00     0.167 HD
ENDBRANCH   2   4
ENDBRANCH   1   2
BRANCH   1   6
HETATM    6  O   UNK N   1      18.416  18.612   2.483  0.00  0.00    -0.384 OA
HETATM    7  H   UNK N   1      17.712  18.473   1.830  0.00  0.00     0.210 HD
ENDBRANCH   1   6
BRANCH   1   8
HETATM    8  C   UNK N   1      20.867  19.298   2.706  0.00  0.00     0.152 C 
BRANCH   8   9
HETATM    9  C   UNK N   1      21.272  20.527   1.938  0.00  0.00     0.142 C 
HETATM   10  O   UNK N   1      21.292  20.542   0.719  0.00  0.00    -0.650 OA
BRANCH   9  11
HETATM   11  O   UNK N   1      21.619  21.634   2.619  0.00  0.00    -0.776 OA
HETATM   12  H   UNK N   1      21.436  21.697   3.536  0.00  0.00     0.167 HD
ENDBRANCH   9  11
ENDBRANCH   8   9
ENDBRANCH   1   8
TORSDOF 6
ENDMDL
MODEL 7
REMARK VINA RESULT:      -4.4      1.034      4.257
REMARK  6 active torsions:
REMARK  status: ('A' for Active; 'I' for Inactive)
REMARK    1  A    between atoms: C_1  and  C_2 
REMARK    2  A    between atoms: C_1  and  O_7 
REMARK    3  A    between atoms: C_2  and  O_3 
REMARK    4  A    between atoms: C_2  and  C_4 
REMARK    5  A    between atoms: C_4  and  C_5 
REMARK    6  A    between atoms: C_5  and  O_9 
ROOT
HETATM    1  C   UNK N   1      34.011  17.279   9.076  0.00  0.00     0.225 C 
ENDROOT
BRANCH   1   2
HETATM    2  C   UNK N   1      34.613  18.254   8.112  0.00  0.00     0.170 C 
HETATM    3  O   UNK N   1      35.266  19.198   8.522  0.00  0.00    -0.648 OA
BRANCH   2   4
HETATM    4  O   UNK N   1      34.436  18.091   6.786  0.00  0.00    -0.774 OA
HETATM    5  H   UNK N   1      33.644  18.383   6.379  0.00  0.00     0.167 HD
ENDBRANCH   2   4
ENDBRANCH   1   2
BRANCH   1   6
HETATM    6  O   UNK N   1      32.624  17.122   9.068  0.00  0.00    -0.384 OA
HETATM    7  H   UNK N   1      32.126  17.163   9.899  0.00  0.00     0.210 HD
ENDBRANCH   1   6
BRANCH   1   8
HETATM    8  C   UNK N   1      34.898  16.480  10.040  0.00  0.00     0.152 C 
BRANCH   8   9
HETATM    9  C   UNK N   1      34.407  15.131  10.492  0.00  0.00     0.142 C 
HETATM   10  O   UNK N   1      35.063  14.119  10.312  0.00  0.00    -0.650 OA
BRANCH   9  11
HETATM   11  O   UNK N   1      33.214  15.047  11.109  0.00  0.00    -0.776 OA
HETATM   12  H   UNK N   1      32.775  15.825  11.388  0.00  0.00     0.167 HD
ENDBRANCH   9  11
ENDBRANCH   8   9
ENDBRANCH   1   8
TORSDOF 6
ENDMDL
MODEL 8
REMARK VINA RESULT:      -4.4     11.974     13.372
REMARK  6 active torsions:
REMARK  status: ('A' for Active; 'I' for Inactive)
REMARK    1  A    between atoms: C_1  and  C_2 
REMARK    2  A    between atoms: C_1  and  O_7 
REMARK    3  A    between atoms: C_2  and  O_3 
REMARK    4  A    between atoms: C_2  and  C_4 
REMARK    5  A    between atoms: C_4  and  C_5 
REMARK    6  A    between atoms: C_5  and  O_9 
ROOT
HETATM    1  C   UNK N   1      22.416  12.242  11.511  0.00  0.00     0.225 C 
ENDROOT
BRANCH   1   2
HETATM    2  C   UNK N   1      23.675  12.148  12.316  0.00  0.00     0.170 C 
HETATM    3  O   UNK N   1      23.621  12.029  13.527  0.00  0.00    -0.648 OA
BRANCH   2   4
HETATM    4  O   UNK N   1      24.874  12.194  11.703  0.00  0.00    -0.774 OA
HETATM    5  H   UNK N   1      24.949  11.953  10.800  0.00  0.00     0.167 HD
ENDBRANCH   2   4
ENDBRANCH   1   2
BRANCH   1   6
HETATM    6  O   UNK N   1      21.280  11.590  11.994  0.00  0.00    -0.384 OA
HETATM    7  H   UNK N   1      21.200  10.627  11.908  0.00  0.00     0.210 HD
ENDBRANCH   1   6
BRANCH   1   8
HETATM    8  C   UNK N   1      22.382  13.033  10.197  0.00  0.00     0.152 C 
BRANCH   8   9
HETATM    9  C   UNK N   1      21.136  13.815   9.880  0.00  0.00     0.142 C 
HETATM   10  O   UNK N   1      21.188  14.916   9.357  0.00  0.00    -0.650 OA
BRANCH   9  11
HETATM   11  O   UNK N   1      19.939  13.281  10.181  0.00  0.00    -0.776 OA
HETATM   12  H   UNK N   1      19.892  12.481  10.667  0.00  0.00     0.167 HD
ENDBRANCH   9  11
ENDBRANCH   8   9
ENDBRANCH   1   8
TORSDOF 6
ENDMDL
MODEL 9
REMARK VINA RESULT:      -4.3      1.208      4.040
REMARK  6 active torsions:
REMARK  status: ('A' for Active; 'I' for Inactive)
REMARK    1  A    between atoms: C_1  and  C_2 
REMARK    2  A    between atoms: C_1  and  O_7 
REMARK    3  A    between atoms: C_2  and  O_3 
REMARK    4  A    between atoms: C_2  and  C_4 
REMARK    5  A    between atoms: C_4  and  C_5 
REMARK    6  A    between atoms: C_5  and  O_9 
ROOT
HETATM    1  C   UNK N   1      33.616  17.295   8.752  0.00  0.00     0.225 C 
ENDROOT
BRANCH   1   2
HETATM    2  C   UNK N   1      34.423  18.224   7.898  0.00  0.00     0.170 C 
HETATM    3  O   UNK N   1      34.365  18.145   6.683  0.00  0.00    -0.648 OA
BRANCH   2   4
HETATM    4  O   UNK N   1      35.216  19.151   8.470  0.00  0.00    -0.774 OA
HETATM    5  H   UNK N   1      36.018  18.893   8.880  0.00  0.00     0.167 HD
ENDBRANCH   2   4
ENDBRANCH   1   2
BRANCH   1   6
HETATM    6  O   UNK N   1      32.270  17.598   8.958  0.00  0.00    -0.384 OA
HETATM    7  H   UNK N   1      31.581  17.083   8.509  0.00  0.00     0.210 HD
ENDBRANCH   1   6
BRANCH   1   8
HETATM    8  C   UNK N   1      34.258  16.049   9.377  0.00  0.00     0.152 C 
BRANCH   8   9
HETATM    9  C   UNK N   1      35.116  16.239  10.599  0.00  0.00     0.142 C 
HETATM   10  O   UNK N   1      35.044  15.484  11.554  0.00  0.00    -0.650 OA
BRANCH   9  11
HETATM   11  O   UNK N   1      35.981  17.268  10.632  0.00  0.00    -0.776 OA
HETATM   12  H   UNK N   1      35.670  18.137  10.793  0.00  0.00     0.167 HD
ENDBRANCH   9  11
ENDBRANCH   8   9
ENDBRANCH   1   8
TORSDOF 6
ENDMDL
