MODEL 1
REMARK VINA RESULT:      -7.2      0.000      0.000
REMARK  3 active torsions:
REMARK  status: ('A' for Active; 'I' for Inactive)
REMARK    1  A    between atoms: C_1  and  N_13 
REMARK       I    between atoms: C_8  and  N_6 
REMARK    2  A    between atoms: C_9  and  C_8 
REMARK    3  A    between atoms: N_13  and  C_15 
ROOT
HETATM    1  C   UNK N   1      34.296  17.219   7.152  0.00  0.00     0.226 C 
HETATM    2  C   UNK N   1      34.763  18.322   7.994  0.00  0.00     0.068 C 
HETATM    3  N   UNK N   1      35.177  19.194   8.632  0.00  0.00    -0.197 NA
ENDROOT
BRANCH   1   4
HETATM    4  C   UNK N   1      32.893  16.723   7.420  0.00  0.00     0.232 C 
HETATM    5  O   UNK N   1      32.583  16.385   8.553  0.00  0.00    -0.272 OA
HETATM    6  N   UNK N   1      32.021  16.545   6.382  0.00  0.00    -0.349 N 
HETATM    7  C   UNK N   1      30.814  15.737   6.590  0.00  0.00     0.151 C 
HETATM    8  C   UNK N   1      32.394  17.021   5.066  0.00  0.00     0.126 C 
HETATM    9  C   UNK N   1      29.782  15.650   5.424  0.00  0.00     0.107 C 
HETATM   10  C   UNK N   1      30.369  16.172   4.071  0.00  0.00     0.007 C 
HETATM   11  C   UNK N   1      31.170  17.434   4.272  0.00  0.00     0.026 C 
HETATM   12  C   UNK N   1      29.390  16.360   2.925  0.00  0.00     0.012 C 
BRANCH   9  13
HETATM   13  N   UNK N   1      28.421  16.119   5.788  0.00  0.00    -0.364 N 
HETATM   14  C   UNK N   1      27.328  15.195   5.570  0.00  0.00     0.152 C 
BRANCH  13  15
HETATM   15  C   UNK N   1      28.195  17.223   6.698  0.00  0.00     0.118 A 
HETATM   16  N   UNK N   1      28.109  17.024   8.050  0.00  0.00    -0.338 N 
HETATM   17  C   UNK N   1      27.840  18.046   8.921  0.00  0.00     0.183 A 
ATOM     18  HN  UNK N   1      28.252  16.084   8.420  1.00  0.00     0.168 HD
HETATM   19  N   UNK N   1      27.630  19.312   8.459  0.00  0.00    -0.338 N 
HETATM   20  C   UNK N   1      27.711  19.532   7.128  0.00  0.00     0.120 A 
ATOM     21  HN  UNK N   1      27.418  20.075   9.103  1.00  0.00     0.168 HD
HETATM   22  C   UNK N   1      27.992  18.543   6.241  0.00  0.00     0.053 A 
HETATM   23  N   UNK N   1      27.508  20.707   6.516  0.00  0.00    -0.351 N 
HETATM   24  C   UNK N   1      27.964  19.114   4.984  0.00  0.00     0.036 A 
HETATM   25  C   UNK N   1      27.663  20.460   5.193  0.00  0.00     0.091 A 
HETATM   26  H   UNK N   1      27.290  21.568   6.940  0.00  0.00     0.166 HD
ENDBRANCH  13  15
ENDBRANCH   9  13
ENDBRANCH   1   4
TORSDOF 3
ENDMDL
MODEL 2
REMARK VINA RESULT:      -6.6      6.260      9.383
REMARK  3 active torsions:
REMARK  status: ('A' for Active; 'I' for Inactive)
REMARK    1  A    between atoms: C_1  and  N_13 
REMARK       I    between atoms: C_8  and  N_6 
REMARK    2  A    between atoms: C_9  and  C_8 
REMARK    3  A    between atoms: N_13  and  C_15 
ROOT
HETATM    1  C   UNK N   1      33.811  17.264   9.023  0.00  0.00     0.226 C 
HETATM    2  C   UNK N   1      34.043  17.688   7.642  0.00  0.00     0.068 C 
HETATM    3  N   UNK N   1      34.180  18.045   6.550  0.00  0.00    -0.197 NA
ENDROOT
BRANCH   1   4
HETATM    4  C   UNK N   1      34.951  16.537   9.699  0.00  0.00     0.232 C 
HETATM    5  O   UNK N   1      35.779  17.178  10.332  0.00  0.00    -0.272 OA
HETATM    6  N   UNK N   1      35.117  15.194   9.507  0.00  0.00    -0.349 N 
HETATM    7  C   UNK N   1      36.400  14.571   9.854  0.00  0.00     0.151 C 
HETATM    8  C   UNK N   1      34.082  14.454   8.814  0.00  0.00     0.126 C 
HETATM    9  C   UNK N   1      36.517  13.021   9.732  0.00  0.00     0.107 C 
HETATM   10  C   UNK N   1      35.334  12.397   8.922  0.00  0.00     0.007 C 
HETATM   11  C   UNK N   1      34.016  13.022   9.307  0.00  0.00     0.026 C 
HETATM   12  C   UNK N   1      35.212  10.883   8.941  0.00  0.00     0.012 C 
BRANCH   9  13
HETATM   13  N   UNK N   1      36.890  12.345  11.000  0.00  0.00    -0.364 N 
HETATM   14  C   UNK N   1      38.104  11.555  10.991  0.00  0.00     0.152 C 
BRANCH  13  15
HETATM   15  C   UNK N   1      36.368  12.758  12.286  0.00  0.00     0.118 A 
HETATM   16  N   UNK N   1      36.885  13.840  12.948  0.00  0.00    -0.338 N 
HETATM   17  C   UNK N   1      36.443  14.213  14.191  0.00  0.00     0.183 A 
ATOM     18  HN  UNK N   1      37.621  14.386  12.501  1.00  0.00     0.168 HD
HETATM   19  N   UNK N   1      35.470  13.496  14.823  0.00  0.00    -0.338 N 
HETATM   20  C   UNK N   1      34.945  12.425  14.187  0.00  0.00     0.120 A 
ATOM     21  HN  UNK N   1      35.146  13.764  15.752  1.00  0.00     0.168 HD
HETATM   22  C   UNK N   1      35.350  12.040  12.950  0.00  0.00     0.053 A 
HETATM   23  N   UNK N   1      34.005  11.607  14.680  0.00  0.00    -0.351 N 
HETATM   24  C   UNK N   1      34.631  10.906  12.628  0.00  0.00     0.036 A 
HETATM   25  C   UNK N   1      33.803  10.667  13.726  0.00  0.00     0.091 A 
HETATM   26  H   UNK N   1      33.556  11.675  15.554  0.00  0.00     0.166 HD
ENDBRANCH  13  15
ENDBRANCH   9  13
ENDBRANCH   1   4
TORSDOF 3
ENDMDL
MODEL 3
REMARK VINA RESULT:      -6.5      2.199      2.741
REMARK  3 active torsions:
REMARK  status: ('A' for Active; 'I' for Inactive)
REMARK    1  A    between atoms: C_1  and  N_13 
REMARK       I    between atoms: C_8  and  N_6 
REMARK    2  A    between atoms: C_9  and  C_8 
REMARK    3  A    between atoms: N_13  and  C_15 
ROOT
HETATM    1  C   UNK N   1      35.274  16.215  10.270  0.00  0.00     0.226 C 
HETATM    2  C   UNK N   1      35.717  15.625  11.534  0.00  0.00     0.068 C 
HETATM    3  N   UNK N   1      36.108  15.190  12.532  0.00  0.00    -0.197 NA
ENDROOT
BRANCH   1   4
HETATM    4  C   UNK N   1      33.965  15.702   9.716  0.00  0.00     0.232 C 
HETATM    5  O   UNK N   1      33.326  14.878  10.354  0.00  0.00    -0.272 OA
HETATM    6  N   UNK N   1      33.561  16.069   8.462  0.00  0.00    -0.349 N 
HETATM    7  C   UNK N   1      32.502  15.302   7.796  0.00  0.00     0.151 C 
HETATM    8  C   UNK N   1      34.302  17.099   7.763  0.00  0.00     0.126 C 
HETATM    9  C   UNK N   1      31.983  15.816   6.418  0.00  0.00     0.107 C 
HETATM   10  C   UNK N   1      32.927  16.897   5.793  0.00  0.00     0.007 C 
HETATM   11  C   UNK N   1      33.396  17.882   6.834  0.00  0.00     0.026 C 
HETATM   12  C   UNK N   1      32.407  17.641   4.576  0.00  0.00     0.012 C 
BRANCH   9  13
HETATM   13  N   UNK N   1      30.527  16.104   6.392  0.00  0.00    -0.364 N 
HETATM   14  C   UNK N   1      29.682  15.152   5.703  0.00  0.00     0.152 C 
BRANCH  13  15
HETATM   15  C   UNK N   1      29.894  17.006   7.332  0.00  0.00     0.118 A 
HETATM   16  N   UNK N   1      30.115  16.898   8.679  0.00  0.00    -0.338 N 
HETATM   17  C   UNK N   1      29.483  17.705   9.588  0.00  0.00     0.183 A 
ATOM     18  HN  UNK N   1      30.773  16.194   9.016  1.00  0.00     0.168 HD
HETATM   19  N   UNK N   1      28.587  18.646   9.173  0.00  0.00    -0.338 N 
HETATM   20  C   UNK N   1      28.355  18.771   7.847  0.00  0.00     0.120 A 
ATOM     21  HN  UNK N   1      28.106  19.241   9.847  1.00  0.00     0.168 HD
HETATM   22  C   UNK N   1      28.977  17.997   6.921  0.00  0.00     0.053 A 
HETATM   23  N   UNK N   1      27.490  19.625   7.283  0.00  0.00    -0.351 N 
HETATM   24  C   UNK N   1      28.482  18.373   5.688  0.00  0.00     0.036 A 
HETATM   25  C   UNK N   1      27.563  19.390   5.951  0.00  0.00     0.091 A 
HETATM   26  H   UNK N   1      26.922  20.286   7.740  0.00  0.00     0.166 HD
ENDBRANCH  13  15
ENDBRANCH   9  13
ENDBRANCH   1   4
TORSDOF 3
ENDMDL
MODEL 4
REMARK VINA RESULT:      -6.4      8.284     11.064
REMARK  3 active torsions:
REMARK  status: ('A' for Active; 'I' for Inactive)
REMARK    1  A    between atoms: C_1  and  N_13 
REMARK       I    between atoms: C_8  and  N_6 
REMARK    2  A    between atoms: C_9  and  C_8 
REMARK    3  A    between atoms: N_13  and  C_15 
ROOT
HETATM    1  C   UNK N   1      35.441  12.689  17.409  0.00  0.00     0.226 C 
HETATM    2  C   UNK N   1      35.348  13.983  18.087  0.00  0.00     0.068 C 
HETATM    3  N   UNK N   1      35.303  14.986  18.663  0.00  0.00    -0.197 NA
ENDROOT
BRANCH   1   4
HETATM    4  C   UNK N   1      34.784  12.599  16.051  0.00  0.00     0.232 C 
HETATM    5  O   UNK N   1      33.737  13.198  15.850  0.00  0.00    -0.272 OA
HETATM    6  N   UNK N   1      35.295  11.763  15.097  0.00  0.00    -0.349 N 
HETATM    7  C   UNK N   1      34.469  11.406  13.937  0.00  0.00     0.151 C 
HETATM    8  C   UNK N   1      36.573  11.125  15.339  0.00  0.00     0.126 C 
HETATM    9  C   UNK N   1      35.122  10.547  12.811  0.00  0.00     0.107 C 
HETATM   10  C   UNK N   1      36.476   9.906  13.263  0.00  0.00     0.007 C 
HETATM   11  C   UNK N   1      37.316  10.888  14.040  0.00  0.00     0.026 C 
HETATM   12  C   UNK N   1      37.317   9.249  12.182  0.00  0.00     0.012 C 
BRANCH   9  13
HETATM   13  N   UNK N   1      35.100  11.191  11.474  0.00  0.00    -0.364 N 
HETATM   14  C   UNK N   1      34.361  10.512  10.430  0.00  0.00     0.152 C 
BRANCH  13  15
HETATM   15  C   UNK N   1      35.398  12.596  11.280  0.00  0.00     0.118 A 
HETATM   16  N   UNK N   1      34.436  13.556  11.444  0.00  0.00    -0.338 N 
HETATM   17  C   UNK N   1      34.683  14.883  11.211  0.00  0.00     0.183 A 
ATOM     18  HN  UNK N   1      33.505  13.273  11.752  1.00  0.00     0.168 HD
HETATM   19  N   UNK N   1      35.913  15.293  10.786  0.00  0.00    -0.338 N 
HETATM   20  C   UNK N   1      36.878  14.362  10.618  0.00  0.00     0.120 A 
ATOM     21  HN  UNK N   1      36.099  16.279  10.600  1.00  0.00     0.168 HD
HETATM   22  C   UNK N   1      36.668  13.042  10.856  0.00  0.00     0.053 A 
HETATM   23  N   UNK N   1      38.124  14.598  10.184  0.00  0.00    -0.351 N 
HETATM   24  C   UNK N   1      37.847  12.388  10.555  0.00  0.00     0.036 A 
HETATM   25  C   UNK N   1      38.731  13.387  10.143  0.00  0.00     0.091 A 
HETATM   26  H   UNK N   1      38.516  15.469   9.945  0.00  0.00     0.166 HD
ENDBRANCH  13  15
ENDBRANCH   9  13
ENDBRANCH   1   4
TORSDOF 3
ENDMDL
MODEL 5
REMARK VINA RESULT:      -6.3      7.649     10.299
REMARK  3 active torsions:
REMARK  status: ('A' for Active; 'I' for Inactive)
REMARK    1  A    between atoms: C_1  and  N_13 
REMARK       I    between atoms: C_8  and  N_6 
REMARK    2  A    between atoms: C_9  and  C_8 
REMARK    3  A    between atoms: N_13  and  C_15 
ROOT
HETATM    1  C   UNK N   1      20.276  19.591   2.209  0.00  0.00     0.226 C 
HETATM    2  C   UNK N   1      20.789  20.305   1.038  0.00  0.00     0.068 C 
HETATM    3  N   UNK N   1      21.144  20.879   0.098  0.00  0.00    -0.197 NA
ENDROOT
BRANCH   1   4
HETATM    4  C   UNK N   1      21.313  19.065   3.176  0.00  0.00     0.232 C 
HETATM    5  O   UNK N   1      22.169  19.824   3.609  0.00  0.00    -0.272 OA
HETATM    6  N   UNK N   1      21.360  17.731   3.470  0.00  0.00    -0.349 N 
HETATM    7  C   UNK N   1      22.563  17.177   4.103  0.00  0.00     0.151 C 
HETATM    8  C   UNK N   1      20.292  16.873   2.999  0.00  0.00     0.126 C 
HETATM    9  C   UNK N   1      22.540  15.678   4.531  0.00  0.00     0.107 C 
HETATM   10  C   UNK N   1      21.340  14.898   3.899  0.00  0.00     0.007 C 
HETATM   11  C   UNK N   1      20.071  15.712   3.947  0.00  0.00     0.026 C 
HETATM   12  C   UNK N   1      21.076  13.499   4.429  0.00  0.00     0.012 C 
BRANCH   9  13
HETATM   13  N   UNK N   1      22.791  15.461   5.978  0.00  0.00    -0.364 N 
HETATM   14  C   UNK N   1      24.174  15.415   6.405  0.00  0.00     0.152 C 
BRANCH  13  15
HETATM   15  C   UNK N   1      21.785  15.710   6.990  0.00  0.00     0.118 A 
HETATM   16  N   UNK N   1      21.150  16.920   7.077  0.00  0.00    -0.338 N 
HETATM   17  C   UNK N   1      20.237  17.194   8.061  0.00  0.00     0.183 A 
ATOM     18  HN  UNK N   1      21.363  17.640   6.386  1.00  0.00     0.168 HD
HETATM   19  N   UNK N   1      19.939  16.259   9.008  0.00  0.00    -0.338 N 
HETATM   20  C   UNK N   1      20.553  15.056   8.940  0.00  0.00     0.120 A 
ATOM     21  HN  UNK N   1      19.268  16.462   9.750  1.00  0.00     0.168 HD
HETATM   22  C   UNK N   1      21.451  14.750   7.969  0.00  0.00     0.053 A 
HETATM   23  N   UNK N   1      20.390  14.045   9.804  0.00  0.00    -0.351 N 
HETATM   24  C   UNK N   1      21.894  13.467   8.224  0.00  0.00     0.036 A 
HETATM   25  C   UNK N   1      21.211  13.059   9.371  0.00  0.00     0.091 A 
HETATM   26  H   UNK N   1      19.797  14.024  10.590  0.00  0.00     0.166 HD
ENDBRANCH  13  15
ENDBRANCH   9  13
ENDBRANCH   1   4
TORSDOF 3
ENDMDL
MODEL 6
REMARK VINA RESULT:      -5.9      1.741      2.272
REMARK  3 active torsions:
REMARK  status: ('A' for Active; 'I' for Inactive)
REMARK    1  A    between atoms: C_1  and  N_13 
REMARK       I    between atoms: C_8  and  N_6 
REMARK    2  A    between atoms: C_9  and  C_8 
REMARK    3  A    between atoms: N_13  and  C_15 
ROOT
HETATM    1  C   UNK N   1      32.879  16.731   5.889  0.00  0.00     0.226 C 
HETATM    2  C   UNK N   1      33.808  17.555   6.663  0.00  0.00     0.068 C 
HETATM    3  N   UNK N   1      34.580  18.196   7.239  0.00  0.00    -0.197 NA
ENDROOT
BRANCH   1   4
HETATM    4  C   UNK N   1      31.460  16.659   6.406  0.00  0.00     0.232 C 
HETATM    5  O   UNK N   1      31.252  16.788   7.604  0.00  0.00    -0.272 OA
HETATM    6  N   UNK N   1      30.437  16.339   5.557  0.00  0.00    -0.349 N 
HETATM    7  C   UNK N   1      29.146  15.919   6.115  0.00  0.00     0.151 C 
HETATM    8  C   UNK N   1      30.706  16.263   4.136  0.00  0.00     0.126 C 
HETATM    9  C   UNK N   1      27.967  15.673   5.124  0.00  0.00     0.107 C 
HETATM   10  C   UNK N   1      28.448  15.584   3.639  0.00  0.00     0.007 C 
HETATM   11  C   UNK N   1      29.478  16.641   3.331  0.00  0.00     0.026 C 
HETATM   12  C   UNK N   1      27.371  15.586   2.568  0.00  0.00     0.012 C 
BRANCH   9  13
HETATM   13  N   UNK N   1      26.772  16.513   5.392  0.00  0.00    -0.364 N 
HETATM   14  C   UNK N   1      25.606  15.844   5.931  0.00  0.00     0.152 C 
BRANCH  13  15
HETATM   15  C   UNK N   1      26.848  17.952   5.539  0.00  0.00     0.118 A 
HETATM   16  N   UNK N   1      27.416  18.524   6.646  0.00  0.00    -0.338 N 
HETATM   17  C   UNK N   1      27.447  19.881   6.830  0.00  0.00     0.183 A 
ATOM     18  HN  UNK N   1      27.831  17.919   7.356  1.00  0.00     0.168 HD
HETATM   19  N   UNK N   1      26.890  20.717   5.908  0.00  0.00    -0.338 N 
HETATM   20  C   UNK N   1      26.324  20.174   4.807  0.00  0.00     0.120 A 
ATOM     21  HN  UNK N   1      26.900  21.728   6.046  1.00  0.00     0.168 HD
HETATM   22  C   UNK N   1      26.292  18.835   4.589  0.00  0.00     0.053 A 
HETATM   23  N   UNK N   1      25.716  20.854   3.825  0.00  0.00    -0.351 N 
HETATM   24  C   UNK N   1      25.620  18.640   3.398  0.00  0.00     0.036 A 
HETATM   25  C   UNK N   1      25.279  19.917   2.950  0.00  0.00     0.091 A 
HETATM   26  H   UNK N   1      25.608  21.830   3.756  0.00  0.00     0.166 HD
ENDBRANCH  13  15
ENDBRANCH   9  13
ENDBRANCH   1   4
TORSDOF 3
ENDMDL
MODEL 7
REMARK VINA RESULT:      -5.8      7.929      9.315
REMARK  3 active torsions:
REMARK  status: ('A' for Active; 'I' for Inactive)
REMARK    1  A    between atoms: C_1  and  N_13 
REMARK       I    between atoms: C_8  and  N_6 
REMARK    2  A    between atoms: C_9  and  C_8 
REMARK    3  A    between atoms: N_13  and  C_15 
ROOT
HETATM    1  C   UNK N   1      23.760  12.067  11.042  0.00  0.00     0.226 C 
HETATM    2  C   UNK N   1      23.536  12.019  12.487  0.00  0.00     0.068 C 
HETATM    3  N   UNK N   1      23.410  11.972  13.637  0.00  0.00    -0.197 NA
ENDROOT
BRANCH   1   4
HETATM    4  C   UNK N   1      22.554  12.391  10.189  0.00  0.00     0.232 C 
HETATM    5  O   UNK N   1      21.471  12.571  10.727  0.00  0.00    -0.272 OA
HETATM    6  N   UNK N   1      22.653  12.367   8.826  0.00  0.00    -0.349 N 
HETATM    7  C   UNK N   1      21.429  12.320   8.018  0.00  0.00     0.151 C 
HETATM    8  C   UNK N   1      23.962  12.221   8.223  0.00  0.00     0.126 C 
HETATM    9  C   UNK N   1      21.572  12.412   6.468  0.00  0.00     0.107 C 
HETATM   10  C   UNK N   1      23.047  12.194   5.993  0.00  0.00     0.007 C 
HETATM   11  C   UNK N   1      24.022  12.925   6.881  0.00  0.00     0.026 C 
HETATM   12  C   UNK N   1      23.350  12.496   4.536  0.00  0.00     0.012 C 
BRANCH   9  13
HETATM   13  N   UNK N   1      20.835  13.549   5.861  0.00  0.00    -0.364 N 
HETATM   14  C   UNK N   1      19.767  13.224   4.940  0.00  0.00     0.152 C 
BRANCH  13  15
HETATM   15  C   UNK N   1      20.842  14.878   6.438  0.00  0.00     0.118 A 
HETATM   16  N   UNK N   1      19.946  15.236   7.409  0.00  0.00    -0.338 N 
HETATM   17  C   UNK N   1      19.899  16.504   7.926  0.00  0.00     0.183 A 
ATOM     18  HN  UNK N   1      19.292  14.535   7.759  1.00  0.00     0.168 HD
HETATM   19  N   UNK N   1      20.749  17.468   7.471  0.00  0.00    -0.338 N 
HETATM   20  C   UNK N   1      21.644  17.137   6.513  0.00  0.00     0.120 A 
ATOM     21  HN  UNK N   1      20.712  18.417   7.845  1.00  0.00     0.168 HD
HETATM   22  C   UNK N   1      21.724  15.886   5.992  0.00  0.00     0.053 A 
HETATM   23  N   UNK N   1      22.526  17.971   5.945  0.00  0.00    -0.351 N 
HETATM   24  C   UNK N   1      22.715  15.916   5.030  0.00  0.00     0.036 A 
HETATM   25  C   UNK N   1      23.193  17.227   5.030  0.00  0.00     0.091 A 
HETATM   26  H   UNK N   1      22.660  18.924   6.150  0.00  0.00     0.166 HD
ENDBRANCH  13  15
ENDBRANCH   9  13
ENDBRANCH   1   4
TORSDOF 3
ENDMDL
MODEL 8
REMARK VINA RESULT:      -5.7     14.617     16.846
REMARK  3 active torsions:
REMARK  status: ('A' for Active; 'I' for Inactive)
REMARK    1  A    between atoms: C_1  and  N_13 
REMARK       I    between atoms: C_8  and  N_6 
REMARK    2  A    between atoms: C_9  and  C_8 
REMARK    3  A    between atoms: N_13  and  C_15 
ROOT
HETATM    1  C   UNK N   1      25.299  22.086  -8.766  0.00  0.00     0.226 C 
HETATM    2  C   UNK N   1      26.135  21.500  -9.815  0.00  0.00     0.068 C 
HETATM    3  N   UNK N   1      26.776  20.990 -10.632  0.00  0.00    -0.197 NA
ENDROOT
BRANCH   1   4
HETATM    4  C   UNK N   1      25.356  23.591  -8.630  0.00  0.00     0.232 C 
HETATM    5  O   UNK N   1      25.037  24.291  -9.581  0.00  0.00    -0.272 OA
HETATM    6  N   UNK N   1      25.869  24.157  -7.496  0.00  0.00    -0.349 N 
HETATM    7  C   UNK N   1      26.255  25.573  -7.512  0.00  0.00     0.151 C 
HETATM    8  C   UNK N   1      26.169  23.305  -6.364  0.00  0.00     0.126 C 
HETATM    9  C   UNK N   1      26.726  26.217  -6.172  0.00  0.00     0.107 C 
HETATM   10  C   UNK N   1      27.040  25.146  -5.076  0.00  0.00     0.007 C 
HETATM   11  C   UNK N   1      25.998  24.057  -5.059  0.00  0.00     0.026 C 
HETATM   12  C   UNK N   1      27.275  25.657  -3.665  0.00  0.00     0.012 C 
BRANCH   9  13
HETATM   13  N   UNK N   1      25.917  27.389  -5.751  0.00  0.00    -0.364 N 
HETATM   14  C   UNK N   1      24.500  27.170  -5.549  0.00  0.00     0.152 C 
BRANCH  13  15
HETATM   15  C   UNK N   1      26.506  28.567  -5.149  0.00  0.00     0.118 A 
HETATM   16  N   UNK N   1      26.003  29.103  -3.994  0.00  0.00    -0.338 N 
HETATM   17  C   UNK N   1      26.510  30.249  -3.440  0.00  0.00     0.183 A 
ATOM     18  HN  UNK N   1      25.224  28.632  -3.530  1.00  0.00     0.168 HD
HETATM   19  N   UNK N   1      27.540  30.910  -4.042  0.00  0.00    -0.338 N 
HETATM   20  C   UNK N   1      28.054  30.398  -5.182  0.00  0.00     0.120 A 
ATOM     21  HN  UNK N   1      27.915  31.769  -3.639  1.00  0.00     0.168 HD
HETATM   22  C   UNK N   1      27.583  29.256  -5.746  0.00  0.00     0.053 A 
HETATM   23  N   UNK N   1      29.046  30.938  -5.904  0.00  0.00    -0.351 N 
HETATM   24  C   UNK N   1      28.312  29.051  -6.902  0.00  0.00     0.036 A 
HETATM   25  C   UNK N   1      29.214  30.114  -6.966  0.00  0.00     0.091 A 
HETATM   26  H   UNK N   1      29.546  31.762  -5.705  0.00  0.00     0.166 HD
ENDBRANCH  13  15
ENDBRANCH   9  13
ENDBRANCH   1   4
TORSDOF 3
ENDMDL
MODEL 9
REMARK VINA RESULT:      -5.7      6.625      9.967
REMARK  3 active torsions:
REMARK  status: ('A' for Active; 'I' for Inactive)
REMARK    1  A    between atoms: C_1  and  N_13 
REMARK       I    between atoms: C_8  and  N_6 
REMARK    2  A    between atoms: C_9  and  C_8 
REMARK    3  A    between atoms: N_13  and  C_15 
ROOT
HETATM    1  C   UNK N   1      18.975  16.587   8.948  0.00  0.00     0.226 C 
HETATM    2  C   UNK N   1      19.528  17.929   9.139  0.00  0.00     0.068 C 
HETATM    3  N   UNK N   1      19.934  18.995   9.332  0.00  0.00    -0.197 NA
ENDROOT
BRANCH   1   4
HETATM    4  C   UNK N   1      19.558  15.781   7.809  0.00  0.00     0.232 C 
HETATM    5  O   UNK N   1      19.213  16.027   6.662  0.00  0.00    -0.272 OA
HETATM    6  N   UNK N   1      20.372  14.715   8.073  0.00  0.00    -0.349 N 
HETATM    7  C   UNK N   1      20.635  13.733   7.014  0.00  0.00     0.151 C 
HETATM    8  C   UNK N   1      20.817  14.495   9.433  0.00  0.00     0.126 C 
HETATM    9  C   UNK N   1      21.659  12.595   7.310  0.00  0.00     0.107 C 
HETATM   10  C   UNK N   1      21.995  12.479   8.833  0.00  0.00     0.007 C 
HETATM   11  C   UNK N   1      22.184  13.839   9.457  0.00  0.00     0.026 C 
HETATM   12  C   UNK N   1      23.152  11.572   9.214  0.00  0.00     0.012 C 
BRANCH   9  13
HETATM   13  N   UNK N   1      22.805  12.555   6.367  0.00  0.00    -0.364 N 
HETATM   14  C   UNK N   1      23.103  11.280   5.749  0.00  0.00     0.152 C 
BRANCH  13  15
HETATM   15  C   UNK N   1      23.338  13.746   5.739  0.00  0.00     0.118 A 
HETATM   16  N   UNK N   1      22.857  14.193   4.537  0.00  0.00    -0.338 N 
HETATM   17  C   UNK N   1      23.386  15.284   3.900  0.00  0.00     0.183 A 
ATOM     18  HN  UNK N   1      22.077  13.697   4.103  1.00  0.00     0.168 HD
HETATM   19  N   UNK N   1      24.436  15.961   4.445  0.00  0.00    -0.338 N 
HETATM   20  C   UNK N   1      24.927  15.539   5.632  0.00  0.00     0.120 A 
ATOM     21  HN  UNK N   1      24.841  16.768   3.970  1.00  0.00     0.168 HD
HETATM   22  C   UNK N   1      24.414  14.471   6.295  0.00  0.00     0.053 A 
HETATM   23  N   UNK N   1      25.966  16.078   6.284  0.00  0.00    -0.351 N 
HETATM   24  C   UNK N   1      25.170  14.310   7.440  0.00  0.00     0.036 A 
HETATM   25  C   UNK N   1      26.123  15.328   7.402  0.00  0.00     0.091 A 
HETATM   26  H   UNK N   1      26.504  16.855   6.008  0.00  0.00     0.166 HD
ENDBRANCH  13  15
ENDBRANCH   9  13
ENDBRANCH   1   4
TORSDOF 3
ENDMDL
