MODEL 1
REMARK VINA RESULT:      -6.2      0.000      0.000
REMARK  6 active torsions:
REMARK  status: ('A' for Active; 'I' for Inactive)
REMARK    1  A    between atoms: C_1  and  C_15 
REMARK    2  A    between atoms: C_7  and  C_15 
REMARK    3  A    between atoms: N_8  and  C_19 
REMARK    4  A    between atoms: C_14  and  C_16 
REMARK    5  A    between atoms: C_19  and  O_20 
REMARK    6  A    between atoms: O_20  and  C_21 
ROOT
HETATM    1  C   UNK N   1      29.327  23.215  -4.669  0.00  0.00     0.035 A 
HETATM    2  N   UNK N   1      30.149  22.983  -3.578  0.00  0.00    -0.280 N 
HETATM    3  C   UNK N   1      29.675  23.187  -2.295  0.00  0.00     0.331 A 
HETATM    4  O   UNK N   1      30.384  22.979  -1.327  0.00  0.00    -0.246 OA
HETATM    5  N   UNK N   1      28.406  23.634  -2.094  0.00  0.00    -0.275 N 
HETATM    6  C   UNK N   1      27.574  23.917  -3.130  0.00  0.00     0.257 A 
HETATM    7  O   UNK N   1      26.465  24.355  -2.881  0.00  0.00    -0.267 OA
HETATM    8  C   UNK N   1      28.001  23.721  -4.462  0.00  0.00     0.037 A 
HETATM    9  H   UNK N   1      28.082  23.756  -1.172  0.00  0.00     0.173 HD
ENDROOT
BRANCH   1  10
HETATM   10  C   UNK N   1      29.763  22.963  -6.111  0.00  0.00     0.096 C 
BRANCH  10  11
HETATM   11  C   UNK N   1      29.661  21.669  -6.859  0.00  0.00    -0.053 A 
HETATM   12  C   UNK N   1      28.506  21.416  -7.606  0.00  0.00     0.007 A 
HETATM   13  C   UNK N   1      28.331  20.182  -8.238  0.00  0.00     0.001 A 
HETATM   14  C   UNK N   1      29.312  19.194  -8.123  0.00  0.00     0.000 A 
HETATM   15  C   UNK N   1      30.461  19.435  -7.364  0.00  0.00     0.001 A 
HETATM   16  C   UNK N   1      30.627  20.663  -6.714  0.00  0.00     0.007 A 
ENDBRANCH  10  11
ENDBRANCH   1  10
BRANCH   2  17
HETATM   17  C   UNK N   1      31.552  22.587  -3.745  0.00  0.00     0.303 C 
BRANCH  17  18
HETATM   18  O   UNK N   1      31.741  21.221  -3.516  0.00  0.00    -0.372 OA
BRANCH  18  19
HETATM   19  C   UNK N   1      33.001  21.152  -2.912  0.00  0.00     0.165 C 
HETATM   20  C   UNK N   1      33.922  20.262  -3.720  0.00  0.00     0.033 C 
ENDBRANCH  18  19
ENDBRANCH  17  18
ENDBRANCH   2  17
BRANCH   8  21
HETATM   21  C   UNK N   1      27.045  24.075  -5.626  0.00  0.00     0.018 C 
HETATM   22  C   UNK N   1      27.116  25.413  -6.344  0.00  0.00     0.015 C 
HETATM   23  C   UNK N   1      25.873  23.218  -6.078  0.00  0.00     0.015 C 
ENDBRANCH   8  21
TORSDOF 6
ENDMDL
MODEL 2
REMARK VINA RESULT:      -6.1     15.198     17.214
REMARK  6 active torsions:
REMARK  status: ('A' for Active; 'I' for Inactive)
REMARK    1  A    between atoms: C_1  and  C_15 
REMARK    2  A    between atoms: C_7  and  C_15 
REMARK    3  A    between atoms: N_8  and  C_19 
REMARK    4  A    between atoms: C_14  and  C_16 
REMARK    5  A    between atoms: C_19  and  O_20 
REMARK    6  A    between atoms: O_20  and  C_21 
ROOT
HETATM    1  C   UNK N   1      21.536  15.434   6.949  0.00  0.00     0.035 A 
HETATM    2  N   UNK N   1      20.892  16.584   7.377  0.00  0.00    -0.280 N 
HETATM    3  C   UNK N   1      21.288  17.821   6.901  0.00  0.00     0.331 A 
HETATM    4  O   UNK N   1      20.726  18.838   7.265  0.00  0.00    -0.246 OA
HETATM    5  N   UNK N   1      22.323  17.921   6.024  0.00  0.00    -0.275 N 
HETATM    6  C   UNK N   1      23.014  16.829   5.604  0.00  0.00     0.257 A 
HETATM    7  O   UNK N   1      23.956  16.992   4.851  0.00  0.00    -0.267 OA
HETATM    8  C   UNK N   1      22.649  15.539   6.051  0.00  0.00     0.037 A 
HETATM    9  H   UNK N   1      22.578  18.808   5.684  0.00  0.00     0.173 HD
ENDROOT
BRANCH   1  10
HETATM   10  C   UNK N   1      21.121  14.032   7.389  0.00  0.00     0.096 C 
BRANCH  10  11
HETATM   11  C   UNK N   1      21.627  13.288   8.587  0.00  0.00    -0.053 A 
HETATM   12  C   UNK N   1      22.626  12.326   8.405  0.00  0.00     0.007 A 
HETATM   13  C   UNK N   1      23.056  11.543   9.480  0.00  0.00     0.001 A 
HETATM   14  C   UNK N   1      22.485  11.719  10.744  0.00  0.00     0.000 A 
HETATM   15  C   UNK N   1      21.474  12.668  10.928  0.00  0.00     0.001 A 
HETATM   16  C   UNK N   1      21.030  13.438   9.846  0.00  0.00     0.007 A 
ENDBRANCH  10  11
ENDBRANCH   1  10
BRANCH   2  17
HETATM   17  C   UNK N   1      19.832  16.537   8.391  0.00  0.00     0.303 C 
BRANCH  17  18
HETATM   18  O   UNK N   1      18.563  16.423   7.815  0.00  0.00    -0.372 OA
BRANCH  18  19
HETATM   19  C   UNK N   1      17.702  16.926   8.796  0.00  0.00     0.165 C 
HETATM   20  C   UNK N   1      18.429  17.928   9.667  0.00  0.00     0.033 C 
ENDBRANCH  18  19
ENDBRANCH  17  18
ENDBRANCH   2  17
BRANCH   8  21
HETATM   21  C   UNK N   1      23.467  14.312   5.580  0.00  0.00     0.018 C 
HETATM   22  C   UNK N   1      24.809  13.956   6.201  0.00  0.00     0.015 C 
HETATM   23  C   UNK N   1      23.111  13.437   4.390  0.00  0.00     0.015 C 
ENDBRANCH   8  21
TORSDOF 6
ENDMDL
MODEL 3
REMARK VINA RESULT:      -6.0      1.194      4.544
REMARK  6 active torsions:
REMARK  status: ('A' for Active; 'I' for Inactive)
REMARK    1  A    between atoms: C_1  and  C_15 
REMARK    2  A    between atoms: C_7  and  C_15 
REMARK    3  A    between atoms: N_8  and  C_19 
REMARK    4  A    between atoms: C_14  and  C_16 
REMARK    5  A    between atoms: C_19  and  O_20 
REMARK    6  A    between atoms: O_20  and  C_21 
ROOT
HETATM    1  C   UNK N   1      29.227  23.229  -4.765  0.00  0.00     0.035 A 
HETATM    2  N   UNK N   1      27.952  23.690  -4.476  0.00  0.00    -0.280 N 
HETATM    3  C   UNK N   1      27.578  23.925  -3.166  0.00  0.00     0.331 A 
HETATM    4  O   UNK N   1      26.464  24.338  -2.899  0.00  0.00    -0.246 OA
HETATM    5  N   UNK N   1      28.451  23.689  -2.149  0.00  0.00    -0.275 N 
HETATM    6  C   UNK N   1      29.697  23.197  -2.374  0.00  0.00     0.257 A 
HETATM    7  O   UNK N   1      30.413  22.968  -1.416  0.00  0.00    -0.267 OA
HETATM    8  C   UNK N   1      30.136  22.945  -3.693  0.00  0.00     0.037 A 
HETATM    9  H   UNK N   1      28.171  23.880  -1.224  0.00  0.00     0.173 HD
ENDROOT
BRANCH   1  10
HETATM   10  C   UNK N   1      29.728  22.996  -6.188  0.00  0.00     0.096 C 
BRANCH  10  11
HETATM   11  C   UNK N   1      29.665  21.712  -6.956  0.00  0.00    -0.053 A 
HETATM   12  C   UNK N   1      28.439  21.320  -7.507  0.00  0.00     0.007 A 
HETATM   13  C   UNK N   1      28.317  20.084  -8.147  0.00  0.00     0.001 A 
HETATM   14  C   UNK N   1      29.421  19.231  -8.236  0.00  0.00     0.000 A 
HETATM   15  C   UNK N   1      30.643  19.610  -7.672  0.00  0.00     0.001 A 
HETATM   16  C   UNK N   1      30.761  20.840  -7.014  0.00  0.00     0.007 A 
ENDBRANCH  10  11
ENDBRANCH   1  10
BRANCH   2  17
HETATM   17  C   UNK N   1      26.946  23.874  -5.529  0.00  0.00     0.303 C 
BRANCH  17  18
HETATM   18  O   UNK N   1      26.936  25.183  -6.020  0.00  0.00    -0.372 OA
BRANCH  18  19
HETATM   19  C   UNK N   1      25.587  25.428  -6.294  0.00  0.00     0.165 C 
HETATM   20  C   UNK N   1      25.152  26.735  -5.664  0.00  0.00     0.033 C 
ENDBRANCH  18  19
ENDBRANCH  17  18
ENDBRANCH   2  17
BRANCH   8  21
HETATM   21  C   UNK N   1      31.551  22.360  -3.924  0.00  0.00     0.018 C 
HETATM   22  C   UNK N   1      32.672  23.188  -4.532  0.00  0.00     0.015 C 
HETATM   23  C   UNK N   1      31.932  20.904  -3.712  0.00  0.00     0.015 C 
ENDBRANCH   8  21
TORSDOF 6
ENDMDL
MODEL 4
REMARK VINA RESULT:      -5.9     10.153     12.503
REMARK  6 active torsions:
REMARK  status: ('A' for Active; 'I' for Inactive)
REMARK    1  A    between atoms: C_1  and  C_15 
REMARK    2  A    between atoms: C_7  and  C_15 
REMARK    3  A    between atoms: N_8  and  C_19 
REMARK    4  A    between atoms: C_14  and  C_16 
REMARK    5  A    between atoms: C_19  and  O_20 
REMARK    6  A    between atoms: O_20  and  C_21 
ROOT
HETATM    1  C   UNK N   1      28.660  17.870   5.915  0.00  0.00     0.035 A 
HETATM    2  N   UNK N   1      28.116  18.172   4.676  0.00  0.00    -0.280 N 
HETATM    3  C   UNK N   1      27.289  19.269   4.529  0.00  0.00     0.331 A 
HETATM    4  O   UNK N   1      26.810  19.550   3.445  0.00  0.00    -0.246 OA
HETATM    5  N   UNK N   1      26.987  20.051   5.601  0.00  0.00    -0.275 N 
HETATM    6  C   UNK N   1      27.460  19.776   6.844  0.00  0.00     0.257 A 
HETATM    7  O   UNK N   1      27.117  20.491   7.768  0.00  0.00    -0.267 OA
HETATM    8  C   UNK N   1      28.316  18.671   7.053  0.00  0.00     0.037 A 
HETATM    9  H   UNK N   1      26.410  20.838   5.471  0.00  0.00     0.173 HD
ENDROOT
BRANCH   1  10
HETATM   10  C   UNK N   1      29.623  16.706   6.143  0.00  0.00     0.096 C 
BRANCH  10  11
HETATM   11  C   UNK N   1      31.117  16.758   6.064  0.00  0.00    -0.053 A 
HETATM   12  C   UNK N   1      31.862  16.314   7.162  0.00  0.00     0.007 A 
HETATM   13  C   UNK N   1      33.254  16.436   7.166  0.00  0.00     0.001 A 
HETATM   14  C   UNK N   1      33.908  17.006   6.070  0.00  0.00     0.000 A 
HETATM   15  C   UNK N   1      33.168  17.466   4.977  0.00  0.00     0.001 A 
HETATM   16  C   UNK N   1      31.772  17.362   4.981  0.00  0.00     0.007 A 
ENDBRANCH  10  11
ENDBRANCH   1  10
BRANCH   2  17
HETATM   17  C   UNK N   1      28.338  17.308   3.510  0.00  0.00     0.303 C 
BRANCH  17  18
HETATM   18  O   UNK N   1      27.366  16.308   3.408  0.00  0.00    -0.372 OA
BRANCH  18  19
HETATM   19  C   UNK N   1      27.945  15.362   2.557  0.00  0.00     0.165 C 
HETATM   20  C   UNK N   1      29.455  15.440   2.636  0.00  0.00     0.033 C 
ENDBRANCH  18  19
ENDBRANCH  17  18
ENDBRANCH   2  17
BRANCH   8  21
HETATM   21  C   UNK N   1      28.821  18.361   8.483  0.00  0.00     0.018 C 
HETATM   22  C   UNK N   1      30.128  18.930   9.012  0.00  0.00     0.015 C 
HETATM   23  C   UNK N   1      28.170  17.374   9.438  0.00  0.00     0.015 C 
ENDBRANCH   8  21
TORSDOF 6
ENDMDL
MODEL 5
REMARK VINA RESULT:      -5.9     10.805     13.876
REMARK  6 active torsions:
REMARK  status: ('A' for Active; 'I' for Inactive)
REMARK    1  A    between atoms: C_1  and  C_15 
REMARK    2  A    between atoms: C_7  and  C_15 
REMARK    3  A    between atoms: N_8  and  C_19 
REMARK    4  A    between atoms: C_14  and  C_16 
REMARK    5  A    between atoms: C_19  and  O_20 
REMARK    6  A    between atoms: O_20  and  C_21 
ROOT
HETATM    1  C   UNK N   1      30.300  16.744   6.203  0.00  0.00     0.035 A 
HETATM    2  N   UNK N   1      29.317  17.711   6.344  0.00  0.00    -0.280 N 
HETATM    3  C   UNK N   1      28.637  18.177   5.234  0.00  0.00     0.331 A 
HETATM    4  O   UNK N   1      27.766  19.021   5.345  0.00  0.00    -0.246 OA
HETATM    5  N   UNK N   1      28.939  17.705   3.994  0.00  0.00    -0.275 N 
HETATM    6  C   UNK N   1      29.922  16.789   3.797  0.00  0.00     0.257 A 
HETATM    7  O   UNK N   1      30.171  16.440   2.657  0.00  0.00    -0.267 OA
HETATM    8  C   UNK N   1      30.645  16.271   4.895  0.00  0.00     0.037 A 
HETATM    9  H   UNK N   1      28.431  18.038   3.219  0.00  0.00     0.173 HD
ENDROOT
BRANCH   1  10
HETATM   10  C   UNK N   1      31.056  16.144   7.387  0.00  0.00     0.096 C 
BRANCH  10  11
HETATM   11  C   UNK N   1      32.333  16.654   7.980  0.00  0.00    -0.053 A 
HETATM   12  C   UNK N   1      32.870  17.848   7.486  0.00  0.00     0.007 A 
HETATM   13  C   UNK N   1      34.108  18.307   7.945  0.00  0.00     0.001 A 
HETATM   14  C   UNK N   1      34.816  17.570   8.898  0.00  0.00     0.000 A 
HETATM   15  C   UNK N   1      34.292  16.368   9.382  0.00  0.00     0.001 A 
HETATM   16  C   UNK N   1      33.062  15.898   8.908  0.00  0.00     0.007 A 
ENDBRANCH  10  11
ENDBRANCH   1  10
BRANCH   2  17
HETATM   17  C   UNK N   1      29.017  18.316   7.647  0.00  0.00     0.303 C 
BRANCH  17  18
HETATM   18  O   UNK N   1      28.114  17.546   8.386  0.00  0.00    -0.372 OA
BRANCH  18  19
HETATM   19  C   UNK N   1      28.583  17.648   9.700  0.00  0.00     0.165 C 
HETATM   20  C   UNK N   1      29.685  18.683   9.785  0.00  0.00     0.033 C 
ENDBRANCH  18  19
ENDBRANCH  17  18
ENDBRANCH   2  17
BRANCH   8  21
HETATM   21  C   UNK N   1      31.778  15.247   4.643  0.00  0.00     0.018 C 
HETATM   22  C   UNK N   1      31.531  13.748   4.692  0.00  0.00     0.015 C 
HETATM   23  C   UNK N   1      33.246  15.603   4.467  0.00  0.00     0.015 C 
ENDBRANCH   8  21
TORSDOF 6
ENDMDL
MODEL 6
REMARK VINA RESULT:      -5.8      2.647      5.403
REMARK  6 active torsions:
REMARK  status: ('A' for Active; 'I' for Inactive)
REMARK    1  A    between atoms: C_1  and  C_15 
REMARK    2  A    between atoms: C_7  and  C_15 
REMARK    3  A    between atoms: N_8  and  C_19 
REMARK    4  A    between atoms: C_14  and  C_16 
REMARK    5  A    between atoms: C_19  and  O_20 
REMARK    6  A    between atoms: O_20  and  C_21 
ROOT
HETATM    1  C   UNK N   1      27.657  23.293  -5.972  0.00  0.00     0.035 A 
HETATM    2  N   UNK N   1      28.987  23.306  -5.582  0.00  0.00    -0.280 N 
HETATM    3  C   UNK N   1      29.968  22.848  -6.442  0.00  0.00     0.331 A 
HETATM    4  O   UNK N   1      31.141  22.861  -6.115  0.00  0.00    -0.246 OA
HETATM    5  N   UNK N   1      29.635  22.365  -7.670  0.00  0.00    -0.275 N 
HETATM    6  C   UNK N   1      28.344  22.292  -8.084  0.00  0.00     0.257 A 
HETATM    7  O   UNK N   1      28.111  21.809  -9.178  0.00  0.00    -0.267 OA
HETATM    8  C   UNK N   1      27.300  22.752  -7.251  0.00  0.00     0.037 A 
HETATM    9  H   UNK N   1      30.350  22.060  -8.274  0.00  0.00     0.173 HD
ENDROOT
BRANCH   1  10
HETATM   10  C   UNK N   1      26.526  23.830  -5.098  0.00  0.00     0.096 C 
BRANCH  10  11
HETATM   11  C   UNK N   1      26.145  25.267  -4.917  0.00  0.00    -0.053 A 
HETATM   12  C   UNK N   1      26.504  25.910  -3.727  0.00  0.00     0.007 A 
HETATM   13  C   UNK N   1      26.085  27.220  -3.479  0.00  0.00     0.001 A 
HETATM   14  C   UNK N   1      25.301  27.892  -4.421  0.00  0.00     0.000 A 
HETATM   15  C   UNK N   1      24.925  27.249  -5.603  0.00  0.00     0.001 A 
HETATM   16  C   UNK N   1      25.328  25.930  -5.843  0.00  0.00     0.007 A 
ENDBRANCH  10  11
ENDBRANCH   1  10
BRANCH   2  17
HETATM   17  C   UNK N   1      29.388  23.732  -4.236  0.00  0.00     0.303 C 
BRANCH  17  18
HETATM   18  O   UNK N   1      29.407  22.664  -3.333  0.00  0.00    -0.372 OA
BRANCH  18  19
HETATM   19  C   UNK N   1      30.546  22.900  -2.558  0.00  0.00     0.165 C 
HETATM   20  C   UNK N   1      31.596  21.844  -2.836  0.00  0.00     0.033 C 
ENDBRANCH  18  19
ENDBRANCH  17  18
ENDBRANCH   2  17
BRANCH   8  21
HETATM   21  C   UNK N   1      25.834  22.634  -7.733  0.00  0.00     0.018 C 
HETATM   22  C   UNK N   1      25.187  23.701  -8.602  0.00  0.00     0.015 C 
HETATM   23  C   UNK N   1      24.860  21.552  -7.294  0.00  0.00     0.015 C 
ENDBRANCH   8  21
TORSDOF 6
ENDMDL
MODEL 7
REMARK VINA RESULT:      -5.8     10.760     12.583
REMARK  6 active torsions:
REMARK  status: ('A' for Active; 'I' for Inactive)
REMARK    1  A    between atoms: C_1  and  C_15 
REMARK    2  A    between atoms: C_7  and  C_15 
REMARK    3  A    between atoms: N_8  and  C_19 
REMARK    4  A    between atoms: C_14  and  C_16 
REMARK    5  A    between atoms: C_19  and  O_20 
REMARK    6  A    between atoms: O_20  and  C_21 
ROOT
HETATM    1  C   UNK N   1      29.629  16.470   6.710  0.00  0.00     0.035 A 
HETATM    2  N   UNK N   1      29.673  17.183   7.898  0.00  0.00    -0.280 N 
HETATM    3  C   UNK N   1      28.614  17.995   8.261  0.00  0.00     0.331 A 
HETATM    4  O   UNK N   1      28.638  18.621   9.305  0.00  0.00    -0.246 OA
HETATM    5  N   UNK N   1      27.529  18.115   7.449  0.00  0.00    -0.275 N 
HETATM    6  C   UNK N   1      27.454  17.470   6.255  0.00  0.00     0.257 A 
HETATM    7  O   UNK N   1      26.474  17.654   5.556  0.00  0.00    -0.267 OA
HETATM    8  C   UNK N   1      28.503  16.621   5.835  0.00  0.00     0.037 A 
HETATM    9  H   UNK N   1      26.779  18.684   7.734  0.00  0.00     0.173 HD
ENDROOT
BRANCH   1  10
HETATM   10  C   UNK N   1      30.735  15.514   6.268  0.00  0.00     0.096 C 
BRANCH  10  11
HETATM   11  C   UNK N   1      31.685  15.717   5.128  0.00  0.00    -0.053 A 
HETATM   12  C   UNK N   1      32.156  17.009   4.871  0.00  0.00     0.007 A 
HETATM   13  C   UNK N   1      32.966  17.256   3.759  0.00  0.00     0.001 A 
HETATM   14  C   UNK N   1      33.305  16.210   2.896  0.00  0.00     0.000 A 
HETATM   15  C   UNK N   1      32.823  14.921   3.139  0.00  0.00     0.001 A 
HETATM   16  C   UNK N   1      31.995  14.677   4.241  0.00  0.00     0.007 A 
ENDBRANCH  10  11
ENDBRANCH   1  10
BRANCH   2  17
HETATM   17  C   UNK N   1      30.858  17.159   8.763  0.00  0.00     0.303 C 
BRANCH  17  18
HETATM   18  O   UNK N   1      31.818  18.093   8.361  0.00  0.00    -0.372 OA
BRANCH  18  19
HETATM   19  C   UNK N   1      33.032  17.420   8.530  0.00  0.00     0.165 C 
HETATM   20  C   UNK N   1      34.166  18.227   7.934  0.00  0.00     0.033 C 
ENDBRANCH  18  19
ENDBRANCH  17  18
ENDBRANCH   2  17
BRANCH   8  21
HETATM   21  C   UNK N   1      28.406  15.918   4.460  0.00  0.00     0.018 C 
HETATM   22  C   UNK N   1      28.804  16.619   3.171  0.00  0.00     0.015 C 
HETATM   23  C   UNK N   1      27.791  14.547   4.227  0.00  0.00     0.015 C 
ENDBRANCH   8  21
TORSDOF 6
ENDMDL
MODEL 8
REMARK VINA RESULT:      -5.8     10.981     13.701
REMARK  6 active torsions:
REMARK  status: ('A' for Active; 'I' for Inactive)
REMARK    1  A    between atoms: C_1  and  C_15 
REMARK    2  A    between atoms: C_7  and  C_15 
REMARK    3  A    between atoms: N_8  and  C_19 
REMARK    4  A    between atoms: C_14  and  C_16 
REMARK    5  A    between atoms: C_19  and  O_20 
REMARK    6  A    between atoms: O_20  and  C_21 
ROOT
HETATM    1  C   UNK N   1      30.239  16.675   6.510  0.00  0.00     0.035 A 
HETATM    2  N   UNK N   1      30.314  16.374   5.159  0.00  0.00    -0.280 N 
HETATM    3  C   UNK N   1      29.501  17.032   4.254  0.00  0.00     0.331 A 
HETATM    4  O   UNK N   1      29.562  16.782   3.064  0.00  0.00    -0.246 OA
HETATM    5  N   UNK N   1      28.610  17.966   4.683  0.00  0.00    -0.275 N 
HETATM    6  C   UNK N   1      28.468  18.268   6.000  0.00  0.00     0.257 A 
HETATM    7  O   UNK N   1      27.622  19.084   6.321  0.00  0.00    -0.267 OA
HETATM    8  C   UNK N   1      29.276  17.634   6.969  0.00  0.00     0.037 A 
HETATM    9  H   UNK N   1      28.053  18.436   4.021  0.00  0.00     0.173 HD
ENDROOT
BRANCH   1  10
HETATM   10  C   UNK N   1      31.140  16.028   7.560  0.00  0.00     0.096 C 
BRANCH  10  11
HETATM   11  C   UNK N   1      32.476  16.528   8.017  0.00  0.00    -0.053 A 
HETATM   12  C   UNK N   1      33.148  15.820   9.019  0.00  0.00     0.007 A 
HETATM   13  C   UNK N   1      34.350  16.306   9.541  0.00  0.00     0.001 A 
HETATM   14  C   UNK N   1      34.884  17.506   9.062  0.00  0.00     0.000 A 
HETATM   15  C   UNK N   1      34.208  18.226   8.073  0.00  0.00     0.001 A 
HETATM   16  C   UNK N   1      32.994  17.749   7.565  0.00  0.00     0.007 A 
ENDBRANCH  10  11
ENDBRANCH   1  10
BRANCH   2  17
HETATM   17  C   UNK N   1      31.193  15.311   4.657  0.00  0.00     0.303 C 
BRANCH  17  18
HETATM   18  O   UNK N   1      32.481  15.783   4.384  0.00  0.00    -0.372 OA
BRANCH  18  19
HETATM   19  C   UNK N   1      33.315  14.735   4.786  0.00  0.00     0.165 C 
HETATM   20  C   UNK N   1      34.619  15.281   5.328  0.00  0.00     0.033 C 
ENDBRANCH  18  19
ENDBRANCH  17  18
ENDBRANCH   2  17
BRANCH   8  21
HETATM   21  C   UNK N   1      29.078  17.975   8.465  0.00  0.00     0.018 C 
HETATM   22  C   UNK N   1      29.991  18.948   9.194  0.00  0.00     0.015 C 
HETATM   23  C   UNK N   1      28.077  17.295   9.385  0.00  0.00     0.015 C 
ENDBRANCH   8  21
TORSDOF 6
ENDMDL
MODEL 9
REMARK VINA RESULT:      -5.7     10.936     13.030
REMARK  6 active torsions:
REMARK  status: ('A' for Active; 'I' for Inactive)
REMARK    1  A    between atoms: C_1  and  C_15 
REMARK    2  A    between atoms: C_7  and  C_15 
REMARK    3  A    between atoms: N_8  and  C_19 
REMARK    4  A    between atoms: C_14  and  C_16 
REMARK    5  A    between atoms: C_19  and  O_20 
REMARK    6  A    between atoms: O_20  and  C_21 
ROOT
HETATM    1  C   UNK N   1      30.261  17.552   6.605  0.00  0.00     0.035 A 
HETATM    2  N   UNK N   1      29.498  17.989   7.677  0.00  0.00    -0.280 N 
HETATM    3  C   UNK N   1      30.047  18.044   8.944  0.00  0.00     0.331 A 
HETATM    4  O   UNK N   1      29.390  18.432   9.893  0.00  0.00    -0.246 OA
HETATM    5  N   UNK N   1      31.333  17.653   9.154  0.00  0.00    -0.275 N 
HETATM    6  C   UNK N   1      32.111  17.178   8.147  0.00  0.00     0.257 A 
HETATM    7  O   UNK N   1      33.240  16.805   8.410  0.00  0.00    -0.267 OA
HETATM    8  C   UNK N   1      31.606  17.106   6.829  0.00  0.00     0.037 A 
HETATM    9  H   UNK N   1      31.711  17.717  10.061  0.00  0.00     0.173 HD
ENDROOT
BRANCH   1  10
HETATM   10  C   UNK N   1      29.740  17.513   5.170  0.00  0.00     0.096 C 
BRANCH  10  11
HETATM   11  C   UNK N   1      29.218  16.312   4.444  0.00  0.00    -0.053 A 
HETATM   12  C   UNK N   1      28.799  15.207   5.193  0.00  0.00     0.007 A 
HETATM   13  C   UNK N   1      28.397  14.032   4.551  0.00  0.00     0.001 A 
HETATM   14  C   UNK N   1      28.414  13.957   3.156  0.00  0.00     0.000 A 
HETATM   15  C   UNK N   1      28.848  15.053   2.403  0.00  0.00     0.001 A 
HETATM   16  C   UNK N   1      29.270  16.222   3.046  0.00  0.00     0.007 A 
ENDBRANCH  10  11
ENDBRANCH   1  10
BRANCH   2  17
HETATM   17  C   UNK N   1      28.080  18.334   7.519  0.00  0.00     0.303 C 
BRANCH  17  18
HETATM   18  O   UNK N   1      27.881  19.718   7.476  0.00  0.00    -0.372 OA
BRANCH  18  19
HETATM   19  C   UNK N   1      27.220  19.925   6.261  0.00  0.00     0.165 C 
HETATM   20  C   UNK N   1      27.112  21.406   5.969  0.00  0.00     0.033 C 
ENDBRANCH  18  19
ENDBRANCH  17  18
ENDBRANCH   2  17
BRANCH   8  21
HETATM   21  C   UNK N   1      32.501  16.536   5.702  0.00  0.00     0.018 C 
HETATM   22  C   UNK N   1      33.285  17.442   4.766  0.00  0.00     0.015 C 
HETATM   23  C   UNK N   1      32.585  15.067   5.320  0.00  0.00     0.015 C 
ENDBRANCH   8  21
TORSDOF 6
ENDMDL
