REMARK  6 active torsions:
REMARK  status: ('A' for Active; 'I' for Inactive)
REMARK    1  A    between atoms: C_1  and  C_15 
REMARK    2  A    between atoms: C_7  and  C_15 
REMARK    3  A    between atoms: N_8  and  C_19 
REMARK    4  A    between atoms: C_14  and  C_16 
REMARK    5  A    between atoms: C_19  and  O_20 
REMARK    6  A    between atoms: O_20  and  C_21 
ROOT
HETATM    1  C   UNK N   1       0.553   0.908   0.102  0.00  0.00     0.035 A 
HETATM    2  N   UNK N   1      -0.723   0.403   0.298  0.00  0.00    -0.280 N 
HETATM    3  C   UNK N   1      -1.815   1.251   0.287  0.00  0.00     0.331 A 
HETATM    4  O   UNK N   1      -2.942   0.819   0.451  0.00  0.00    -0.246 OA
HETATM    5  N   UNK N   1      -1.646   2.588   0.102  0.00  0.00    -0.275 N 
HETATM    6  C   UNK N   1      -0.414   3.139  -0.053  0.00  0.00     0.257 A 
HETATM    7  O   UNK N   1      -0.329   4.348  -0.172  0.00  0.00    -0.267 OA
HETATM    8  C   UNK N   1       0.738   2.321  -0.058  0.00  0.00     0.037 A 
HETATM    9  H   UNK N   1      -2.438   3.172   0.080  0.00  0.00     0.173 HD
ENDROOT
BRANCH   1  10
HETATM   10  C   UNK N   1       1.800   0.028   0.049  0.00  0.00     0.096 C 
BRANCH  10  11
HETATM   11  C   UNK N   1       1.833  -1.469   0.015  0.00  0.00    -0.053 A 
HETATM   12  C   UNK N   1       2.619  -2.143   0.956  0.00  0.00     0.007 A 
HETATM   13  C   UNK N   1       2.753  -3.533   0.897  0.00  0.00     0.001 A 
HETATM   14  C   UNK N   1       2.102  -4.255  -0.107  0.00  0.00     0.000 A 
HETATM   15  C   UNK N   1       1.329  -3.585  -1.060  0.00  0.00     0.001 A 
HETATM   16  C   UNK N   1       1.211  -2.191  -1.013  0.00  0.00     0.007 A 
ENDBRANCH  10  11
ENDBRANCH   1  10
BRANCH   2  17
HETATM   17  C   UNK N   1      -0.949  -1.017   0.592  0.00  0.00     0.303 C 
BRANCH  17  18
HETATM   18  O   UNK N   1      -1.885  -1.588  -0.276  0.00  0.00    -0.372 OA
BRANCH  18  19
HETATM   19  C   UNK N   1      -2.760  -2.270   0.575  0.00  0.00     0.165 C 
HETATM   20  C   UNK N   1      -4.166  -2.243   0.013  0.00  0.00     0.033 C 
ENDBRANCH  18  19
ENDBRANCH  17  18
ENDBRANCH   2  17
BRANCH   8  21
HETATM   21  C   UNK N   1       2.133   2.974  -0.210  0.00  0.00     0.018 C 
HETATM   22  C   UNK N   1       2.298   4.424  -0.636  0.00  0.00     0.015 C 
HETATM   23  C   UNK N   1       3.455   2.232  -0.097  0.00  0.00     0.015 C 
ENDBRANCH   8  21
TORSDOF 6
