MODEL 1
REMARK VINA RESULT:      -7.0      0.000      0.000
REMARK  5 active torsions:
REMARK  status: ('A' for Active; 'I' for Inactive)
REMARK       I    between atoms: C_3  and  N_4 
REMARK    1  A    between atoms: C_7  and  N_8 
REMARK    2  A    between atoms: C_12  and  C_17 
REMARK    3  A    between atoms: C_17  and  C_18 
REMARK    4  A    between atoms: C_19  and  O_20 
REMARK    5  A    between atoms: C_24  and  O_25 
ROOT
HETATM    1  N   UNK N   1      21.494  19.909   2.636  0.00  0.00    -0.176 N 
ATOM      2  HN  UNK N   1      21.919  20.814   2.844  1.00  0.00     0.186 HD
HETATM    3  C   UNK N   1      20.656  19.796   1.576  0.00  0.00     0.679 A 
HETATM    4  N   UNK N   1      20.391  20.917   0.767  0.00  0.00    -0.234 N 
HETATM    5  N   UNK N   1      20.072  18.605   1.296  0.00  0.00    -0.176 N 
ATOM      6  HN  UNK N   1      19.431  18.540   0.505  1.00  0.00     0.186 HD
HETATM    7  C   UNK N   1      20.319  17.498   2.041  0.00  0.00     0.129 A 
HETATM    8  C   UNK N   1      21.209  17.578   3.146  0.00  0.00     0.059 A 
HETATM    9  C   UNK N   1      21.565  16.476   3.977  0.00  0.00    -0.036 A 
HETATM   10  C   UNK N   1      21.073  15.092   3.683  0.00  0.00     0.050 C 
HETATM   11  C   UNK N   1      22.432  16.692   5.077  0.00  0.00    -0.031 A 
HETATM   12  C   UNK N   1      22.940  17.971   5.298  0.00  0.00     0.097 A 
HETATM   13  N   UNK N   1      22.617  19.001   4.478  0.00  0.00    -0.351 N 
ATOM     14  HN  UNK N   1      23.016  19.922   4.660  1.00  0.00     0.166 HD
HETATM   15  C   UNK N   1      21.777  18.843   3.425  0.00  0.00     0.135 A 
HETATM   16  H   UNK N   1      19.497  21.078   0.387  0.00  0.00     0.174 HD
HETATM   17  H   UNK N   1      21.116  21.554   0.576  0.00  0.00     0.174 HD
ENDROOT
BRANCH  11  18
HETATM   18  C   UNK N   1      22.919  15.600   6.001  0.00  0.00     0.082 C 
BRANCH  18  19
HETATM   19  C   UNK N   1      22.124  15.222   7.235  0.00  0.00    -0.018 A 
HETATM   20  C   UNK N   1      22.524  14.136   8.074  0.00  0.00     0.074 A 
HETATM   21  C   UNK N   1      21.701  13.766   9.145  0.00  0.00     0.040 A 
HETATM   22  C   UNK N   1      20.504  14.430   9.397  0.00  0.00     0.039 A 
HETATM   23  C   UNK N   1      20.111  15.503   8.589  0.00  0.00     0.068 A 
HETATM   24  C   UNK N   1      20.928  15.893   7.529  0.00  0.00     0.047 A 
BRANCH  20  25
HETATM   25  O   UNK N   1      23.669  13.417   7.906  0.00  0.00    -0.355 OA
HETATM   26  C   UNK N   1      24.647  13.200   8.848  0.00  0.00     0.210 C 
ENDBRANCH  20  25
BRANCH  23  27
HETATM   27  O   UNK N   1      18.939  16.153   8.790  0.00  0.00    -0.356 OA
HETATM   28  C   UNK N   1      18.856  17.511   8.996  0.00  0.00     0.210 C 
ENDBRANCH  23  27
ENDBRANCH  18  19
ENDBRANCH  11  18
BRANCH   7  29
HETATM   29  N   UNK N   1      19.662  16.298   1.699  0.00  0.00    -0.384 N 
HETATM   30  H   UNK N   1      19.371  15.554   2.277  0.00  0.00     0.157 HD
HETATM   31  H   UNK N   1      19.464  16.186   0.742  0.00  0.00     0.157 HD
ENDBRANCH   7  29
TORSDOF 5
ENDMDL
MODEL 2
REMARK VINA RESULT:      -6.8      8.164     10.697
REMARK  5 active torsions:
REMARK  status: ('A' for Active; 'I' for Inactive)
REMARK       I    between atoms: C_3  and  N_4 
REMARK    1  A    between atoms: C_7  and  N_8 
REMARK    2  A    between atoms: C_12  and  C_17 
REMARK    3  A    between atoms: C_17  and  C_18 
REMARK    4  A    between atoms: C_19  and  O_20 
REMARK    5  A    between atoms: C_24  and  O_25 
ROOT
HETATM    1  N   UNK N   1      32.942  17.266   9.311  0.00  0.00    -0.176 N 
ATOM      2  HN  UNK N   1      32.815  17.224  10.322  1.00  0.00     0.186 HD
HETATM    3  C   UNK N   1      34.195  17.351   8.800  0.00  0.00     0.679 A 
HETATM    4  N   UNK N   1      35.306  17.367   9.664  0.00  0.00    -0.234 N 
HETATM    5  N   UNK N   1      34.380  17.422   7.459  0.00  0.00    -0.176 N 
ATOM      6  HN  UNK N   1      35.328  17.502   7.091  1.00  0.00     0.186 HD
HETATM    7  C   UNK N   1      33.334  17.389   6.594  0.00  0.00     0.129 A 
HETATM    8  C   UNK N   1      32.009  17.279   7.095  0.00  0.00     0.059 A 
HETATM    9  C   UNK N   1      30.842  17.204   6.281  0.00  0.00    -0.036 A 
HETATM   10  C   UNK N   1      30.939  17.152   4.788  0.00  0.00     0.050 C 
HETATM   11  C   UNK N   1      29.570  17.140   6.903  0.00  0.00    -0.031 A 
HETATM   12  C   UNK N   1      29.495  17.117   8.294  0.00  0.00     0.097 A 
HETATM   13  N   UNK N   1      30.618  17.155   9.053  0.00  0.00    -0.351 N 
ATOM     14  HN  UNK N   1      30.529  17.124  10.069  1.00  0.00     0.166 HD
HETATM   15  C   UNK N   1      31.854  17.236   8.501  0.00  0.00     0.135 A 
HETATM   16  H   UNK N   1      36.097  17.924   9.477  0.00  0.00     0.174 HD
HETATM   17  H   UNK N   1      35.293  16.809  10.475  0.00  0.00     0.174 HD
ENDROOT
BRANCH  11  18
HETATM   18  C   UNK N   1      28.264  17.011   6.152  0.00  0.00     0.082 C 
BRANCH  18  19
HETATM   19  C   UNK N   1      27.601  18.231   5.543  0.00  0.00    -0.018 A 
HETATM   20  C   UNK N   1      27.232  18.265   4.162  0.00  0.00     0.074 A 
HETATM   21  C   UNK N   1      26.713  19.451   3.628  0.00  0.00     0.040 A 
HETATM   22  C   UNK N   1      26.559  20.590   4.414  0.00  0.00     0.039 A 
HETATM   23  C   UNK N   1      26.905  20.561   5.770  0.00  0.00     0.068 A 
HETATM   24  C   UNK N   1      27.408  19.383   6.320  0.00  0.00     0.047 A 
BRANCH  20  25
HETATM   25  O   UNK N   1      27.352  17.211   3.308  0.00  0.00    -0.355 OA
HETATM   26  C   UNK N   1      26.373  16.301   2.986  0.00  0.00     0.210 C 
ENDBRANCH  20  25
BRANCH  23  27
HETATM   27  O   UNK N   1      26.794  21.658   6.556  0.00  0.00    -0.356 OA
HETATM   28  C   UNK N   1      26.009  21.701   7.686  0.00  0.00     0.210 C 
ENDBRANCH  23  27
ENDBRANCH  18  19
ENDBRANCH  11  18
BRANCH   7  29
HETATM   29  N   UNK N   1      33.602  17.484   5.212  0.00  0.00    -0.384 N 
HETATM   30  H   UNK N   1      33.781  16.770   4.557  0.00  0.00     0.157 HD
HETATM   31  H   UNK N   1      33.613  18.399   4.849  0.00  0.00     0.157 HD
ENDBRANCH   7  29
TORSDOF 5
ENDMDL
MODEL 3
REMARK VINA RESULT:      -6.7     11.197     14.143
REMARK  5 active torsions:
REMARK  status: ('A' for Active; 'I' for Inactive)
REMARK       I    between atoms: C_3  and  N_4 
REMARK    1  A    between atoms: C_7  and  N_8 
REMARK    2  A    between atoms: C_12  and  C_17 
REMARK    3  A    between atoms: C_17  and  C_18 
REMARK    4  A    between atoms: C_19  and  O_20 
REMARK    5  A    between atoms: C_24  and  O_25 
ROOT
HETATM    1  N   UNK N   1      35.937  15.624  11.672  0.00  0.00    -0.176 N 
ATOM      2  HN  UNK N   1      35.965  16.315  12.422  1.00  0.00     0.186 HD
HETATM    3  C   UNK N   1      36.347  14.356  11.919  0.00  0.00     0.679 A 
HETATM    4  N   UNK N   1      36.791  14.000  13.207  0.00  0.00    -0.234 N 
HETATM    5  N   UNK N   1      36.331  13.430  10.930  0.00  0.00    -0.176 N 
ATOM      6  HN  UNK N   1      36.658  12.485  11.128  1.00  0.00     0.186 HD
HETATM    7  C   UNK N   1      35.891  13.731   9.681  0.00  0.00     0.129 A 
HETATM    8  C   UNK N   1      35.435  15.045   9.393  0.00  0.00     0.059 A 
HETATM    9  C   UNK N   1      34.923  15.464   8.130  0.00  0.00    -0.036 A 
HETATM   10  C   UNK N   1      34.749  14.493   7.004  0.00  0.00     0.050 C 
HETATM   11  C   UNK N   1      34.539  16.817   7.955  0.00  0.00    -0.031 A 
HETATM   12  C   UNK N   1      34.639  17.695   9.033  0.00  0.00     0.097 A 
HETATM   13  N   UNK N   1      35.097  17.272  10.237  0.00  0.00    -0.351 N 
ATOM     14  HN  UNK N   1      35.146  17.937  11.009  1.00  0.00     0.166 HD
HETATM   15  C   UNK N   1      35.493  15.991  10.443  0.00  0.00     0.135 A 
HETATM   16  H   UNK N   1      37.540  13.374  13.340  0.00  0.00     0.174 HD
HETATM   17  H   UNK N   1      36.343  14.386  13.994  0.00  0.00     0.174 HD
ENDROOT
BRANCH  11  18
HETATM   18  C   UNK N   1      33.941  17.371   6.682  0.00  0.00     0.082 C 
BRANCH  18  19
HETATM   19  C   UNK N   1      32.448  17.289   6.432  0.00  0.00    -0.018 A 
HETATM   20  C   UNK N   1      31.909  17.380   5.111  0.00  0.00     0.074 A 
HETATM   21  C   UNK N   1      30.519  17.398   4.945  0.00  0.00     0.040 A 
HETATM   22  C   UNK N   1      29.661  17.337   6.039  0.00  0.00     0.039 A 
HETATM   23  C   UNK N   1      30.180  17.235   7.335  0.00  0.00     0.068 A 
HETATM   24  C   UNK N   1      31.561  17.199   7.516  0.00  0.00     0.047 A 
BRANCH  20  25
HETATM   25  O   UNK N   1      32.661  17.454   3.978  0.00  0.00    -0.355 OA
HETATM   26  C   UNK N   1      32.952  16.421   3.117  0.00  0.00     0.210 C 
ENDBRANCH  20  25
BRANCH  23  27
HETATM   27  O   UNK N   1      29.374  17.202   8.424  0.00  0.00    -0.356 OA
HETATM   28  C   UNK N   1      29.527  18.044   9.502  0.00  0.00     0.210 C 
ENDBRANCH  23  27
ENDBRANCH  18  19
ENDBRANCH  11  18
BRANCH   7  29
HETATM   29  N   UNK N   1      35.919  12.720   8.697  0.00  0.00    -0.384 N 
HETATM   30  H   UNK N   1      35.281  11.988   8.531  0.00  0.00     0.157 HD
HETATM   31  H   UNK N   1      36.691  12.750   8.087  0.00  0.00     0.157 HD
ENDBRANCH   7  29
TORSDOF 5
ENDMDL
MODEL 4
REMARK VINA RESULT:      -6.7      1.317      2.386
REMARK  5 active torsions:
REMARK  status: ('A' for Active; 'I' for Inactive)
REMARK       I    between atoms: C_3  and  N_4 
REMARK    1  A    between atoms: C_7  and  N_8 
REMARK    2  A    between atoms: C_12  and  C_17 
REMARK    3  A    between atoms: C_17  and  C_18 
REMARK    4  A    between atoms: C_19  and  O_20 
REMARK    5  A    between atoms: C_24  and  O_25 
ROOT
HETATM    1  N   UNK N   1      19.902  19.399   1.774  0.00  0.00    -0.176 N 
ATOM      2  HN  UNK N   1      19.005  19.316   1.295  1.00  0.00     0.186 HD
HETATM    3  C   UNK N   1      20.693  20.471   1.525  0.00  0.00     0.679 A 
HETATM    4  N   UNK N   1      20.266  21.465   0.624  0.00  0.00    -0.234 N 
HETATM    5  N   UNK N   1      21.894  20.587   2.141  0.00  0.00    -0.176 N 
ATOM      6  HN  UNK N   1      22.485  21.392   1.931  1.00  0.00     0.186 HD
HETATM    7  C   UNK N   1      22.331  19.659   3.031  0.00  0.00     0.129 A 
HETATM    8  C   UNK N   1      21.517  18.534   3.330  0.00  0.00     0.059 A 
HETATM    9  C   UNK N   1      21.860  17.516   4.268  0.00  0.00    -0.036 A 
HETATM   10  C   UNK N   1      23.106  17.609   5.091  0.00  0.00     0.050 C 
HETATM   11  C   UNK N   1      20.981  16.419   4.447  0.00  0.00    -0.031 A 
HETATM   12  C   UNK N   1      19.789  16.380   3.726  0.00  0.00     0.097 A 
HETATM   13  N   UNK N   1      19.463  17.373   2.862  0.00  0.00    -0.351 N 
ATOM     14  HN  UNK N   1      18.578  17.320   2.359  1.00  0.00     0.166 HD
HETATM   15  C   UNK N   1      20.283  18.432   2.646  0.00  0.00     0.135 A 
HETATM   16  H   UNK N   1      20.897  21.916   0.017  0.00  0.00     0.174 HD
HETATM   17  H   UNK N   1      19.314  21.716   0.601  0.00  0.00     0.174 HD
ENDROOT
BRANCH  11  18
HETATM   18  C   UNK N   1      21.209  15.304   5.441  0.00  0.00     0.082 C 
BRANCH  18  19
HETATM   19  C   UNK N   1      20.684  15.415   6.859  0.00  0.00    -0.018 A 
HETATM   20  C   UNK N   1      21.048  14.465   7.863  0.00  0.00     0.074 A 
HETATM   21  C   UNK N   1      20.457  14.557   9.130  0.00  0.00     0.040 A 
HETATM   22  C   UNK N   1      19.524  15.549   9.421  0.00  0.00     0.039 A 
HETATM   23  C   UNK N   1      19.172  16.491   8.447  0.00  0.00     0.068 A 
HETATM   24  C   UNK N   1      19.763  16.422   7.187  0.00  0.00     0.047 A 
BRANCH  20  25
HETATM   25  O   UNK N   1      21.941  13.454   7.678  0.00  0.00    -0.355 OA
HETATM   26  C   UNK N   1      21.914  12.216   8.274  0.00  0.00     0.210 C 
ENDBRANCH  20  25
BRANCH  23  27
HETATM   27  O   UNK N   1      18.247  17.451   8.687  0.00  0.00    -0.356 OA
HETATM   28  C   UNK N   1      17.551  17.549   9.870  0.00  0.00     0.210 C 
ENDBRANCH  23  27
ENDBRANCH  18  19
ENDBRANCH  11  18
BRANCH   7  29
HETATM   29  N   UNK N   1      23.600  19.839   3.620  0.00  0.00    -0.384 N 
HETATM   30  H   UNK N   1      23.877  20.452   4.340  0.00  0.00     0.157 HD
HETATM   31  H   UNK N   1      24.316  19.268   3.258  0.00  0.00     0.157 HD
ENDBRANCH   7  29
TORSDOF 5
ENDMDL
MODEL 5
REMARK VINA RESULT:      -6.7     13.352     15.600
REMARK  5 active torsions:
REMARK  status: ('A' for Active; 'I' for Inactive)
REMARK       I    between atoms: C_3  and  N_4 
REMARK    1  A    between atoms: C_7  and  N_8 
REMARK    2  A    between atoms: C_12  and  C_17 
REMARK    3  A    between atoms: C_17  and  C_18 
REMARK    4  A    between atoms: C_19  and  O_20 
REMARK    5  A    between atoms: C_24  and  O_25 
ROOT
HETATM    1  N   UNK N   1      31.379  21.956  -2.480  0.00  0.00    -0.176 N 
ATOM      2  HN  UNK N   1      31.550  21.862  -1.479  1.00  0.00     0.186 HD
HETATM    3  C   UNK N   1      32.318  21.525  -3.359  0.00  0.00     0.679 A 
HETATM    4  N   UNK N   1      33.508  20.942  -2.884  0.00  0.00    -0.234 N 
HETATM    5  N   UNK N   1      32.114  21.656  -4.692  0.00  0.00    -0.176 N 
ATOM      6  HN  UNK N   1      32.837  21.342  -5.339  1.00  0.00     0.186 HD
HETATM    7  C   UNK N   1      30.970  22.196  -5.187  0.00  0.00     0.129 A 
HETATM    8  C   UNK N   1      29.957  22.638  -4.294  0.00  0.00     0.059 A 
HETATM    9  C   UNK N   1      28.707  23.189  -4.701  0.00  0.00    -0.036 A 
HETATM   10  C   UNK N   1      28.329  23.269  -6.147  0.00  0.00     0.050 C 
HETATM   11  C   UNK N   1      27.795  23.635  -3.713  0.00  0.00    -0.031 A 
HETATM   12  C   UNK N   1      28.129  23.490  -2.367  0.00  0.00     0.097 A 
HETATM   13  N   UNK N   1      29.308  22.933  -1.997  0.00  0.00    -0.351 N 
ATOM     14  HN  UNK N   1      29.517  22.831  -1.004  1.00  0.00     0.166 HD
HETATM   15  C   UNK N   1      30.218  22.511  -2.910  0.00  0.00     0.135 A 
HETATM   16  H   UNK N   1      34.373  21.100  -3.329  0.00  0.00     0.174 HD
HETATM   17  H   UNK N   1      33.476  20.361  -2.090  0.00  0.00     0.174 HD
ENDROOT
BRANCH  11  18
HETATM   18  C   UNK N   1      26.423  24.193  -4.014  0.00  0.00     0.082 C 
BRANCH  18  19
HETATM   19  C   UNK N   1      26.217  25.686  -4.180  0.00  0.00    -0.018 A 
HETATM   20  C   UNK N   1      25.690  26.234  -5.391  0.00  0.00     0.074 A 
HETATM   21  C   UNK N   1      25.613  27.625  -5.529  0.00  0.00     0.040 A 
HETATM   22  C   UNK N   1      26.045  28.476  -4.515  0.00  0.00     0.039 A 
HETATM   23  C   UNK N   1      26.550  27.948  -3.321  0.00  0.00     0.068 A 
HETATM   24  C   UNK N   1      26.618  26.565  -3.163  0.00  0.00     0.047 A 
BRANCH  20  25
HETATM   25  O   UNK N   1      25.251  25.490  -6.444  0.00  0.00    -0.355 OA
HETATM   26  C   UNK N   1      25.833  25.402  -7.686  0.00  0.00     0.210 C 
ENDBRANCH  20  25
BRANCH  23  27
HETATM   27  O   UNK N   1      27.004  28.746  -2.326  0.00  0.00    -0.356 OA
HETATM   28  C   UNK N   1      27.606  29.964  -2.550  0.00  0.00     0.210 C 
ENDBRANCH  23  27
ENDBRANCH  18  19
ENDBRANCH  11  18
BRANCH   7  29
HETATM   29  N   UNK N   1      30.835  22.316  -6.586  0.00  0.00    -0.384 N 
HETATM   30  H   UNK N   1      30.026  22.257  -7.145  0.00  0.00     0.157 HD
HETATM   31  H   UNK N   1      31.672  22.481  -7.075  0.00  0.00     0.157 HD
ENDBRANCH   7  29
TORSDOF 5
ENDMDL
MODEL 6
REMARK VINA RESULT:      -6.5     13.860     16.069
REMARK  5 active torsions:
REMARK  status: ('A' for Active; 'I' for Inactive)
REMARK       I    between atoms: C_3  and  N_4 
REMARK    1  A    between atoms: C_7  and  N_8 
REMARK    2  A    between atoms: C_12  and  C_17 
REMARK    3  A    between atoms: C_17  and  C_18 
REMARK    4  A    between atoms: C_19  and  O_20 
REMARK    5  A    between atoms: C_24  and  O_25 
ROOT
HETATM    1  N   UNK N   1      32.249  23.647  -6.334  0.00  0.00    -0.176 N 
ATOM      2  HN  UNK N   1      32.354  24.082  -7.251  1.00  0.00     0.186 HD
HETATM    3  C   UNK N   1      33.307  23.014  -5.772  0.00  0.00     0.679 A 
HETATM    4  N   UNK N   1      34.542  22.974  -6.448  0.00  0.00    -0.234 N 
HETATM    5  N   UNK N   1      33.179  22.418  -4.562  0.00  0.00    -0.176 N 
ATOM      6  HN  UNK N   1      33.980  21.931  -4.160  1.00  0.00     0.186 HD
HETATM    7  C   UNK N   1      32.010  22.452  -3.871  0.00  0.00     0.129 A 
HETATM    8  C   UNK N   1      30.887  23.126  -4.423  0.00  0.00     0.059 A 
HETATM    9  C   UNK N   1      29.624  23.252  -3.775  0.00  0.00    -0.036 A 
HETATM   10  C   UNK N   1      29.409  22.736  -2.386  0.00  0.00     0.050 C 
HETATM   11  C   UNK N   1      28.566  23.912  -4.448  0.00  0.00    -0.031 A 
HETATM   12  C   UNK N   1      28.798  24.451  -5.713  0.00  0.00     0.097 A 
HETATM   13  N   UNK N   1      30.016  24.351  -6.300  0.00  0.00    -0.351 N 
ATOM     14  HN  UNK N   1      30.157  24.767  -7.221  1.00  0.00     0.166 HD
HETATM   15  C   UNK N   1      31.051  23.711  -5.700  0.00  0.00     0.135 A 
HETATM   16  H   UNK N   1      35.120  22.178  -6.418  0.00  0.00     0.174 HD
HETATM   17  H   UNK N   1      34.834  23.761  -6.961  0.00  0.00     0.174 HD
ENDROOT
BRANCH  11  18
HETATM   18  C   UNK N   1      27.198  24.150  -3.852  0.00  0.00     0.082 C 
BRANCH  18  19
HETATM   19  C   UNK N   1      26.409  25.396  -4.203  0.00  0.00    -0.018 A 
HETATM   20  C   UNK N   1      25.558  25.438  -5.351  0.00  0.00     0.074 A 
HETATM   21  C   UNK N   1      24.928  26.643  -5.686  0.00  0.00     0.040 A 
HETATM   22  C   UNK N   1      25.124  27.794  -4.927  0.00  0.00     0.039 A 
HETATM   23  C   UNK N   1      25.945  27.758  -3.794  0.00  0.00     0.068 A 
HETATM   24  C   UNK N   1      26.565  26.562  -3.439  0.00  0.00     0.047 A 
BRANCH  20  25
HETATM   25  O   UNK N   1      25.308  24.373  -6.162  0.00  0.00    -0.355 OA
HETATM   26  C   UNK N   1      25.747  24.205  -7.455  0.00  0.00     0.210 C 
ENDBRANCH  20  25
BRANCH  23  27
HETATM   27  O   UNK N   1      26.179  28.866  -3.050  0.00  0.00    -0.356 OA
HETATM   28  C   UNK N   1      26.500  30.088  -3.596  0.00  0.00     0.210 C 
ENDBRANCH  23  27
ENDBRANCH  18  19
ENDBRANCH  11  18
BRANCH   7  29
HETATM   29  N   UNK N   1      31.947  21.795  -2.625  0.00  0.00    -0.384 N 
HETATM   30  H   UNK N   1      31.419  21.007  -2.358  0.00  0.00     0.157 HD
HETATM   31  H   UNK N   1      32.513  22.180  -1.918  0.00  0.00     0.157 HD
ENDBRANCH   7  29
TORSDOF 5
ENDMDL
MODEL 7
REMARK VINA RESULT:      -6.4      4.503      7.427
REMARK  5 active torsions:
REMARK  status: ('A' for Active; 'I' for Inactive)
REMARK       I    between atoms: C_3  and  N_4 
REMARK    1  A    between atoms: C_7  and  N_8 
REMARK    2  A    between atoms: C_12  and  C_17 
REMARK    3  A    between atoms: C_17  and  C_18 
REMARK    4  A    between atoms: C_19  and  O_20 
REMARK    5  A    between atoms: C_24  and  O_25 
ROOT
HETATM    1  N   UNK N   1      20.447  13.439  10.445  0.00  0.00    -0.176 N 
ATOM      2  HN  UNK N   1      19.591  13.841  10.828  1.00  0.00     0.186 HD
HETATM    3  C   UNK N   1      20.960  12.313  10.999  0.00  0.00     0.679 A 
HETATM    4  N   UNK N   1      20.303  11.703  12.084  0.00  0.00    -0.234 N 
HETATM    5  N   UNK N   1      22.105  11.776  10.512  0.00  0.00    -0.176 N 
ATOM      6  HN  UNK N   1      22.487  10.938  10.951  1.00  0.00     0.186 HD
HETATM    7  C   UNK N   1      22.756  12.326   9.455  0.00  0.00     0.129 A 
HETATM    8  C   UNK N   1      22.234  13.494   8.838  0.00  0.00     0.059 A 
HETATM    9  C   UNK N   1      22.815  14.136   7.706  0.00  0.00    -0.036 A 
HETATM   10  C   UNK N   1      24.011  13.559   7.014  0.00  0.00     0.050 C 
HETATM   11  C   UNK N   1      22.222  15.323   7.206  0.00  0.00    -0.031 A 
HETATM   12  C   UNK N   1      21.067  15.813   7.814  0.00  0.00     0.097 A 
HETATM   13  N   UNK N   1      20.509  15.170   8.870  0.00  0.00    -0.351 N 
ATOM     14  HN  UNK N   1      19.657  15.547   9.284  1.00  0.00     0.166 HD
HETATM   15  C   UNK N   1      21.053  14.042   9.391  0.00  0.00     0.135 A 
HETATM   16  H   UNK N   1      20.804  11.288  12.823  0.00  0.00     0.174 HD
HETATM   17  H   UNK N   1      19.319  11.689  12.104  0.00  0.00     0.174 HD
ENDROOT
BRANCH  11  18
HETATM   18  C   UNK N   1      22.715  16.070   5.988  0.00  0.00     0.082 C 
BRANCH  18  19
HETATM   19  C   UNK N   1      21.735  16.733   5.040  0.00  0.00    -0.018 A 
HETATM   20  C   UNK N   1      20.869  15.960   4.206  0.00  0.00     0.074 A 
HETATM   21  C   UNK N   1      20.054  16.620   3.278  0.00  0.00     0.040 A 
HETATM   22  C   UNK N   1      20.079  18.006   3.154  0.00  0.00     0.039 A 
HETATM   23  C   UNK N   1      20.914  18.771   3.976  0.00  0.00     0.068 A 
HETATM   24  C   UNK N   1      21.719  18.130   4.915  0.00  0.00     0.047 A 
BRANCH  20  25
HETATM   25  O   UNK N   1      20.777  14.601   4.242  0.00  0.00    -0.355 OA
HETATM   26  C   UNK N   1      19.759  13.863   4.797  0.00  0.00     0.210 C 
ENDBRANCH  20  25
BRANCH  23  27
HETATM   27  O   UNK N   1      20.983  20.120   3.862  0.00  0.00    -0.356 OA
HETATM   28  C   UNK N   1      20.906  20.780   2.657  0.00  0.00     0.210 C 
ENDBRANCH  23  27
ENDBRANCH  18  19
ENDBRANCH  11  18
BRANCH   7  29
HETATM   29  N   UNK N   1      23.951  11.720   9.014  0.00  0.00    -0.384 N 
HETATM   30  H   UNK N   1      24.664  12.084   8.439  0.00  0.00     0.157 HD
HETATM   31  H   UNK N   1      24.094  10.798   9.325  0.00  0.00     0.157 HD
ENDBRANCH   7  29
TORSDOF 5
ENDMDL
MODEL 8
REMARK VINA RESULT:      -6.4     16.459     18.463
REMARK  5 active torsions:
REMARK  status: ('A' for Active; 'I' for Inactive)
REMARK       I    between atoms: C_3  and  N_4 
REMARK    1  A    between atoms: C_7  and  N_8 
REMARK    2  A    between atoms: C_12  and  C_17 
REMARK    3  A    between atoms: C_17  and  C_18 
REMARK    4  A    between atoms: C_19  and  O_20 
REMARK    5  A    between atoms: C_24  and  O_25 
ROOT
HETATM    1  N   UNK N   1      37.257  13.487  11.800  0.00  0.00    -0.176 N 
ATOM      2  HN  UNK N   1      38.061  14.115  11.756  1.00  0.00     0.186 HD
HETATM    3  C   UNK N   1      36.862  12.832  10.681  0.00  0.00     0.679 A 
HETATM    4  N   UNK N   1      37.568  13.011   9.477  0.00  0.00    -0.234 N 
HETATM    5  N   UNK N   1      35.787  12.007  10.720  0.00  0.00    -0.176 N 
ATOM      6  HN  UNK N   1      35.493  11.534   9.865  1.00  0.00     0.186 HD
HETATM    7  C   UNK N   1      35.093  11.795  11.868  0.00  0.00     0.129 A 
HETATM    8  C   UNK N   1      35.494  12.450  13.063  0.00  0.00     0.059 A 
HETATM    9  C   UNK N   1      34.861  12.278  14.328  0.00  0.00    -0.036 A 
HETATM   10  C   UNK N   1      33.742  11.300  14.509  0.00  0.00     0.050 C 
HETATM   11  C   UNK N   1      35.328  13.022  15.440  0.00  0.00    -0.031 A 
HETATM   12  C   UNK N   1      36.416  13.877  15.276  0.00  0.00     0.097 A 
HETATM   13  N   UNK N   1      37.028  14.003  14.072  0.00  0.00    -0.351 N 
ATOM     14  HN  UNK N   1      37.830  14.628  13.988  1.00  0.00     0.166 HD
HETATM   15  C   UNK N   1      36.602  13.325  12.977  0.00  0.00     0.135 A 
HETATM   16  H   UNK N   1      37.106  13.043   8.608  0.00  0.00     0.174 HD
HETATM   17  H   UNK N   1      38.548  13.104   9.503  0.00  0.00     0.174 HD
ENDROOT
BRANCH  11  18
HETATM   18  C   UNK N   1      34.772  12.895  16.840  0.00  0.00     0.082 C 
BRANCH  18  19
HETATM   19  C   UNK N   1      35.354  11.887  17.813  0.00  0.00    -0.018 A 
HETATM   20  C   UNK N   1      35.434  12.166  19.212  0.00  0.00     0.074 A 
HETATM   21  C   UNK N   1      36.070  11.244  20.052  0.00  0.00     0.040 A 
HETATM   22  C   UNK N   1      36.626  10.072  19.547  0.00  0.00     0.039 A 
HETATM   23  C   UNK N   1      36.540   9.785  18.180  0.00  0.00     0.068 A 
HETATM   24  C   UNK N   1      35.896  10.685  17.333  0.00  0.00     0.047 A 
BRANCH  20  25
HETATM   25  O   UNK N   1      34.931  13.286  19.803  0.00  0.00    -0.355 OA
HETATM   26  C   UNK N   1      34.146  13.336  20.931  0.00  0.00     0.210 C 
ENDBRANCH  20  25
BRANCH  23  27
HETATM   27  O   UNK N   1      37.094   8.667  17.651  0.00  0.00    -0.356 OA
HETATM   28  C   UNK N   1      36.624   8.059  16.510  0.00  0.00     0.210 C 
ENDBRANCH  23  27
ENDBRANCH  18  19
ENDBRANCH  11  18
BRANCH   7  29
HETATM   29  N   UNK N   1      33.975  10.936  11.827  0.00  0.00    -0.384 N 
HETATM   30  H   UNK N   1      33.497  10.565  11.049  0.00  0.00     0.157 HD
HETATM   31  H   UNK N   1      33.620  10.667  12.704  0.00  0.00     0.157 HD
ENDBRANCH   7  29
TORSDOF 5
ENDMDL
MODEL 9
REMARK VINA RESULT:      -6.3      9.080     11.730
REMARK  5 active torsions:
REMARK  status: ('A' for Active; 'I' for Inactive)
REMARK       I    between atoms: C_3  and  N_4 
REMARK    1  A    between atoms: C_7  and  N_8 
REMARK    2  A    between atoms: C_12  and  C_17 
REMARK    3  A    between atoms: C_17  and  C_18 
REMARK    4  A    between atoms: C_19  and  O_20 
REMARK    5  A    between atoms: C_24  and  O_25 
ROOT
HETATM    1  N   UNK N   1      27.988  15.958   5.923  0.00  0.00    -0.176 N 
ATOM      2  HN  UNK N   1      27.816  15.405   5.083  1.00  0.00     0.186 HD
HETATM    3  C   UNK N   1      26.957  16.240   6.757  0.00  0.00     0.679 A 
HETATM    4  N   UNK N   1      25.667  15.758   6.467  0.00  0.00    -0.234 N 
HETATM    5  N   UNK N   1      27.166  16.987   7.868  0.00  0.00    -0.176 N 
ATOM      6  HN  UNK N   1      26.377  17.204   8.477  1.00  0.00     0.186 HD
HETATM    7  C   UNK N   1      28.400  17.453   8.192  0.00  0.00     0.129 A 
HETATM    8  C   UNK N   1      29.506  17.158   7.350  0.00  0.00     0.059 A 
HETATM    9  C   UNK N   1      30.847  17.567   7.607  0.00  0.00    -0.036 A 
HETATM   10  C   UNK N   1      31.210  18.292   8.865  0.00  0.00     0.050 C 
HETATM   11  C   UNK N   1      31.858  17.247   6.667  0.00  0.00    -0.031 A 
HETATM   12  C   UNK N   1      31.521  16.510   5.533  0.00  0.00     0.097 A 
HETATM   13  N   UNK N   1      30.246  16.100   5.321  0.00  0.00    -0.351 N 
ATOM     14  HN  UNK N   1      30.035  15.551   4.487  1.00  0.00     0.166 HD
HETATM   15  C   UNK N   1      29.244  16.400   6.184  0.00  0.00     0.135 A 
HETATM   16  H   UNK N   1      24.862  16.295   6.650  0.00  0.00     0.174 HD
HETATM   17  H   UNK N   1      25.567  14.861   6.072  0.00  0.00     0.174 HD
ENDROOT
BRANCH  11  18
HETATM   18  C   UNK N   1      33.321  17.583   6.846  0.00  0.00     0.082 C 
BRANCH  18  19
HETATM   19  C   UNK N   1      34.229  16.672   7.649  0.00  0.00    -0.018 A 
HETATM   20  C   UNK N   1      34.778  15.481   7.081  0.00  0.00     0.074 A 
HETATM   21  C   UNK N   1      35.530  14.625   7.895  0.00  0.00     0.040 A 
HETATM   22  C   UNK N   1      35.743  14.912   9.241  0.00  0.00     0.039 A 
HETATM   23  C   UNK N   1      35.220  16.083   9.802  0.00  0.00     0.068 A 
HETATM   24  C   UNK N   1      34.483  16.953   9.000  0.00  0.00     0.047 A 
BRANCH  20  25
HETATM   25  O   UNK N   1      34.620  15.106   5.781  0.00  0.00    -0.355 OA
HETATM   26  C   UNK N   1      35.494  14.354   5.032  0.00  0.00     0.210 C 
ENDBRANCH  20  25
BRANCH  23  27
HETATM   27  O   UNK N   1      35.385  16.379  11.113  0.00  0.00    -0.356 OA
HETATM   28  C   UNK N   1      35.820  15.463  12.044  0.00  0.00     0.210 C 
ENDBRANCH  23  27
ENDBRANCH  18  19
ENDBRANCH  11  18
BRANCH   7  29
HETATM   29  N   UNK N   1      28.538  18.238   9.355  0.00  0.00    -0.384 N 
HETATM   30  H   UNK N   1      27.966  18.967   9.692  0.00  0.00     0.157 HD
HETATM   31  H   UNK N   1      29.320  18.028   9.914  0.00  0.00     0.157 HD
ENDBRANCH   7  29
TORSDOF 5
ENDMDL
