MODEL 1
REMARK VINA RESULT:      -7.7      0.000      0.000
REMARK  2 active torsions:
REMARK  status: ('A' for Active; 'I' for Inactive)
REMARK       I    between atoms: C_8  and  N_7 
REMARK    1  A    between atoms: C_10  and  C_8 
REMARK    2  A    between atoms: C_14  and  N_15 
REMARK       I    between atoms: C_21  and  N_18 
ROOT
HETATM    1  C   UNK N   1      35.274  14.869  10.100  0.00  0.00     0.171 C 
HETATM    2  N   UNK N   1      36.698  14.529  10.065  0.00  0.00    -0.407 N 
HETATM    3  C   UNK N   1      36.933  13.766  11.282  0.00  0.00     0.150 C 
HETATM    4  C   UNK N   1      34.815  14.759  11.554  0.00  0.00     0.072 C 
HETATM    5  C   UNK N   1      36.080  14.438  12.340  0.00  0.00     0.242 C 
HETATM    6  H   UNK N   1      37.377  14.774   9.345  0.00  0.00     0.154 HD
ENDROOT
BRANCH   5   7
HETATM    7  N   UNK N   1      35.883  13.680  13.610  0.00  0.00     0.098 N 
HETATM    8  C   UNK N   1      36.650  14.178  14.750  0.00  0.00     0.293 C 
HETATM    9  C   UNK N   1      36.143  13.559  16.059  0.00  0.00     0.171 C 
HETATM   10  N   UNK N   1      35.702  12.171  15.940  0.00  0.00    -0.214 N 
HETATM   11  C   UNK N   1      35.567  11.497  14.655  0.00  0.00     0.171 C 
HETATM   12  C   UNK N   1      35.335  11.456  17.116  0.00  0.00     0.679 A 
HETATM   13  C   UNK N   1      36.189  12.259  13.497  0.00  0.00     0.293 C 
HETATM   14  N   UNK N   1      35.455  12.038  18.343  0.00  0.00    -0.202 N 
HETATM   15  N   UNK N   1      34.878  10.174  17.023  0.00  0.00    -0.202 N 
HETATM   16  C   UNK N   1      35.128  11.358  19.474  0.00  0.00     0.107 A 
ATOM     17  HN  UNK N   1      35.796  12.996  18.414  1.00  0.00     0.183 HD
HETATM   18  C   UNK N   1      34.661  10.049  19.390  0.00  0.00     0.035 A 
HETATM   19  C   UNK N   1      34.540   9.467  18.131  0.00  0.00     0.107 A 
ATOM     20  HN  UNK N   1      34.790   9.740  16.104  1.00  0.00     0.183 HD
ENDBRANCH   5   7
BRANCH   1  21
HETATM   21  C   UNK N   1      35.027  16.244   9.503  0.00  0.00     0.242 C 
HETATM   22  N   UNK N   1      34.472  16.382   8.263  0.00  0.00    -0.344 N 
HETATM   23  C   UNK N   1      34.119  15.267   7.428  0.00  0.00     0.132 C 
HETATM   24  C   UNK N   1      34.225  17.668   7.669  0.00  0.00     0.204 C 
HETATM   25  C   UNK N   1      33.800  15.903   6.084  0.00  0.00     0.100 C 
HETATM   26  C   UNK N   1      33.425  17.339   6.422  0.00  0.00     0.261 C 
HETATM   27  F   UNK N   1      33.727  18.201   5.385  0.00  0.00    -0.204 F 
HETATM   28  F   UNK N   1      32.074  17.398   6.711  0.00  0.00    -0.204 F 
HETATM   29  O   UNK N   1      35.319  17.242  10.149  0.00  0.00    -0.271 OA
ENDBRANCH   1  21
TORSDOF 2
ENDMDL
MODEL 2
REMARK VINA RESULT:      -7.5      4.212     10.241
REMARK  2 active torsions:
REMARK  status: ('A' for Active; 'I' for Inactive)
REMARK       I    between atoms: C_8  and  N_7 
REMARK    1  A    between atoms: C_10  and  C_8 
REMARK    2  A    between atoms: C_14  and  N_15 
REMARK       I    between atoms: C_21  and  N_18 
ROOT
HETATM    1  C   UNK N   1      35.459  13.881  12.809  0.00  0.00     0.171 C 
HETATM    2  N   UNK N   1      36.313  15.070  12.823  0.00  0.00    -0.407 N 
HETATM    3  C   UNK N   1      36.013  15.763  11.579  0.00  0.00     0.150 C 
HETATM    4  C   UNK N   1      35.064  13.620  11.355  0.00  0.00     0.072 C 
HETATM    5  C   UNK N   1      35.824  14.666  10.551  0.00  0.00     0.242 C 
HETATM    6  H   UNK N   1      36.975  15.350  13.546  0.00  0.00     0.154 HD
ENDROOT
BRANCH   5   7
HETATM    7  N   UNK N   1      35.201  15.071   9.257  0.00  0.00     0.098 N 
HETATM    8  C   UNK N   1      33.953  15.821   9.382  0.00  0.00     0.293 C 
HETATM    9  C   UNK N   1      33.569  16.467   8.045  0.00  0.00     0.171 C 
HETATM   10  N   UNK N   1      33.903  15.665   6.870  0.00  0.00    -0.214 N 
HETATM   11  C   UNK N   1      34.708  14.453   6.949  0.00  0.00     0.171 C 
HETATM   12  C   UNK N   1      33.476  16.106   5.584  0.00  0.00     0.679 A 
HETATM   13  C   UNK N   1      34.920  13.952   8.367  0.00  0.00     0.293 C 
HETATM   14  N   UNK N   1      32.710  17.227   5.459  0.00  0.00    -0.202 N 
HETATM   15  N   UNK N   1      33.814  15.396   4.470  0.00  0.00    -0.202 N 
HETATM   16  C   UNK N   1      32.278  17.645   4.239  0.00  0.00     0.107 A 
ATOM     17  HN  UNK N   1      32.456  17.759   6.291  1.00  0.00     0.183 HD
HETATM   18  C   UNK N   1      32.618  16.927   3.095  0.00  0.00     0.035 A 
HETATM   19  C   UNK N   1      33.402  15.786   3.237  0.00  0.00     0.107 A 
ATOM     20  HN  UNK N   1      34.387  14.557   4.566  1.00  0.00     0.183 HD
ENDBRANCH   5   7
BRANCH   1  21
HETATM   21  C   UNK N   1      36.160  12.698  13.454  0.00  0.00     0.242 C 
HETATM   22  N   UNK N   1      35.875  12.325  14.737  0.00  0.00    -0.344 N 
HETATM   23  C   UNK N   1      34.938  13.024  15.572  0.00  0.00     0.132 C 
HETATM   24  C   UNK N   1      36.521  11.211  15.377  0.00  0.00     0.204 C 
HETATM   25  C   UNK N   1      35.154  12.420  16.950  0.00  0.00     0.100 C 
HETATM   26  C   UNK N   1      35.751  11.048  16.675  0.00  0.00     0.261 C 
HETATM   27  F   UNK N   1      36.576  10.637  17.704  0.00  0.00    -0.204 F 
HETATM   28  F   UNK N   1      34.727  10.136  16.493  0.00  0.00    -0.204 F 
HETATM   29  O   UNK N   1      36.986  12.062  12.810  0.00  0.00    -0.271 OA
ENDBRANCH   1  21
TORSDOF 2
ENDMDL
MODEL 3
REMARK VINA RESULT:      -7.4      8.251     13.887
REMARK  2 active torsions:
REMARK  status: ('A' for Active; 'I' for Inactive)
REMARK       I    between atoms: C_8  and  N_7 
REMARK    1  A    between atoms: C_10  and  C_8 
REMARK    2  A    between atoms: C_14  and  N_15 
REMARK       I    between atoms: C_21  and  N_18 
ROOT
HETATM    1  C   UNK N   1      29.836  17.272   6.150  0.00  0.00     0.171 C 
HETATM    2  N   UNK N   1      29.547  15.899   5.731  0.00  0.00    -0.407 N 
HETATM    3  C   UNK N   1      28.233  15.965   5.107  0.00  0.00     0.150 C 
HETATM    4  C   UNK N   1      28.501  18.013   6.239  0.00  0.00     0.072 C 
HETATM    5  C   UNK N   1      27.447  16.953   5.946  0.00  0.00     0.242 C 
HETATM    6  H   UNK N   1      30.137  15.076   5.852  0.00  0.00     0.154 HD
ENDROOT
BRANCH   5   7
HETATM    7  N   UNK N   1      26.170  17.451   5.357  0.00  0.00     0.098 N 
HETATM    8  C   UNK N   1      25.170  16.418   5.089  0.00  0.00     0.293 C 
HETATM    9  C   UNK N   1      23.802  17.047   4.803  0.00  0.00     0.171 C 
HETATM   10  N   UNK N   1      23.859  18.310   4.070  0.00  0.00    -0.214 N 
HETATM   11  C   UNK N   1      25.109  19.011   3.809  0.00  0.00     0.171 C 
HETATM   12  C   UNK N   1      22.645  18.916   3.635  0.00  0.00     0.679 A 
HETATM   13  C   UNK N   1      26.347  18.184   4.109  0.00  0.00     0.293 C 
HETATM   14  N   UNK N   1      21.450  18.294   3.843  0.00  0.00    -0.202 N 
HETATM   15  N   UNK N   1      22.673  20.117   2.988  0.00  0.00    -0.202 N 
HETATM   16  C   UNK N   1      20.286  18.853   3.414  0.00  0.00     0.107 A 
ATOM     17  HN  UNK N   1      21.427  17.397   4.327  1.00  0.00     0.183 HD
HETATM   18  C   UNK N   1      20.304  20.078   2.753  0.00  0.00     0.035 A 
HETATM   19  C   UNK N   1      21.530  20.704   2.548  0.00  0.00     0.107 A 
ATOM     20  HN  UNK N   1      23.568  20.580   2.832  1.00  0.00     0.183 HD
ENDBRANCH   5   7
BRANCH   1  21
HETATM   21  C   UNK N   1      30.613  17.293   7.455  0.00  0.00     0.242 C 
HETATM   22  N   UNK N   1      31.977  17.365   7.460  0.00  0.00    -0.344 N 
HETATM   23  C   UNK N   1      32.770  17.392   6.262  0.00  0.00     0.132 C 
HETATM   24  C   UNK N   1      32.742  17.386   8.676  0.00  0.00     0.204 C 
HETATM   25  C   UNK N   1      34.194  17.208   6.762  0.00  0.00     0.100 C 
HETATM   26  C   UNK N   1      34.154  17.683   8.207  0.00  0.00     0.261 C 
HETATM   27  F   UNK N   1      35.094  17.031   8.982  0.00  0.00    -0.204 F 
HETATM   28  F   UNK N   1      34.375  19.048   8.241  0.00  0.00    -0.204 F 
HETATM   29  O   UNK N   1      30.006  17.255   8.518  0.00  0.00    -0.271 OA
ENDBRANCH   1  21
TORSDOF 2
ENDMDL
MODEL 4
REMARK VINA RESULT:      -7.3      6.389      9.927
REMARK  2 active torsions:
REMARK  status: ('A' for Active; 'I' for Inactive)
REMARK       I    between atoms: C_8  and  N_7 
REMARK    1  A    between atoms: C_10  and  C_8 
REMARK    2  A    between atoms: C_14  and  N_15 
REMARK       I    between atoms: C_21  and  N_18 
ROOT
HETATM    1  C   UNK N   1      28.035  17.180   4.384  0.00  0.00     0.171 C 
HETATM    2  N   UNK N   1      28.971  17.035   3.267  0.00  0.00    -0.407 N 
HETATM    3  C   UNK N   1      30.240  16.677   3.885  0.00  0.00     0.150 C 
HETATM    4  C   UNK N   1      28.863  17.416   5.647  0.00  0.00     0.072 C 
HETATM    5  C   UNK N   1      30.304  17.495   5.159  0.00  0.00     0.242 C 
HETATM    6  H   UNK N   1      28.777  17.159   2.274  0.00  0.00     0.154 HD
ENDROOT
BRANCH   5   7
HETATM    7  N   UNK N   1      31.349  17.099   6.147  0.00  0.00     0.098 N 
HETATM    8  C   UNK N   1      31.706  15.682   6.133  0.00  0.00     0.293 C 
HETATM    9  C   UNK N   1      32.991  15.436   6.932  0.00  0.00     0.171 C 
HETATM   10  N   UNK N   1      33.140  16.284   8.113  0.00  0.00    -0.214 N 
HETATM   11  C   UNK N   1      32.246  17.399   8.397  0.00  0.00     0.171 C 
HETATM   12  C   UNK N   1      34.230  16.053   9.001  0.00  0.00     0.679 A 
HETATM   13  C   UNK N   1      31.002  17.421   7.526  0.00  0.00     0.293 C 
HETATM   14  N   UNK N   1      35.086  15.014   8.786  0.00  0.00    -0.202 N 
HETATM   15  N   UNK N   1      34.412  16.860  10.086  0.00  0.00    -0.202 N 
HETATM   16  C   UNK N   1      36.118  14.771   9.639  0.00  0.00     0.107 A 
ATOM     17  HN  UNK N   1      34.952  14.410   7.976  1.00  0.00     0.183 HD
HETATM   18  C   UNK N   1      36.312  15.589  10.749  0.00  0.00     0.035 A 
HETATM   19  C   UNK N   1      35.433  16.648  10.955  0.00  0.00     0.107 A 
ATOM     20  HN  UNK N   1      33.770  17.636  10.245  1.00  0.00     0.183 HD
ENDBRANCH   5   7
BRANCH   1  21
HETATM   21  C   UNK N   1      27.033  18.290   4.115  0.00  0.00     0.242 C 
HETATM   22  N   UNK N   1      25.691  18.039   4.103  0.00  0.00    -0.344 N 
HETATM   23  C   UNK N   1      25.132  16.731   4.303  0.00  0.00     0.132 C 
HETATM   24  C   UNK N   1      24.718  19.067   3.852  0.00  0.00     0.204 C 
HETATM   25  C   UNK N   1      23.664  16.902   3.943  0.00  0.00     0.100 C 
HETATM   26  C   UNK N   1      23.394  18.386   4.145  0.00  0.00     0.261 C 
HETATM   27  F   UNK N   1      22.394  18.839   3.305  0.00  0.00    -0.204 F 
HETATM   28  F   UNK N   1      23.042  18.607   5.464  0.00  0.00    -0.204 F 
HETATM   29  O   UNK N   1      27.437  19.430   3.918  0.00  0.00    -0.271 OA
ENDBRANCH   1  21
TORSDOF 2
ENDMDL
MODEL 5
REMARK VINA RESULT:      -7.2      5.217      7.948
REMARK  2 active torsions:
REMARK  status: ('A' for Active; 'I' for Inactive)
REMARK       I    between atoms: C_8  and  N_7 
REMARK    1  A    between atoms: C_10  and  C_8 
REMARK    2  A    between atoms: C_14  and  N_15 
REMARK       I    between atoms: C_21  and  N_18 
ROOT
HETATM    1  C   UNK N   1      28.903  17.437   6.266  0.00  0.00     0.171 C 
HETATM    2  N   UNK N   1      29.964  17.563   5.265  0.00  0.00    -0.407 N 
HETATM    3  C   UNK N   1      31.151  17.015   5.906  0.00  0.00     0.150 C 
HETATM    4  C   UNK N   1      29.576  17.306   7.632  0.00  0.00     0.072 C 
HETATM    5  C   UNK N   1      31.064  17.466   7.350  0.00  0.00     0.242 C 
HETATM    6  H   UNK N   1      29.889  17.950   4.325  0.00  0.00     0.154 HD
ENDROOT
BRANCH   5   7
HETATM    7  N   UNK N   1      31.984  16.792   8.311  0.00  0.00     0.098 N 
HETATM    8  C   UNK N   1      33.328  17.363   8.383  0.00  0.00     0.293 C 
HETATM    9  C   UNK N   1      34.082  16.830   9.607  0.00  0.00     0.171 C 
HETATM   10  N   UNK N   1      33.790  15.436   9.935  0.00  0.00    -0.214 N 
HETATM   11  C   UNK N   1      32.729  14.680   9.282  0.00  0.00     0.171 C 
HETATM   12  C   UNK N   1      34.530  14.797  10.972  0.00  0.00     0.679 A 
HETATM   13  C   UNK N   1      32.158  15.368   8.054  0.00  0.00     0.293 C 
HETATM   14  N   UNK N   1      35.542  15.457  11.605  0.00  0.00    -0.202 N 
HETATM   15  N   UNK N   1      34.244  13.510  11.324  0.00  0.00    -0.202 N 
HETATM   16  C   UNK N   1      36.269  14.850  12.581  0.00  0.00     0.107 A 
ATOM     17  HN  UNK N   1      35.756  16.419  11.343  1.00  0.00     0.183 HD
HETATM   18  C   UNK N   1      35.984  13.537  12.947  0.00  0.00     0.035 A 
HETATM   19  C   UNK N   1      34.948  12.875  12.295  0.00  0.00     0.107 A 
ATOM     20  HN  UNK N   1      33.488  13.018  10.849  1.00  0.00     0.183 HD
ENDBRANCH   5   7
BRANCH   1  21
HETATM   21  C   UNK N   1      27.940  18.609   6.189  0.00  0.00     0.242 C 
HETATM   22  N   UNK N   1      26.863  18.582   5.349  0.00  0.00    -0.344 N 
HETATM   23  C   UNK N   1      26.579  17.484   4.467  0.00  0.00     0.132 C 
HETATM   24  C   UNK N   1      25.933  19.674   5.252  0.00  0.00     0.204 C 
HETATM   25  C   UNK N   1      25.471  18.012   3.570  0.00  0.00     0.100 C 
HETATM   26  C   UNK N   1      24.819  19.120   4.384  0.00  0.00     0.261 C 
HETATM   27  F   UNK N   1      24.277  20.097   3.571  0.00  0.00    -0.204 F 
HETATM   28  F   UNK N   1      23.835  18.573   5.188  0.00  0.00    -0.204 F 
HETATM   29  O   UNK N   1      28.126  19.590   6.899  0.00  0.00    -0.271 OA
ENDBRANCH   1  21
TORSDOF 2
ENDMDL
MODEL 6
REMARK VINA RESULT:      -7.1      8.433     12.446
REMARK  2 active torsions:
REMARK  status: ('A' for Active; 'I' for Inactive)
REMARK       I    between atoms: C_8  and  N_7 
REMARK    1  A    between atoms: C_10  and  C_8 
REMARK    2  A    between atoms: C_14  and  N_15 
REMARK       I    between atoms: C_21  and  N_18 
ROOT
HETATM    1  C   UNK N   1      25.301  18.965   4.359  0.00  0.00     0.171 C 
HETATM    2  N   UNK N   1      25.538  20.268   4.984  0.00  0.00    -0.407 N 
HETATM    3  C   UNK N   1      26.881  20.181   5.537  0.00  0.00     0.150 C 
HETATM    4  C   UNK N   1      26.277  17.972   4.992  0.00  0.00     0.072 C 
HETATM    5  C   UNK N   1      26.999  18.768   6.071  0.00  0.00     0.242 C 
HETATM    6  H   UNK N   1      24.900  21.062   5.024  0.00  0.00     0.154 HD
ENDROOT
BRANCH   5   7
HETATM    7  N   UNK N   1      28.374  18.302   6.413  0.00  0.00     0.098 N 
HETATM    8  C   UNK N   1      28.933  17.306   5.500  0.00  0.00     0.293 C 
HETATM    9  C   UNK N   1      30.439  17.137   5.735  0.00  0.00     0.171 C 
HETATM   10  N   UNK N   1      30.849  17.256   7.133  0.00  0.00    -0.214 N 
HETATM   11  C   UNK N   1      29.940  17.694   8.184  0.00  0.00     0.171 C 
HETATM   12  C   UNK N   1      32.204  16.988   7.484  0.00  0.00     0.679 A 
HETATM   13  C   UNK N   1      28.484  17.738   7.753  0.00  0.00     0.293 C 
HETATM   14  N   UNK N   1      33.090  16.562   6.539  0.00  0.00    -0.202 N 
HETATM   15  N   UNK N   1      32.618  17.135   8.775  0.00  0.00    -0.202 N 
HETATM   16  C   UNK N   1      34.380  16.282   6.867  0.00  0.00     0.107 A 
ATOM     17  HN  UNK N   1      32.782  16.451   5.574  1.00  0.00     0.183 HD
HETATM   18  C   UNK N   1      34.812  16.430   8.182  0.00  0.00     0.035 A 
HETATM   19  C   UNK N   1      33.899  16.867   9.136  0.00  0.00     0.107 A 
ATOM     20  HN  UNK N   1      31.953  17.453   9.481  1.00  0.00     0.183 HD
ENDBRANCH   5   7
BRANCH   1  21
HETATM   21  C   UNK N   1      23.849  18.545   4.507  0.00  0.00     0.242 C 
HETATM   22  N   UNK N   1      22.864  19.152   3.782  0.00  0.00    -0.344 N 
HETATM   23  C   UNK N   1      23.110  20.234   2.869  0.00  0.00     0.132 C 
HETATM   24  C   UNK N   1      21.481  18.779   3.898  0.00  0.00     0.204 C 
HETATM   25  C   UNK N   1      21.719  20.738   2.517  0.00  0.00     0.100 C 
HETATM   26  C   UNK N   1      20.806  19.549   2.779  0.00  0.00     0.261 C 
HETATM   27  F   UNK N   1      19.535  19.955   3.137  0.00  0.00    -0.204 F 
HETATM   28  F   UNK N   1      20.751  18.762   1.643  0.00  0.00    -0.204 F 
HETATM   29  O   UNK N   1      23.559  17.640   5.280  0.00  0.00    -0.271 OA
ENDBRANCH   1  21
TORSDOF 2
ENDMDL
MODEL 7
REMARK VINA RESULT:      -6.9      5.656     10.851
REMARK  2 active torsions:
REMARK  status: ('A' for Active; 'I' for Inactive)
REMARK       I    between atoms: C_8  and  N_7 
REMARK    1  A    between atoms: C_10  and  C_8 
REMARK    2  A    between atoms: C_14  and  N_15 
REMARK       I    between atoms: C_21  and  N_18 
ROOT
HETATM    1  C   UNK N   1      33.705  15.134   9.035  0.00  0.00     0.171 C 
HETATM    2  N   UNK N   1      32.799  14.937  10.168  0.00  0.00    -0.407 N 
HETATM    3  C   UNK N   1      31.533  15.517   9.742  0.00  0.00     0.150 C 
HETATM    4  C   UNK N   1      33.130  16.265   8.181  0.00  0.00     0.072 C 
HETATM    5  C   UNK N   1      31.911  16.754   8.953  0.00  0.00     0.242 C 
HETATM    6  H   UNK N   1      33.009  14.492  11.061  0.00  0.00     0.154 HD
ENDROOT
BRANCH   5   7
HETATM    7  N   UNK N   1      30.828  17.373   8.134  0.00  0.00     0.098 N 
HETATM    8  C   UNK N   1      29.554  17.547   8.828  0.00  0.00     0.293 C 
HETATM    9  C   UNK N   1      28.623  18.471   8.033  0.00  0.00     0.171 C 
HETATM   10  N   UNK N   1      28.728  18.331   6.582  0.00  0.00    -0.214 N 
HETATM   11  C   UNK N   1      29.765  17.531   5.943  0.00  0.00     0.171 C 
HETATM   12  C   UNK N   1      27.820  19.044   5.748  0.00  0.00     0.679 A 
HETATM   13  C   UNK N   1      30.532  16.643   6.908  0.00  0.00     0.293 C 
HETATM   14  N   UNK N   1      26.824  19.796   6.298  0.00  0.00    -0.202 N 
HETATM   15  N   UNK N   1      27.928  18.962   4.391  0.00  0.00    -0.202 N 
HETATM   16  C   UNK N   1      25.938  20.465   5.511  0.00  0.00     0.107 A 
ATOM     17  HN  UNK N   1      26.742  19.859   7.312  1.00  0.00     0.183 HD
HETATM   18  C   UNK N   1      26.040  20.387   4.125  0.00  0.00     0.035 A 
HETATM   19  C   UNK N   1      27.062  19.618   3.576  0.00  0.00     0.107 A 
ATOM     20  HN  UNK N   1      28.673  18.399   3.982  1.00  0.00     0.183 HD
ENDBRANCH   5   7
BRANCH   1  21
HETATM   21  C   UNK N   1      35.121  15.410   9.510  0.00  0.00     0.242 C 
HETATM   22  N   UNK N   1      36.051  14.412   9.570  0.00  0.00    -0.344 N 
HETATM   23  C   UNK N   1      35.763  13.045   9.231  0.00  0.00     0.132 C 
HETATM   24  C   UNK N   1      37.398  14.640  10.016  0.00  0.00     0.204 C 
HETATM   25  C   UNK N   1      36.995  12.286   9.698  0.00  0.00     0.100 C 
HETATM   26  C   UNK N   1      38.102  13.330   9.715  0.00  0.00     0.261 C 
HETATM   27  F   UNK N   1      39.060  13.039  10.667  0.00  0.00    -0.204 F 
HETATM   28  F   UNK N   1      38.682  13.395   8.461  0.00  0.00    -0.204 F 
HETATM   29  O   UNK N   1      35.436  16.549   9.834  0.00  0.00    -0.271 OA
ENDBRANCH   1  21
TORSDOF 2
ENDMDL
MODEL 8
REMARK VINA RESULT:      -6.9      4.675     10.230
REMARK  2 active torsions:
REMARK  status: ('A' for Active; 'I' for Inactive)
REMARK       I    between atoms: C_8  and  N_7 
REMARK    1  A    between atoms: C_10  and  C_8 
REMARK    2  A    between atoms: C_14  and  N_15 
REMARK       I    between atoms: C_21  and  N_18 
ROOT
HETATM    1  C   UNK N   1      35.792  12.612  14.587  0.00  0.00     0.171 C 
HETATM    2  N   UNK N   1      36.605  13.792  14.891  0.00  0.00    -0.407 N 
HETATM    3  C   UNK N   1      36.444  14.666  13.739  0.00  0.00     0.150 C 
HETATM    4  C   UNK N   1      35.590  12.575  13.072  0.00  0.00     0.072 C 
HETATM    5  C   UNK N   1      36.416  13.739  12.540  0.00  0.00     0.242 C 
HETATM    6  H   UNK N   1      37.163  13.962  15.727  0.00  0.00     0.154 HD
ENDROOT
BRANCH   5   7
HETATM    7  N   UNK N   1      35.950  14.334  11.254  0.00  0.00     0.098 N 
HETATM    8  C   UNK N   1      36.751  13.979  10.084  0.00  0.00     0.293 C 
HETATM    9  C   UNK N   1      36.022  14.357   8.789  0.00  0.00     0.171 C 
HETATM   10  N   UNK N   1      35.237  15.587   8.875  0.00  0.00    -0.214 N 
HETATM   11  C   UNK N   1      35.006  16.285  10.133  0.00  0.00     0.171 C 
HETATM   12  C   UNK N   1      34.624  16.103   7.697  0.00  0.00     0.679 A 
HETATM   13  C   UNK N   1      35.876  15.789  11.275  0.00  0.00     0.293 C 
HETATM   14  N   UNK N   1      34.820  15.493   6.493  0.00  0.00    -0.202 N 
HETATM   15  N   UNK N   1      33.851  17.225   7.763  0.00  0.00    -0.202 N 
HETATM   16  C   UNK N   1      34.257  15.989   5.359  0.00  0.00     0.107 A 
ATOM     17  HN  UNK N   1      35.397  14.654   6.442  1.00  0.00     0.183 HD
HETATM   18  C   UNK N   1      33.467  17.134   5.416  0.00  0.00     0.035 A 
HETATM   19  C   UNK N   1      33.272  17.745   6.651  0.00  0.00     0.107 A 
ATOM     20  HN  UNK N   1      33.706  17.680   8.664  1.00  0.00     0.183 HD
ENDBRANCH   5   7
BRANCH   1  21
HETATM   21  C   UNK N   1      36.439  11.349  15.130  0.00  0.00     0.242 C 
HETATM   22  N   UNK N   1      36.179  10.915  16.398  0.00  0.00    -0.344 N 
HETATM   23  C   UNK N   1      35.321  11.618  17.312  0.00  0.00     0.132 C 
HETATM   24  C   UNK N   1      36.774   9.725  16.942  0.00  0.00     0.204 C 
HETATM   25  C   UNK N   1      35.549  10.916  18.641  0.00  0.00     0.100 C 
HETATM   26  C   UNK N   1      36.045   9.529  18.259  0.00  0.00     0.261 C 
HETATM   27  F   UNK N   1      36.880   9.003  19.226  0.00  0.00    -0.204 F 
HETATM   28  F   UNK N   1      34.958   8.696  18.065  0.00  0.00    -0.204 F 
HETATM   29  O   UNK N   1      37.196  10.706  14.415  0.00  0.00    -0.271 OA
ENDBRANCH   1  21
TORSDOF 2
ENDMDL
MODEL 9
REMARK VINA RESULT:      -6.6      2.358      3.654
REMARK  2 active torsions:
REMARK  status: ('A' for Active; 'I' for Inactive)
REMARK       I    between atoms: C_8  and  N_7 
REMARK    1  A    between atoms: C_10  and  C_8 
REMARK    2  A    between atoms: C_14  and  N_15 
REMARK       I    between atoms: C_21  and  N_18 
ROOT
HETATM    1  C   UNK N   1      36.205  13.501  12.959  0.00  0.00     0.171 C 
HETATM    2  N   UNK N   1      36.813  14.595  13.720  0.00  0.00    -0.407 N 
HETATM    3  C   UNK N   1      36.754  14.165  15.109  0.00  0.00     0.150 C 
HETATM    4  C   UNK N   1      35.342  12.695  13.930  0.00  0.00     0.072 C 
HETATM    5  C   UNK N   1      35.422  13.456  15.247  0.00  0.00     0.242 C 
HETATM    6  H   UNK N   1      37.193  15.468  13.356  0.00  0.00     0.154 HD
ENDROOT
BRANCH   5   7
HETATM    7  N   UNK N   1      35.231  12.640  16.482  0.00  0.00     0.098 N 
HETATM    8  C   UNK N   1      35.467  13.355  17.735  0.00  0.00     0.293 C 
HETATM    9  C   UNK N   1      34.938  12.551  18.928  0.00  0.00     0.171 C 
HETATM   10  N   UNK N   1      35.087  11.104  18.796  0.00  0.00    -0.214 N 
HETATM   11  C   UNK N   1      35.518  10.469  17.557  0.00  0.00     0.171 C 
HETATM   12  C   UNK N   1      34.750  10.266  19.898  0.00  0.00     0.679 A 
HETATM   13  C   UNK N   1      36.062  11.444  16.528  0.00  0.00     0.293 C 
HETATM   14  N   UNK N   1      34.354  10.813  21.083  0.00  0.00    -0.202 N 
HETATM   15  N   UNK N   1      34.841   8.910  19.781  0.00  0.00    -0.202 N 
HETATM   16  C   UNK N   1      34.050  10.024  22.149  0.00  0.00     0.107 A 
ATOM     17  HN  UNK N   1      34.286  11.826  21.172  1.00  0.00     0.183 HD
HETATM   18  C   UNK N   1      34.139   8.639  22.039  0.00  0.00     0.035 A 
HETATM   19  C   UNK N   1      34.542   8.094  20.824  0.00  0.00     0.107 A 
ATOM     20  HN  UNK N   1      35.138   8.504  18.894  1.00  0.00     0.183 HD
ENDBRANCH   5   7
BRANCH   1  21
HETATM   21  C   UNK N   1      35.422  14.033  11.771  0.00  0.00     0.242 C 
HETATM   22  N   UNK N   1      35.933  13.968  10.506  0.00  0.00    -0.344 N 
HETATM   23  C   UNK N   1      37.234  13.436  10.208  0.00  0.00     0.132 C 
HETATM   24  C   UNK N   1      35.218  14.461   9.361  0.00  0.00     0.204 C 
HETATM   25  C   UNK N   1      37.457  13.812   8.751  0.00  0.00     0.100 C 
HETATM   26  C   UNK N   1      36.056  13.991   8.186  0.00  0.00     0.261 C 
HETATM   27  F   UNK N   1      36.039  14.908   7.152  0.00  0.00    -0.204 F 
HETATM   28  F   UNK N   1      35.587  12.768   7.743  0.00  0.00    -0.204 F 
HETATM   29  O   UNK N   1      34.311  14.516  11.949  0.00  0.00    -0.271 OA
ENDBRANCH   1  21
TORSDOF 2
ENDMDL
