REMARK  2 active torsions:
REMARK  status: ('A' for Active; 'I' for Inactive)
REMARK       I    between atoms: C_8  and  N_7 
REMARK    1  A    between atoms: C_10  and  C_8 
REMARK    2  A    between atoms: C_14  and  N_15 
REMARK       I    between atoms: C_21  and  N_18 
ROOT
HETATM    1  C   UNK N   1       2.146   1.024   0.476  0.00  0.00     0.171 C 
HETATM    2  N   UNK N   1       1.436   2.221   0.021  0.00  0.00    -0.407 N 
HETATM    3  C   UNK N   1       0.035   1.830  -0.031  0.00  0.00     0.150 C 
HETATM    4  C   UNK N   1       1.246  -0.178   0.188  0.00  0.00     0.072 C 
HETATM    5  C   UNK N   1       0.042   0.403  -0.542  0.00  0.00     0.242 C 
HETATM    6  H   UNK N   1       1.836   3.130  -0.210  0.00  0.00     0.154 HD
ENDROOT
BRANCH   5   7
HETATM    7  N   UNK N   1      -1.234  -0.357  -0.400  0.00  0.00     0.098 N 
HETATM    8  C   UNK N   1      -2.332   0.390   0.211  0.00  0.00     0.293 C 
HETATM    9  C   UNK N   1      -3.664  -0.344   0.017  0.00  0.00     0.171 C 
HETATM   10  N   UNK N   1      -3.564  -1.801   0.071  0.00  0.00    -0.214 N 
HETATM   11  C   UNK N   1      -2.286  -2.500   0.106  0.00  0.00     0.171 C 
HETATM   12  C   UNK N   1      -4.756  -2.581   0.034  0.00  0.00     0.679 A 
HETATM   13  C   UNK N   1      -1.099  -1.589   0.367  0.00  0.00     0.293 C 
HETATM   14  N   UNK N   1      -5.977  -1.974   0.014  0.00  0.00    -0.202 N 
HETATM   15  N   UNK N   1      -4.683  -3.943   0.039  0.00  0.00    -0.202 N 
HETATM   16  C   UNK N   1      -7.122  -2.708   0.000  0.00  0.00     0.107 A 
ATOM     17  HN  UNK N   1      -6.033  -0.956   0.010  1.00  0.00     0.183 HD
HETATM   18  C   UNK N   1      -7.058  -4.099   0.005  0.00  0.00     0.035 A 
HETATM   19  C   UNK N   1      -5.806  -4.706   0.023  0.00  0.00     0.107 A 
ATOM     20  HN  UNK N   1      -3.769  -4.395   0.055  1.00  0.00     0.183 HD
ENDBRANCH   5   7
BRANCH   1  21
HETATM   21  C   UNK N   1       3.510   0.915  -0.184  0.00  0.00     0.242 C 
HETATM   22  N   UNK N   1       4.444   1.900  -0.036  0.00  0.00    -0.344 N 
HETATM   23  C   UNK N   1       4.207   3.106   0.709  0.00  0.00     0.132 C 
HETATM   24  C   UNK N   1       5.743   1.828  -0.647  0.00  0.00     0.204 C 
HETATM   25  C   UNK N   1       5.402   3.984   0.373  0.00  0.00     0.100 C 
HETATM   26  C   UNK N   1       6.489   3.004  -0.044  0.00  0.00     0.261 C 
HETATM   27  F   UNK N   1       7.362   3.570  -0.953  0.00  0.00    -0.204 F 
HETATM   28  F   UNK N   1       7.178   2.587   1.080  0.00  0.00    -0.204 F 
HETATM   29  O   UNK N   1       3.779  -0.077  -0.850  0.00  0.00    -0.271 OA
ENDBRANCH   1  21
TORSDOF 2
