MODEL 1
REMARK VINA RESULT:      -6.7      0.000      0.000
REMARK  1 active torsions:
REMARK  status: ('A' for Active; 'I' for Inactive)
REMARK       I    between atoms: N_1  and  C_2 
REMARK    1  A    between atoms: C_6  and  C_7 
ROOT
HETATM    1  N   UNK N   1      36.134  15.220  12.291  0.00  0.00    -0.234 N 
HETATM    2  C   UNK N   1      35.639  15.744  11.079  0.00  0.00     0.679 A 
HETATM    3  N   UNK N   1      35.464  15.007   9.958  0.00  0.00    -0.184 N 
HETATM    4  C   UNK N   1      34.986  15.867   9.055  0.00  0.00     0.096 A 
HETATM    5  C   UNK N   1      34.631  15.648   7.738  0.00  0.00     0.048 A 
HETATM    6  C   UNK N   1      34.148  16.747   7.001  0.00  0.00    -0.008 A 
HETATM    7  N   UNK N   1      35.285  17.047  10.911  0.00  0.00    -0.174 N 
ATOM      8  HN  UNK N   1      35.320  17.805  11.593  1.00  0.00     0.186 HD
HETATM    9  C   UNK N   1      35.734  13.590   9.769  0.00  0.00     0.175 C 
HETATM   10  C   UNK N   1      34.879  17.092   9.628  0.00  0.00     0.148 A 
HETATM   11  N   UNK N   1      34.419  18.174   8.951  0.00  0.00    -0.349 N 
ATOM     12  HN  UNK N   1      34.349  19.084   9.408  1.00  0.00     0.167 HD
HETATM   13  C   UNK N   1      34.050  18.019   7.638  0.00  0.00     0.102 A 
HETATM   14  H   UNK N   1      36.374  14.268  12.354  0.00  0.00     0.174 HD
HETATM   15  H   UNK N   1      36.240  15.807  13.074  0.00  0.00     0.174 HD
ENDROOT
BRANCH   6  16
HETATM   16  C   UNK N   1      33.757  16.553   5.587  0.00  0.00    -0.025 A 
HETATM   17  C   UNK N   1      33.009  17.546   4.929  0.00  0.00     0.012 A 
HETATM   18  C   UNK N   1      32.629  17.385   3.596  0.00  0.00     0.001 A 
HETATM   19  C   UNK N   1      32.993  16.229   2.904  0.00  0.00     0.000 A 
HETATM   20  C   UNK N   1      33.737  15.233   3.547  0.00  0.00     0.001 A 
HETATM   21  C   UNK N   1      34.118  15.394   4.884  0.00  0.00     0.012 A 
ENDBRANCH   6  16
TORSDOF 1
ENDMDL
MODEL 2
REMARK VINA RESULT:      -6.6      5.718     10.062
REMARK  1 active torsions:
REMARK  status: ('A' for Active; 'I' for Inactive)
REMARK       I    between atoms: N_1  and  C_2 
REMARK    1  A    between atoms: C_6  and  C_7 
ROOT
HETATM    1  N   UNK N   1      35.780  13.389   9.826  0.00  0.00    -0.234 N 
HETATM    2  C   UNK N   1      35.904  13.461  11.228  0.00  0.00     0.679 A 
HETATM    3  N   UNK N   1      35.413  12.527  12.075  0.00  0.00    -0.184 N 
HETATM    4  C   UNK N   1      35.738  12.966  13.294  0.00  0.00     0.096 A 
HETATM    5  C   UNK N   1      35.482  12.398  14.527  0.00  0.00     0.048 A 
HETATM    6  C   UNK N   1      35.944  13.082  15.669  0.00  0.00    -0.008 A 
HETATM    7  N   UNK N   1      36.530  14.480  11.878  0.00  0.00    -0.174 N 
ATOM      8  HN  UNK N   1      36.983  15.302  11.477  1.00  0.00     0.186 HD
HETATM    9  C   UNK N   1      34.690  11.309  11.740  0.00  0.00     0.175 C 
HETATM   10  C   UNK N   1      36.409  14.139  13.175  0.00  0.00     0.148 A 
HETATM   11  N   UNK N   1      36.869  14.826  14.250  0.00  0.00    -0.349 N 
ATOM     12  HN  UNK N   1      37.371  15.707  14.130  1.00  0.00     0.167 HD
HETATM   13  C   UNK N   1      36.645  14.312  15.503  0.00  0.00     0.102 A 
HETATM   14  H   UNK N   1      35.316  12.627   9.411  0.00  0.00     0.174 HD
HETATM   15  H   UNK N   1      36.159  14.101   9.261  0.00  0.00     0.174 HD
ENDROOT
BRANCH   6  16
HETATM   16  C   UNK N   1      35.689  12.506  17.008  0.00  0.00    -0.025 A 
HETATM   17  C   UNK N   1      35.383  13.357  18.085  0.00  0.00     0.012 A 
HETATM   18  C   UNK N   1      35.140  12.837  19.357  0.00  0.00     0.001 A 
HETATM   19  C   UNK N   1      35.199  11.459  19.567  0.00  0.00     0.000 A 
HETATM   20  C   UNK N   1      35.502  10.600  18.505  0.00  0.00     0.001 A 
HETATM   21  C   UNK N   1      35.747  11.121  17.229  0.00  0.00     0.012 A 
ENDBRANCH   6  16
TORSDOF 1
ENDMDL
MODEL 3
REMARK VINA RESULT:      -6.4      5.572     10.069
REMARK  1 active torsions:
REMARK  status: ('A' for Active; 'I' for Inactive)
REMARK       I    between atoms: N_1  and  C_2 
REMARK    1  A    between atoms: C_6  and  C_7 
ROOT
HETATM    1  N   UNK N   1      35.203  14.059   9.743  0.00  0.00    -0.234 N 
HETATM    2  C   UNK N   1      35.041  13.462  11.009  0.00  0.00     0.679 A 
HETATM    3  N   UNK N   1      35.438  14.037  12.168  0.00  0.00    -0.184 N 
HETATM    4  C   UNK N   1      35.106  13.157  13.117  0.00  0.00     0.096 A 
HETATM    5  C   UNK N   1      35.283  13.236  14.485  0.00  0.00     0.048 A 
HETATM    6  C   UNK N   1      34.834  12.152  15.265  0.00  0.00    -0.008 A 
HETATM    7  N   UNK N   1      34.466  12.243  11.199  0.00  0.00    -0.174 N 
ATOM      8  HN  UNK N   1      34.084  11.607  10.498  1.00  0.00     0.186 HD
HETATM    9  C   UNK N   1      36.086  15.327  12.349  0.00  0.00     0.175 C 
HETATM   10  C   UNK N   1      34.522  12.081  12.535  0.00  0.00     0.148 A 
HETATM   11  N   UNK N   1      34.077  11.018  13.251  0.00  0.00    -0.349 N 
ATOM     12  HN  UNK N   1      33.641  10.221  12.786  1.00  0.00     0.167 HD
HETATM   13  C   UNK N   1      34.225  11.038  14.615  0.00  0.00     0.102 A 
HETATM   14  H   UNK N   1      35.627  14.944   9.666  0.00  0.00     0.174 HD
HETATM   15  H   UNK N   1      34.893  13.591   8.934  0.00  0.00     0.174 HD
ENDROOT
BRANCH   6  16
HETATM   16  C   UNK N   1      35.006  12.199  16.734  0.00  0.00    -0.025 A 
HETATM   17  C   UNK N   1      34.972  13.436  17.400  0.00  0.00     0.012 A 
HETATM   18  C   UNK N   1      35.132  13.505  18.784  0.00  0.00     0.001 A 
HETATM   19  C   UNK N   1      35.327  12.335  19.520  0.00  0.00     0.000 A 
HETATM   20  C   UNK N   1      35.362  11.097  18.870  0.00  0.00     0.001 A 
HETATM   21  C   UNK N   1      35.202  11.027  17.481  0.00  0.00     0.012 A 
ENDBRANCH   6  16
TORSDOF 1
ENDMDL
MODEL 4
REMARK VINA RESULT:      -6.0     10.858     13.244
REMARK  1 active torsions:
REMARK  status: ('A' for Active; 'I' for Inactive)
REMARK       I    between atoms: N_1  and  C_2 
REMARK    1  A    between atoms: C_6  and  C_7 
ROOT
HETATM    1  N   UNK N   1      18.627  18.687   2.312  0.00  0.00    -0.234 N 
HETATM    2  C   UNK N   1      19.963  19.030   2.604  0.00  0.00     0.679 A 
HETATM    3  N   UNK N   1      20.754  18.324   3.445  0.00  0.00    -0.184 N 
HETATM    4  C   UNK N   1      21.921  18.974   3.442  0.00  0.00     0.096 A 
HETATM    5  C   UNK N   1      23.085  18.687   4.127  0.00  0.00     0.048 A 
HETATM    6  C   UNK N   1      24.183  19.550   3.940  0.00  0.00    -0.008 A 
HETATM    7  N   UNK N   1      20.597  20.108   2.069  0.00  0.00    -0.174 N 
ATOM      8  HN  UNK N   1      20.229  20.798   1.412  1.00  0.00     0.186 HD
HETATM    9  C   UNK N   1      20.415  17.122   4.191  0.00  0.00     0.175 C 
HETATM   10  C   UNK N   1      21.826  20.045   2.615  0.00  0.00     0.148 A 
HETATM   11  N   UNK N   1      22.860  20.899   2.409  0.00  0.00    -0.349 N 
ATOM     12  HN  UNK N   1      22.760  21.697   1.781  1.00  0.00     0.167 HD
HETATM   13  C   UNK N   1      24.044  20.665   3.063  0.00  0.00     0.102 A 
HETATM   14  H   UNK N   1      18.220  17.894   2.730  0.00  0.00     0.174 HD
HETATM   15  H   UNK N   1      18.101  19.240   1.691  0.00  0.00     0.174 HD
ENDROOT
BRANCH   6  16
HETATM   16  C   UNK N   1      25.448  19.276   4.657  0.00  0.00    -0.025 A 
HETATM   17  C   UNK N   1      25.867  17.947   4.847  0.00  0.00     0.012 A 
HETATM   18  C   UNK N   1      27.056  17.664   5.519  0.00  0.00     0.001 A 
HETATM   19  C   UNK N   1      27.842  18.708   6.011  0.00  0.00     0.000 A 
HETATM   20  C   UNK N   1      27.437  20.035   5.829  0.00  0.00     0.001 A 
HETATM   21  C   UNK N   1      26.244  20.319   5.154  0.00  0.00     0.012 A 
ENDBRANCH   6  16
TORSDOF 1
ENDMDL
MODEL 5
REMARK VINA RESULT:      -6.0      7.064     10.119
REMARK  1 active torsions:
REMARK  status: ('A' for Active; 'I' for Inactive)
REMARK       I    between atoms: N_1  and  C_2 
REMARK    1  A    between atoms: C_6  and  C_7 
ROOT
HETATM    1  N   UNK N   1      38.099  10.715   9.820  0.00  0.00    -0.234 N 
HETATM    2  C   UNK N   1      37.677  11.330  11.015  0.00  0.00     0.679 A 
HETATM    3  N   UNK N   1      37.406  10.651  12.155  0.00  0.00    -0.184 N 
HETATM    4  C   UNK N   1      37.045  11.590  13.034  0.00  0.00     0.096 A 
HETATM    5  C   UNK N   1      36.664  11.453  14.354  0.00  0.00     0.048 A 
HETATM    6  C   UNK N   1      36.329  12.624  15.062  0.00  0.00    -0.008 A 
HETATM    7  N   UNK N   1      37.497  12.672  11.149  0.00  0.00    -0.174 N 
ATOM      8  HN  UNK N   1      37.630  13.402  10.448  1.00  0.00     0.186 HD
HETATM    9  C   UNK N   1      37.489   9.216  12.381  0.00  0.00     0.175 C 
HETATM   10  C   UNK N   1      37.099  12.803  12.429  0.00  0.00     0.148 A 
HETATM   11  N   UNK N   1      36.785  13.953  13.077  0.00  0.00    -0.349 N 
ATOM     12  HN  UNK N   1      36.835  14.852  12.596  1.00  0.00     0.167 HD
HETATM   13  C   UNK N   1      36.398  13.881  14.392  0.00  0.00     0.102 A 
HETATM   14  H   UNK N   1      38.213   9.738   9.781  0.00  0.00     0.174 HD
HETATM   15  H   UNK N   1      38.281  11.263   9.022  0.00  0.00     0.174 HD
ENDROOT
BRANCH   6  16
HETATM   16  C   UNK N   1      35.915  12.520  16.479  0.00  0.00    -0.025 A 
HETATM   17  C   UNK N   1      35.942  11.269  17.122  0.00  0.00     0.012 A 
HETATM   18  C   UNK N   1      35.557  11.146  18.456  0.00  0.00     0.001 A 
HETATM   19  C   UNK N   1      35.139  12.273  19.166  0.00  0.00     0.000 A 
HETATM   20  C   UNK N   1      35.108  13.523  18.539  0.00  0.00     0.001 A 
HETATM   21  C   UNK N   1      35.494  13.648  17.200  0.00  0.00     0.012 A 
ENDBRANCH   6  16
TORSDOF 1
ENDMDL
MODEL 6
REMARK VINA RESULT:      -6.0      2.388      2.607
REMARK  1 active torsions:
REMARK  status: ('A' for Active; 'I' for Inactive)
REMARK       I    between atoms: N_1  and  C_2 
REMARK    1  A    between atoms: C_6  and  C_7 
ROOT
HETATM    1  N   UNK N   1      37.154  13.642  12.463  0.00  0.00    -0.234 N 
HETATM    2  C   UNK N   1      36.302  14.371  11.608  0.00  0.00     0.679 A 
HETATM    3  N   UNK N   1      35.281  13.816  10.915  0.00  0.00    -0.184 N 
HETATM    4  C   UNK N   1      34.735  14.832  10.240  0.00  0.00     0.096 A 
HETATM    5  C   UNK N   1      33.659  14.831   9.374  0.00  0.00     0.048 A 
HETATM    6  C   UNK N   1      33.289  16.059   8.792  0.00  0.00    -0.008 A 
HETATM    7  N   UNK N   1      36.418  15.709  11.391  0.00  0.00    -0.174 N 
ATOM      8  HN  UNK N   1      37.098  16.358  11.788  1.00  0.00     0.186 HD
HETATM    9  C   UNK N   1      34.863  12.423  10.901  0.00  0.00     0.175 C 
HETATM   10  C   UNK N   1      35.419  15.968  10.527  0.00  0.00     0.148 A 
HETATM   11  N   UNK N   1      35.093  17.169   9.986  0.00  0.00    -0.349 N 
ATOM     12  HN  UNK N   1      35.625  18.007  10.220  1.00  0.00     0.167 HD
HETATM   13  C   UNK N   1      34.032  17.231   9.118  0.00  0.00     0.102 A 
HETATM   14  H   UNK N   1      37.023  12.674  12.582  0.00  0.00     0.174 HD
HETATM   15  H   UNK N   1      37.882  14.102  12.942  0.00  0.00     0.174 HD
ENDROOT
BRANCH   6  16
HETATM   16  C   UNK N   1      32.141  16.099   7.858  0.00  0.00    -0.025 A 
HETATM   17  C   UNK N   1      31.255  17.191   7.891  0.00  0.00     0.012 A 
HETATM   18  C   UNK N   1      30.166  17.251   7.022  0.00  0.00     0.001 A 
HETATM   19  C   UNK N   1      29.950  16.219   6.107  0.00  0.00     0.000 A 
HETATM   20  C   UNK N   1      30.823  15.127   6.063  0.00  0.00     0.001 A 
HETATM   21  C   UNK N   1      31.916  15.066   6.936  0.00  0.00     0.012 A 
ENDBRANCH   6  16
TORSDOF 1
ENDMDL
MODEL 7
REMARK VINA RESULT:      -5.9      5.718      9.173
REMARK  1 active torsions:
REMARK  status: ('A' for Active; 'I' for Inactive)
REMARK       I    between atoms: N_1  and  C_2 
REMARK    1  A    between atoms: C_6  and  C_7 
ROOT
HETATM    1  N   UNK N   1      38.256  13.046   8.565  0.00  0.00    -0.234 N 
HETATM    2  C   UNK N   1      37.783  13.197   9.885  0.00  0.00     0.679 A 
HETATM    3  N   UNK N   1      37.717  12.184  10.780  0.00  0.00    -0.184 N 
HETATM    4  C   UNK N   1      37.222  12.739  11.889  0.00  0.00     0.096 A 
HETATM    5  C   UNK N   1      36.948  12.159  13.112  0.00  0.00     0.048 A 
HETATM    6  C   UNK N   1      36.424  12.987  14.124  0.00  0.00    -0.008 A 
HETATM    7  N   UNK N   1      37.344  14.378  10.397  0.00  0.00    -0.174 N 
ATOM      8  HN  UNK N   1      37.289  15.287   9.936  1.00  0.00     0.186 HD
HETATM    9  C   UNK N   1      38.099  10.793  10.585  0.00  0.00     0.175 C 
HETATM   10  C   UNK N   1      36.998  14.057  11.659  0.00  0.00     0.148 A 
HETATM   11  N   UNK N   1      36.494  14.886  12.607  0.00  0.00    -0.349 N 
ATOM     12  HN  UNK N   1      36.336  15.874  12.405  1.00  0.00     0.167 HD
HETATM   13  C   UNK N   1      36.202  14.367  13.843  0.00  0.00     0.102 A 
HETATM   14  H   UNK N   1      38.562  12.166   8.249  0.00  0.00     0.174 HD
HETATM   15  H   UNK N   1      38.280  13.822   7.959  0.00  0.00     0.174 HD
ENDROOT
BRANCH   6  16
HETATM   16  C   UNK N   1      36.117  12.403  15.449  0.00  0.00    -0.025 A 
HETATM   17  C   UNK N   1      35.427  13.170  16.405  0.00  0.00     0.012 A 
HETATM   18  C   UNK N   1      35.127  12.641  17.660  0.00  0.00     0.001 A 
HETATM   19  C   UNK N   1      35.513  11.337  17.976  0.00  0.00     0.000 A 
HETATM   20  C   UNK N   1      36.200  10.563  17.034  0.00  0.00     0.001 A 
HETATM   21  C   UNK N   1      36.502  11.093  15.774  0.00  0.00     0.012 A 
ENDBRANCH   6  16
TORSDOF 1
ENDMDL
MODEL 8
REMARK VINA RESULT:      -5.8     12.768     15.013
REMARK  1 active torsions:
REMARK  status: ('A' for Active; 'I' for Inactive)
REMARK       I    between atoms: N_1  and  C_2 
REMARK    1  A    between atoms: C_6  and  C_7 
ROOT
HETATM    1  N   UNK N   1      33.050  19.386  -4.308  0.00  0.00    -0.234 N 
HETATM    2  C   UNK N   1      32.085  20.388  -4.084  0.00  0.00     0.679 A 
HETATM    3  N   UNK N   1      31.164  20.764  -5.002  0.00  0.00    -0.184 N 
HETATM    4  C   UNK N   1      30.455  21.724  -4.402  0.00  0.00     0.096 A 
HETATM    5  C   UNK N   1      29.389  22.457  -4.885  0.00  0.00     0.048 A 
HETATM    6  C   UNK N   1      28.818  23.420  -4.030  0.00  0.00    -0.008 A 
HETATM    7  N   UNK N   1      31.978  21.084  -2.919  0.00  0.00    -0.174 N 
ATOM      8  HN  UNK N   1      32.544  20.996  -2.075  1.00  0.00     0.186 HD
HETATM    9  C   UNK N   1      30.981  20.242  -6.348  0.00  0.00     0.175 C 
HETATM   10  C   UNK N   1      30.944  21.916  -3.151  0.00  0.00     0.148 A 
HETATM   11  N   UNK N   1      30.422  22.833  -2.299  0.00  0.00    -0.349 N 
ATOM     12  HN  UNK N   1      30.810  22.955  -1.364  1.00  0.00     0.167 HD
HETATM   13  C   UNK N   1      29.360  23.592  -2.722  0.00  0.00     0.102 A 
HETATM   14  H   UNK N   1      33.080  18.915  -5.171  0.00  0.00     0.174 HD
HETATM   15  H   UNK N   1      33.695  19.156  -3.600  0.00  0.00     0.174 HD
ENDROOT
BRANCH   6  16
HETATM   16  C   UNK N   1      27.674  24.226  -4.511  0.00  0.00    -0.025 A 
HETATM   17  C   UNK N   1      26.964  23.816  -5.653  0.00  0.00     0.012 A 
HETATM   18  C   UNK N   1      25.882  24.559  -6.125  0.00  0.00     0.001 A 
HETATM   19  C   UNK N   1      25.496  25.724  -5.459  0.00  0.00     0.000 A 
HETATM   20  C   UNK N   1      26.193  26.144  -4.322  0.00  0.00     0.001 A 
HETATM   21  C   UNK N   1      27.279  25.398  -3.848  0.00  0.00     0.012 A 
ENDBRANCH   6  16
TORSDOF 1
ENDMDL
MODEL 9
REMARK VINA RESULT:      -5.5      2.585      6.780
REMARK  1 active torsions:
REMARK  status: ('A' for Active; 'I' for Inactive)
REMARK       I    between atoms: N_1  and  C_2 
REMARK    1  A    between atoms: C_6  and  C_7 
ROOT
HETATM    1  N   UNK N   1      32.307  16.850   6.638  0.00  0.00    -0.234 N 
HETATM    2  C   UNK N   1      33.090  16.555   7.773  0.00  0.00     0.679 A 
HETATM    3  N   UNK N   1      33.309  15.299   8.228  0.00  0.00    -0.184 N 
HETATM    4  C   UNK N   1      34.087  15.457   9.303  0.00  0.00     0.096 A 
HETATM    5  C   UNK N   1      34.611  14.502  10.152  0.00  0.00     0.048 A 
HETATM    6  C   UNK N   1      35.410  14.949  11.223  0.00  0.00    -0.008 A 
HETATM    7  N   UNK N   1      33.707  17.502   8.529  0.00  0.00    -0.174 N 
ATOM      8  HN  UNK N   1      33.702  18.515   8.403  1.00  0.00     0.186 HD
HETATM    9  C   UNK N   1      32.811  14.049   7.676  0.00  0.00     0.175 C 
HETATM   10  C   UNK N   1      34.325  16.780   9.483  0.00  0.00     0.148 A 
HETATM   11  N   UNK N   1      35.089  17.249  10.501  0.00  0.00    -0.349 N 
ATOM     12  HN  UNK N   1      35.252  18.251  10.612  1.00  0.00     0.167 HD
HETATM   13  C   UNK N   1      35.638  16.348  11.379  0.00  0.00     0.102 A 
HETATM   14  H   UNK N   1      31.884  16.122   6.129  0.00  0.00     0.174 HD
HETATM   15  H   UNK N   1      32.184  17.785   6.355  0.00  0.00     0.174 HD
ENDROOT
BRANCH   6  16
HETATM   16  C   UNK N   1      35.990  13.957  12.155  0.00  0.00    -0.025 A 
HETATM   17  C   UNK N   1      36.476  12.735  11.658  0.00  0.00     0.012 A 
HETATM   18  C   UNK N   1      37.027  11.785  12.517  0.00  0.00     0.001 A 
HETATM   19  C   UNK N   1      37.100  12.045  13.887  0.00  0.00     0.000 A 
HETATM   20  C   UNK N   1      36.621  13.257  14.395  0.00  0.00     0.001 A 
HETATM   21  C   UNK N   1      36.068  14.211  13.533  0.00  0.00     0.012 A 
ENDBRANCH   6  16
TORSDOF 1
ENDMDL
