MODEL 1
REMARK VINA RESULT:      -6.4      0.000      0.000
REMARK  5 active torsions:
REMARK  status: ('A' for Active; 'I' for Inactive)
REMARK    1  A    between atoms: O_1  and  C_2 
REMARK    2  A    between atoms: C_5  and  C_6 
REMARK    3  A    between atoms: C_7  and  C_8 
REMARK    4  A    between atoms: C_10  and  O_11 
REMARK    5  A    between atoms: C_13  and  O_14 
ROOT
HETATM    1  C   UNK N   1      35.698  13.741  13.236  0.00  0.00    -0.031 A 
HETATM    2  C   UNK N   1      36.274  14.902  12.714  0.00  0.00     0.048 A 
HETATM    3  C   UNK N   1      36.107  15.219  11.365  0.00  0.00     0.069 A 
HETATM    4  C   UNK N   1      35.364  14.375  10.533  0.00  0.00     0.073 A 
HETATM    5  C   UNK N   1      34.787  13.212  11.053  0.00  0.00     0.069 A 
HETATM    6  C   UNK N   1      34.953  12.895  12.401  0.00  0.00     0.048 A 
ENDROOT
BRANCH   1   7
HETATM    7  C   UNK N   1      35.886  13.428  14.655  0.00  0.00     0.012 C 
HETATM    8  C   UNK N   1      34.920  12.863  15.383  0.00  0.00     0.012 C 
BRANCH   8   9
HETATM    9  C   UNK N   1      35.107  12.551  16.802  0.00  0.00    -0.036 A 
HETATM   10  C   UNK N   1      35.015  13.550  17.783  0.00  0.00     0.014 A 
HETATM   11  C   UNK N   1      35.198  13.229  19.129  0.00  0.00     0.037 A 
HETATM   12  C   UNK N   1      35.472  11.909  19.498  0.00  0.00     0.065 A 
HETATM   13  C   UNK N   1      35.564  10.912  18.524  0.00  0.00     0.037 A 
HETATM   14  C   UNK N   1      35.381  11.233  17.176  0.00  0.00     0.014 A 
BRANCH  12  15
HETATM   15  O   UNK N   1      35.647  11.601  20.793  0.00  0.00    -0.361 OA
HETATM   16  H   UNK N   1      35.869  12.271  21.408  0.00  0.00     0.217 HD
ENDBRANCH  12  15
ENDBRANCH   8   9
ENDBRANCH   1   7
BRANCH   3  17
HETATM   17  O   UNK N   1      36.661  16.336  10.866  0.00  0.00    -0.361 OA
HETATM   18  H   UNK N   1      37.385  16.736  11.305  0.00  0.00     0.217 HD
ENDBRANCH   3  17
BRANCH   5  19
HETATM   19  O   UNK N   1      34.073  12.399  10.258  0.00  0.00    -0.361 OA
HETATM   20  H   UNK N   1      34.481  11.654   9.864  0.00  0.00     0.217 HD
ENDBRANCH   5  19
TORSDOF 5
ENDMDL
MODEL 2
REMARK VINA RESULT:      -6.3      0.206      2.019
REMARK  5 active torsions:
REMARK  status: ('A' for Active; 'I' for Inactive)
REMARK    1  A    between atoms: O_1  and  C_2 
REMARK    2  A    between atoms: C_5  and  C_6 
REMARK    3  A    between atoms: C_7  and  C_8 
REMARK    4  A    between atoms: C_10  and  O_11 
REMARK    5  A    between atoms: C_13  and  O_14 
ROOT
HETATM    1  C   UNK N   1      35.759  13.471  13.200  0.00  0.00    -0.031 A 
HETATM    2  C   UNK N   1      34.974  12.688  12.349  0.00  0.00     0.048 A 
HETATM    3  C   UNK N   1      34.773  13.081  11.025  0.00  0.00     0.069 A 
HETATM    4  C   UNK N   1      35.357  14.258  10.546  0.00  0.00     0.073 A 
HETATM    5  C   UNK N   1      36.144  15.043  11.395  0.00  0.00     0.069 A 
HETATM    6  C   UNK N   1      36.345  14.651  12.718  0.00  0.00     0.048 A 
ENDROOT
BRANCH   1   7
HETATM    7  C   UNK N   1      35.956  13.038  14.586  0.00  0.00     0.012 C 
HETATM    8  C   UNK N   1      34.953  13.032  15.467  0.00  0.00     0.012 C 
BRANCH   8   9
HETATM    9  C   UNK N   1      35.149  12.600  16.853  0.00  0.00    -0.036 A 
HETATM   10  C   UNK N   1      35.033  13.506  17.919  0.00  0.00     0.014 A 
HETATM   11  C   UNK N   1      35.224  13.071  19.231  0.00  0.00     0.037 A 
HETATM   12  C   UNK N   1      35.531  11.732  19.483  0.00  0.00     0.065 A 
HETATM   13  C   UNK N   1      35.647  10.827  18.424  0.00  0.00     0.037 A 
HETATM   14  C   UNK N   1      35.456  11.261  17.110  0.00  0.00     0.014 A 
BRANCH  12  15
HETATM   15  O   UNK N   1      35.714  11.314  20.745  0.00  0.00    -0.361 OA
HETATM   16  H   UNK N   1      36.575  11.107  21.049  0.00  0.00     0.217 HD
ENDBRANCH  12  15
ENDBRANCH   8   9
ENDBRANCH   1   7
BRANCH   3  17
HETATM   17  O   UNK N   1      34.017  12.327  10.210  0.00  0.00    -0.361 OA
HETATM   18  H   UNK N   1      34.411  11.644   9.704  0.00  0.00     0.217 HD
ENDBRANCH   3  17
BRANCH   5  19
HETATM   19  O   UNK N   1      36.707  16.173  10.940  0.00  0.00    -0.361 OA
HETATM   20  H   UNK N   1      36.188  16.946  10.836  0.00  0.00     0.217 HD
ENDBRANCH   5  19
TORSDOF 5
ENDMDL
MODEL 3
REMARK VINA RESULT:      -6.1     20.257     23.642
REMARK  5 active torsions:
REMARK  status: ('A' for Active; 'I' for Inactive)
REMARK    1  A    between atoms: O_1  and  C_2 
REMARK    2  A    between atoms: C_5  and  C_6 
REMARK    3  A    between atoms: C_7  and  C_8 
REMARK    4  A    between atoms: C_10  and  O_11 
REMARK    5  A    between atoms: C_13  and  O_14 
ROOT
HETATM    1  C   UNK N   1      30.087  23.415  -3.786  0.00  0.00    -0.031 A 
HETATM    2  C   UNK N   1      29.732  22.603  -4.866  0.00  0.00     0.048 A 
HETATM    3  C   UNK N   1      30.295  21.332  -5.000  0.00  0.00     0.069 A 
HETATM    4  C   UNK N   1      31.215  20.870  -4.053  0.00  0.00     0.073 A 
HETATM    5  C   UNK N   1      31.572  21.681  -2.971  0.00  0.00     0.069 A 
HETATM    6  C   UNK N   1      31.009  22.950  -2.837  0.00  0.00     0.048 A 
ENDROOT
BRANCH   1   7
HETATM    7  C   UNK N   1      29.483  24.745  -3.666  0.00  0.00     0.012 C 
HETATM    8  C   UNK N   1      28.231  24.985  -4.066  0.00  0.00     0.012 C 
BRANCH   8   9
HETATM    9  C   UNK N   1      27.627  26.313  -3.947  0.00  0.00    -0.036 A 
HETATM   10  C   UNK N   1      26.252  26.467  -3.709  0.00  0.00     0.014 A 
HETATM   11  C   UNK N   1      25.699  27.743  -3.599  0.00  0.00     0.037 A 
HETATM   12  C   UNK N   1      26.516  28.869  -3.727  0.00  0.00     0.065 A 
HETATM   13  C   UNK N   1      27.885  28.720  -3.964  0.00  0.00     0.037 A 
HETATM   14  C   UNK N   1      28.440  27.443  -4.074  0.00  0.00     0.014 A 
BRANCH  12  15
HETATM   15  O   UNK N   1      25.983  30.096  -3.621  0.00  0.00    -0.361 OA
HETATM   16  H   UNK N   1      25.920  30.509  -2.783  0.00  0.00     0.217 HD
ENDBRANCH  12  15
ENDBRANCH   8   9
ENDBRANCH   1   7
BRANCH   3  17
HETATM   17  O   UNK N   1      29.953  20.554  -6.039  0.00  0.00    -0.361 OA
HETATM   18  H   UNK N   1      30.253  19.667  -6.079  0.00  0.00     0.217 HD
ENDBRANCH   3  17
BRANCH   5  19
HETATM   19  O   UNK N   1      32.454  21.241  -2.060  0.00  0.00    -0.361 OA
HETATM   20  H   UNK N   1      32.189  21.129  -1.168  0.00  0.00     0.217 HD
ENDBRANCH   5  19
TORSDOF 5
ENDMDL
MODEL 4
REMARK VINA RESULT:      -6.0     10.355     13.909
REMARK  5 active torsions:
REMARK  status: ('A' for Active; 'I' for Inactive)
REMARK    1  A    between atoms: O_1  and  C_2 
REMARK    2  A    between atoms: C_5  and  C_6 
REMARK    3  A    between atoms: C_7  and  C_8 
REMARK    4  A    between atoms: C_10  and  O_11 
REMARK    5  A    between atoms: C_13  and  O_14 
ROOT
HETATM    1  C   UNK N   1      27.152  19.052   4.425  0.00  0.00    -0.031 A 
HETATM    2  C   UNK N   1      26.774  19.959   3.432  0.00  0.00     0.048 A 
HETATM    3  C   UNK N   1      25.424  20.135   3.123  0.00  0.00     0.069 A 
HETATM    4  C   UNK N   1      24.448  19.403   3.806  0.00  0.00     0.073 A 
HETATM    5  C   UNK N   1      24.823  18.494   4.800  0.00  0.00     0.069 A 
HETATM    6  C   UNK N   1      26.172  18.319   5.109  0.00  0.00     0.048 A 
ENDROOT
BRANCH   1   7
HETATM    7  C   UNK N   1      28.575  18.884   4.732  0.00  0.00     0.012 C 
HETATM    8  C   UNK N   1      29.121  17.676   4.890  0.00  0.00     0.012 C 
BRANCH   8   9
HETATM    9  C   UNK N   1      30.543  17.508   5.197  0.00  0.00    -0.036 A 
HETATM   10  C   UNK N   1      31.526  17.700   4.213  0.00  0.00     0.014 A 
HETATM   11  C   UNK N   1      32.875  17.534   4.529  0.00  0.00     0.037 A 
HETATM   12  C   UNK N   1      33.246  17.175   5.828  0.00  0.00     0.065 A 
HETATM   13  C   UNK N   1      32.270  16.983   6.810  0.00  0.00     0.037 A 
HETATM   14  C   UNK N   1      30.919  17.149   6.494  0.00  0.00     0.014 A 
BRANCH  12  15
HETATM   15  O   UNK N   1      34.544  17.016   6.131  0.00  0.00    -0.361 OA
HETATM   16  H   UNK N   1      34.798  16.410   6.799  0.00  0.00     0.217 HD
ENDBRANCH  12  15
ENDBRANCH   8   9
ENDBRANCH   1   7
BRANCH   3  17
HETATM   17  O   UNK N   1      25.063  21.008   2.168  0.00  0.00    -0.361 OA
HETATM   18  H   UNK N   1      24.592  21.784   2.397  0.00  0.00     0.217 HD
ENDBRANCH   3  17
BRANCH   5  19
HETATM   19  O   UNK N   1      23.890  17.789   5.459  0.00  0.00    -0.361 OA
HETATM   20  H   UNK N   1      24.147  17.147   6.090  0.00  0.00     0.217 HD
ENDBRANCH   5  19
TORSDOF 5
ENDMDL
MODEL 5
REMARK VINA RESULT:      -6.0     20.203     23.607
REMARK  5 active torsions:
REMARK  status: ('A' for Active; 'I' for Inactive)
REMARK    1  A    between atoms: O_1  and  C_2 
REMARK    2  A    between atoms: C_5  and  C_6 
REMARK    3  A    between atoms: C_7  and  C_8 
REMARK    4  A    between atoms: C_10  and  O_11 
REMARK    5  A    between atoms: C_13  and  O_14 
ROOT
HETATM    1  C   UNK N   1      30.016  23.279  -3.689  0.00  0.00    -0.031 A 
HETATM    2  C   UNK N   1      30.970  22.867  -2.755  0.00  0.00     0.048 A 
HETATM    3  C   UNK N   1      31.642  21.655  -2.930  0.00  0.00     0.069 A 
HETATM    4  C   UNK N   1      31.361  20.853  -4.041  0.00  0.00     0.073 A 
HETATM    5  C   UNK N   1      30.407  21.264  -4.977  0.00  0.00     0.069 A 
HETATM    6  C   UNK N   1      29.736  22.473  -4.802  0.00  0.00     0.048 A 
ENDROOT
BRANCH   1   7
HETATM    7  C   UNK N   1      29.323  24.554  -3.483  0.00  0.00     0.012 C 
HETATM    8  C   UNK N   1      28.558  25.097  -4.434  0.00  0.00     0.012 C 
BRANCH   8   9
HETATM    9  C   UNK N   1      27.865  26.371  -4.229  0.00  0.00    -0.036 A 
HETATM   10  C   UNK N   1      28.430  27.582  -4.660  0.00  0.00     0.014 A 
HETATM   11  C   UNK N   1      27.752  28.784  -4.454  0.00  0.00     0.037 A 
HETATM   12  C   UNK N   1      26.508  28.780  -3.819  0.00  0.00     0.065 A 
HETATM   13  C   UNK N   1      25.942  27.577  -3.389  0.00  0.00     0.037 A 
HETATM   14  C   UNK N   1      26.620  26.373  -3.594  0.00  0.00     0.014 A 
BRANCH  12  15
HETATM   15  O   UNK N   1      25.856  29.937  -3.621  0.00  0.00    -0.361 OA
HETATM   16  H   UNK N   1      25.974  30.649  -4.218  0.00  0.00     0.217 HD
ENDBRANCH  12  15
ENDBRANCH   8   9
ENDBRANCH   1   7
BRANCH   3  17
HETATM   17  O   UNK N   1      32.558  21.261  -2.031  0.00  0.00    -0.361 OA
HETATM   18  H   UNK N   1      32.310  20.696  -1.327  0.00  0.00     0.217 HD
ENDBRANCH   3  17
BRANCH   5  19
HETATM   19  O   UNK N   1      30.135  20.497  -6.045  0.00  0.00    -0.361 OA
HETATM   20  H   UNK N   1      30.663  20.563  -6.816  0.00  0.00     0.217 HD
ENDBRANCH   5  19
TORSDOF 5
ENDMDL
MODEL 6
REMARK VINA RESULT:      -5.9      1.464      7.363
REMARK  5 active torsions:
REMARK  status: ('A' for Active; 'I' for Inactive)
REMARK    1  A    between atoms: O_1  and  C_2 
REMARK    2  A    between atoms: C_5  and  C_6 
REMARK    3  A    between atoms: C_7  and  C_8 
REMARK    4  A    between atoms: C_10  and  O_11 
REMARK    5  A    between atoms: C_13  and  O_14 
ROOT
HETATM    1  C   UNK N   1      35.438  12.411  17.205  0.00  0.00    -0.031 A 
HETATM    2  C   UNK N   1      35.082  13.277  18.242  0.00  0.00     0.048 A 
HETATM    3  C   UNK N   1      35.037  12.811  19.557  0.00  0.00     0.069 A 
HETATM    4  C   UNK N   1      35.349  11.477  19.839  0.00  0.00     0.073 A 
HETATM    5  C   UNK N   1      35.705  10.608  18.803  0.00  0.00     0.069 A 
HETATM    6  C   UNK N   1      35.750  11.073  17.489  0.00  0.00     0.048 A 
ENDROOT
BRANCH   1   7
HETATM    7  C   UNK N   1      35.477  12.922  15.832  0.00  0.00     0.012 C 
HETATM    8  C   UNK N   1      36.511  12.677  15.022  0.00  0.00     0.012 C 
BRANCH   8   9
HETATM    9  C   UNK N   1      36.551  13.188  13.650  0.00  0.00    -0.036 A 
HETATM   10  C   UNK N   1      37.072  12.413  12.602  0.00  0.00     0.014 A 
HETATM   11  C   UNK N   1      37.101  12.920  11.303  0.00  0.00     0.037 A 
HETATM   12  C   UNK N   1      36.609  14.203  11.046  0.00  0.00     0.065 A 
HETATM   13  C   UNK N   1      36.089  14.977  12.087  0.00  0.00     0.037 A 
HETATM   14  C   UNK N   1      36.061  14.470  13.388  0.00  0.00     0.014 A 
BRANCH  12  15
HETATM   15  O   UNK N   1      36.637  14.691   9.796  0.00  0.00    -0.361 OA
HETATM   16  H   UNK N   1      36.591  14.108   9.064  0.00  0.00     0.217 HD
ENDBRANCH  12  15
ENDBRANCH   8   9
ENDBRANCH   1   7
BRANCH   3  17
HETATM   17  O   UNK N   1      34.695  13.645  20.552  0.00  0.00    -0.361 OA
HETATM   18  H   UNK N   1      34.137  14.378  20.378  0.00  0.00     0.217 HD
ENDBRANCH   3  17
BRANCH   5  19
HETATM   19  O   UNK N   1      36.005   9.327  19.069  0.00  0.00    -0.361 OA
HETATM   20  H   UNK N   1      36.844   9.106  19.423  0.00  0.00     0.217 HD
ENDBRANCH   5  19
TORSDOF 5
ENDMDL
MODEL 7
REMARK VINA RESULT:      -5.9     13.852     16.920
REMARK  5 active torsions:
REMARK  status: ('A' for Active; 'I' for Inactive)
REMARK    1  A    between atoms: O_1  and  C_2 
REMARK    2  A    between atoms: C_5  and  C_6 
REMARK    3  A    between atoms: C_7  and  C_8 
REMARK    4  A    between atoms: C_10  and  O_11 
REMARK    5  A    between atoms: C_13  and  O_14 
ROOT
HETATM    1  C   UNK N   1      22.434  13.382   9.350  0.00  0.00    -0.031 A 
HETATM    2  C   UNK N   1      21.344  12.935  10.101  0.00  0.00     0.048 A 
HETATM    3  C   UNK N   1      21.554  12.186  11.260  0.00  0.00     0.069 A 
HETATM    4  C   UNK N   1      22.856  11.881  11.671  0.00  0.00     0.073 A 
HETATM    5  C   UNK N   1      23.948  12.327  10.921  0.00  0.00     0.069 A 
HETATM    6  C   UNK N   1      23.738  13.076   9.763  0.00  0.00     0.048 A 
ENDROOT
BRANCH   1   7
HETATM    7  C   UNK N   1      22.188  14.168   8.137  0.00  0.00     0.012 C 
HETATM    8  C   UNK N   1      21.082  14.901   7.989  0.00  0.00     0.012 C 
BRANCH   8   9
HETATM    9  C   UNK N   1      20.836  15.686   6.777  0.00  0.00    -0.036 A 
HETATM   10  C   UNK N   1      19.726  15.429   5.958  0.00  0.00     0.014 A 
HETATM   11  C   UNK N   1      19.512  16.190   4.809  0.00  0.00     0.037 A 
HETATM   12  C   UNK N   1      20.406  17.210   4.473  0.00  0.00     0.065 A 
HETATM   13  C   UNK N   1      21.513  17.469   5.286  0.00  0.00     0.037 A 
HETATM   14  C   UNK N   1      21.728  16.708   6.437  0.00  0.00     0.014 A 
BRANCH  12  15
HETATM   15  O   UNK N   1      20.199  17.942   3.367  0.00  0.00    -0.361 OA
HETATM   16  H   UNK N   1      20.726  18.698   3.201  0.00  0.00     0.217 HD
ENDBRANCH  12  15
ENDBRANCH   8   9
ENDBRANCH   1   7
BRANCH   3  17
HETATM   17  O   UNK N   1      20.505  11.758  11.981  0.00  0.00    -0.361 OA
HETATM   18  H   UNK N   1      20.510  11.846  12.913  0.00  0.00     0.217 HD
ENDBRANCH   3  17
BRANCH   5  19
HETATM   19  O   UNK N   1      25.200  12.037  11.311  0.00  0.00    -0.361 OA
HETATM   20  H   UNK N   1      25.613  11.251  11.013  0.00  0.00     0.217 HD
ENDBRANCH   5  19
TORSDOF 5
ENDMDL
MODEL 8
REMARK VINA RESULT:      -5.9     15.307     17.468
REMARK  5 active torsions:
REMARK  status: ('A' for Active; 'I' for Inactive)
REMARK    1  A    between atoms: O_1  and  C_2 
REMARK    2  A    between atoms: C_5  and  C_6 
REMARK    3  A    between atoms: C_7  and  C_8 
REMARK    4  A    between atoms: C_10  and  O_11 
REMARK    5  A    between atoms: C_13  and  O_14 
ROOT
HETATM    1  C   UNK N   1      21.209  17.900   4.295  0.00  0.00    -0.031 A 
HETATM    2  C   UNK N   1      19.945  17.806   3.708  0.00  0.00     0.048 A 
HETATM    3  C   UNK N   1      19.520  18.781   2.804  0.00  0.00     0.069 A 
HETATM    4  C   UNK N   1      20.358  19.854   2.485  0.00  0.00     0.073 A 
HETATM    5  C   UNK N   1      21.624  19.951   3.072  0.00  0.00     0.069 A 
HETATM    6  C   UNK N   1      22.049  18.977   3.975  0.00  0.00     0.048 A 
ENDROOT
BRANCH   1   7
HETATM    7  C   UNK N   1      21.634  16.864   5.241  0.00  0.00     0.012 C 
HETATM    8  C   UNK N   1      21.028  16.700   6.420  0.00  0.00     0.012 C 
BRANCH   8   9
HETATM    9  C   UNK N   1      21.452  15.665   7.366  0.00  0.00    -0.036 A 
HETATM   10  C   UNK N   1      22.551  14.836   7.091  0.00  0.00     0.014 A 
HETATM   11  C   UNK N   1      22.936  13.857   8.007  0.00  0.00     0.037 A 
HETATM   12  C   UNK N   1      22.225  13.703   9.200  0.00  0.00     0.065 A 
HETATM   13  C   UNK N   1      21.131  14.526   9.477  0.00  0.00     0.037 A 
HETATM   14  C   UNK N   1      20.744  15.507   8.561  0.00  0.00     0.014 A 
BRANCH  12  15
HETATM   15  O   UNK N   1      22.596  12.761  10.081  0.00  0.00    -0.361 OA
HETATM   16  H   UNK N   1      23.486  12.469  10.108  0.00  0.00     0.217 HD
ENDBRANCH  12  15
ENDBRANCH   8   9
ENDBRANCH   1   7
BRANCH   3  17
HETATM   17  O   UNK N   1      18.304  18.688   2.240  0.00  0.00    -0.361 OA
HETATM   18  H   UNK N   1      17.881  17.855   2.174  0.00  0.00     0.217 HD
ENDBRANCH   3  17
BRANCH   5  19
HETATM   19  O   UNK N   1      22.432  20.979   2.769  0.00  0.00    -0.361 OA
HETATM   20  H   UNK N   1      22.504  21.706   3.355  0.00  0.00     0.217 HD
ENDBRANCH   5  19
TORSDOF 5
ENDMDL
MODEL 9
REMARK VINA RESULT:      -5.7      3.067      8.406
REMARK  5 active torsions:
REMARK  status: ('A' for Active; 'I' for Inactive)
REMARK    1  A    between atoms: O_1  and  C_2 
REMARK    2  A    between atoms: C_5  and  C_6 
REMARK    3  A    between atoms: C_7  and  C_8 
REMARK    4  A    between atoms: C_10  and  O_11 
REMARK    5  A    between atoms: C_13  and  O_14 
ROOT
HETATM    1  C   UNK N   1      35.477  13.853  12.708  0.00  0.00    -0.031 A 
HETATM    2  C   UNK N   1      34.842  12.697  13.168  0.00  0.00     0.048 A 
HETATM    3  C   UNK N   1      35.117  12.211  14.448  0.00  0.00     0.069 A 
HETATM    4  C   UNK N   1      36.028  12.881  15.271  0.00  0.00     0.073 A 
HETATM    5  C   UNK N   1      36.664  14.038  14.813  0.00  0.00     0.069 A 
HETATM    6  C   UNK N   1      36.390  14.524  13.535  0.00  0.00     0.048 A 
ENDROOT
BRANCH   1   7
HETATM    7  C   UNK N   1      35.173  14.345  11.361  0.00  0.00     0.012 C 
HETATM    8  C   UNK N   1      35.286  15.637  11.044  0.00  0.00     0.012 C 
BRANCH   8   9
HETATM    9  C   UNK N   1      34.982  16.129   9.699  0.00  0.00    -0.036 A 
HETATM   10  C   UNK N   1      34.908  15.253   8.605  0.00  0.00     0.014 A 
HETATM   11  C   UNK N   1      34.617  15.745   7.332  0.00  0.00     0.037 A 
HETATM   12  C   UNK N   1      34.400  17.112   7.147  0.00  0.00     0.065 A 
HETATM   13  C   UNK N   1      34.473  17.988   8.234  0.00  0.00     0.037 A 
HETATM   14  C   UNK N   1      34.764  17.497   9.509  0.00  0.00     0.014 A 
BRANCH  12  15
HETATM   15  O   UNK N   1      34.120  17.585   5.923  0.00  0.00    -0.361 OA
HETATM   16  H   UNK N   1      33.236  17.785   5.689  0.00  0.00     0.217 HD
ENDBRANCH  12  15
ENDBRANCH   8   9
ENDBRANCH   1   7
BRANCH   3  17
HETATM   17  O   UNK N   1      34.505  11.099  14.888  0.00  0.00    -0.361 OA
HETATM   18  H   UNK N   1      33.784  11.165  15.482  0.00  0.00     0.217 HD
ENDBRANCH   3  17
BRANCH   5  19
HETATM   19  O   UNK N   1      37.539  14.684  15.600  0.00  0.00    -0.361 OA
HETATM   20  H   UNK N   1      38.352  14.988  15.246  0.00  0.00     0.217 HD
ENDBRANCH   5  19
TORSDOF 5
ENDMDL
