REMARK  5 active torsions:
REMARK  status: ('A' for Active; 'I' for Inactive)
REMARK    1  A    between atoms: O_1  and  C_2 
REMARK    2  A    between atoms: C_5  and  C_6 
REMARK    3  A    between atoms: C_7  and  C_8 
REMARK    4  A    between atoms: C_10  and  O_11 
REMARK    5  A    between atoms: C_13  and  O_14 
ROOT
HETATM    1  C   UNK N   1       2.383  -6.896   0.000  0.00  0.00    -0.031 A 
HETATM    2  C   UNK N   1       3.621  -7.544   0.000  0.00  0.00     0.048 A 
HETATM    3  C   UNK N   1       3.680  -8.939   0.000  0.00  0.00     0.069 A 
HETATM    4  C   UNK N   1       2.500  -9.690   0.000  0.00  0.00     0.073 A 
HETATM    5  C   UNK N   1       1.260  -9.044   0.000  0.00  0.00     0.069 A 
HETATM    6  C   UNK N   1       1.201  -7.651   0.000  0.00  0.00     0.048 A 
ENDROOT
BRANCH   1   7
HETATM    7  C   UNK N   1       2.346  -5.431   0.000  0.00  0.00     0.012 C 
HETATM    8  C   UNK N   1       1.192  -4.759  -0.000  0.00  0.00     0.012 C 
BRANCH   8   9
HETATM    9  C   UNK N   1       1.154  -3.295  -0.000  0.00  0.00    -0.036 A 
HETATM   10  C   UNK N   1       2.336  -2.538  -0.000  0.00  0.00     0.014 A 
HETATM   11  C   UNK N   1       2.275  -1.144  -0.000  0.00  0.00     0.037 A 
HETATM   12  C   UNK N   1       1.034  -0.502   0.000  0.00  0.00     0.065 A 
HETATM   13  C   UNK N   1      -0.145  -1.252   0.000  0.00  0.00     0.037 A 
HETATM   14  C   UNK N   1      -0.085  -2.648  -0.000  0.00  0.00     0.014 A 
BRANCH  12  15
HETATM   15  O   UNK N   1       0.976   0.839   0.000  0.00  0.00    -0.361 OA
HETATM   16  H   UNK N   1       1.766   1.342   0.000  0.00  0.00     0.217 HD
ENDBRANCH  12  15
ENDBRANCH   8   9
ENDBRANCH   1   7
BRANCH   3  17
HETATM   17  O   UNK N   1       4.871  -9.559  -0.000  0.00  0.00    -0.361 OA
HETATM   18  H   UNK N   1       4.912 -10.495  -0.000  0.00  0.00     0.217 HD
ENDBRANCH   3  17
BRANCH   5  19
HETATM   19  O   UNK N   1       0.125  -9.761  -0.000  0.00  0.00    -0.361 OA
HETATM   20  H   UNK N   1      -0.704  -9.325  -0.000  0.00  0.00     0.217 HD
ENDBRANCH   5  19
TORSDOF 5
