MODEL 1
REMARK VINA RESULT:      -7.3      0.000      0.000
REMARK  7 active torsions:
REMARK  status: ('A' for Active; 'I' for Inactive)
REMARK    1  A    between atoms: C_1  and  O_2 
REMARK    2  A    between atoms: C_1  and  C_4 
REMARK    3  A    between atoms: C_4  and  O_7 
REMARK    4  A    between atoms: O_7  and  C_8 
REMARK    5  A    between atoms: C_11  and  C_14 
REMARK    6  A    between atoms: C_14  and  C_15 
REMARK       I    between atoms: C_15  and  N_17 
REMARK    7  A    between atoms: N_17  and  C_18 
ROOT
HETATM    1  C   UNK N   1      30.068  22.215  -4.413  0.00  0.00     0.070 A 
HETATM    2  C   UNK N   1      29.656  22.659  -3.154  0.00  0.00     0.037 A 
HETATM    3  C   UNK N   1      28.630  23.600  -3.038  0.00  0.00     0.010 A 
HETATM    4  C   UNK N   1      27.992  24.092  -4.182  0.00  0.00    -0.049 A 
HETATM    5  C   UNK N   1      29.412  22.695  -5.558  0.00  0.00     0.037 A 
HETATM    6  C   UNK N   1      28.380  23.624  -5.443  0.00  0.00     0.010 A 
ENDROOT
BRANCH   4   7
HETATM    7  C   UNK N   1      26.938  25.143  -4.016  0.00  0.00     0.141 C 
BRANCH   7   8
HETATM    8  C   UNK N   1      25.835  25.140  -5.047  0.00  0.00     0.226 C 
HETATM    9  O   UNK N   1      25.161  24.136  -5.204  0.00  0.00    -0.273 OA
HETATM   10  N   UNK N   1      25.654  26.200  -5.880  0.00  0.00    -0.327 N 
HETATM   11  H   UNK N   1      24.996  26.105  -6.607  0.00  0.00     0.169 HD
BRANCH  10  12
HETATM   12  C   UNK N   1      26.349  27.435  -5.772  0.00  0.00     0.035 A 
HETATM   13  C   UNK N   1      26.100  28.329  -4.717  0.00  0.00     0.036 A 
HETATM   14  C   UNK N   1      26.815  29.525  -4.622  0.00  0.00    -0.059 A 
HETATM   15  C   UNK N   1      27.790  29.831  -5.573  0.00  0.00     0.013 A 
HETATM   16  C   UNK N   1      26.543  30.466  -3.504  0.00  0.00     0.048 C 
HETATM   17  C   UNK N   1      28.038  28.948  -6.629  0.00  0.00    -0.059 A 
HETATM   18  C   UNK N   1      27.311  27.759  -6.733  0.00  0.00     0.036 A 
HETATM   19  C   UNK N   1      29.090  29.260  -7.629  0.00  0.00     0.048 C 
ENDBRANCH  10  12
ENDBRANCH   7   8
ENDBRANCH   4   7
BRANCH   1  20
HETATM   20  O   UNK N   1      31.107  21.340  -4.493  0.00  0.00    -0.330 OA
BRANCH  20  21
HETATM   21  C   UNK N   1      32.465  21.645  -4.491  0.00  0.00     0.145 C 
HETATM   22  C   UNK N   1      32.700  23.150  -4.534  0.00  0.00     0.058 C 
HETATM   23  C   UNK N   1      33.058  21.072  -5.767  0.00  0.00     0.058 C 
BRANCH  21  24
HETATM   24  C   UNK N   1      33.153  21.033  -3.281  0.00  0.00     0.175 C 
HETATM   25  O   UNK N   1      34.133  20.319  -3.423  0.00  0.00    -0.648 OA
BRANCH  24  26
HETATM   26  O   UNK N   1      32.692  21.271  -2.036  0.00  0.00    -0.774 OA
HETATM   27  H   UNK N   1      31.891  20.929  -1.689  0.00  0.00     0.167 HD
ENDBRANCH  24  26
ENDBRANCH  21  24
ENDBRANCH  20  21
ENDBRANCH   1  20
TORSDOF 7
ENDMDL
MODEL 2
REMARK VINA RESULT:      -7.2     11.769     14.878
REMARK  7 active torsions:
REMARK  status: ('A' for Active; 'I' for Inactive)
REMARK    1  A    between atoms: C_1  and  O_2 
REMARK    2  A    between atoms: C_1  and  C_4 
REMARK    3  A    between atoms: C_4  and  O_7 
REMARK    4  A    between atoms: O_7  and  C_8 
REMARK    5  A    between atoms: C_11  and  C_14 
REMARK    6  A    between atoms: C_14  and  C_15 
REMARK       I    between atoms: C_15  and  N_17 
REMARK    7  A    between atoms: N_17  and  C_18 
ROOT
HETATM    1  C   UNK N   1      34.260  16.323   7.460  0.00  0.00     0.070 A 
HETATM    2  C   UNK N   1      33.130  17.069   7.807  0.00  0.00     0.037 A 
HETATM    3  C   UNK N   1      32.233  17.491   6.822  0.00  0.00     0.010 A 
HETATM    4  C   UNK N   1      32.447  17.154   5.482  0.00  0.00    -0.049 A 
HETATM    5  C   UNK N   1      34.460  15.969   6.115  0.00  0.00     0.037 A 
HETATM    6  C   UNK N   1      33.560  16.379   5.134  0.00  0.00     0.010 A 
ENDROOT
BRANCH   4   7
HETATM    7  C   UNK N   1      31.493  17.676   4.452  0.00  0.00     0.141 C 
BRANCH   7   8
HETATM    8  C   UNK N   1      30.449  16.701   3.963  0.00  0.00     0.226 C 
HETATM    9  O   UNK N   1      30.741  15.893   3.097  0.00  0.00    -0.273 OA
HETATM   10  N   UNK N   1      29.161  16.782   4.391  0.00  0.00    -0.327 N 
HETATM   11  H   UNK N   1      28.497  16.197   3.960  0.00  0.00     0.169 HD
BRANCH  10  12
HETATM   12  C   UNK N   1      28.709  17.653   5.420  0.00  0.00     0.035 A 
HETATM   13  C   UNK N   1      28.763  17.281   6.774  0.00  0.00     0.036 A 
HETATM   14  C   UNK N   1      28.334  18.166   7.766  0.00  0.00    -0.059 A 
HETATM   15  C   UNK N   1      27.860  19.431   7.413  0.00  0.00     0.013 A 
HETATM   16  C   UNK N   1      28.393  17.763   9.195  0.00  0.00     0.048 C 
HETATM   17  C   UNK N   1      27.798  19.803   6.067  0.00  0.00    -0.059 A 
HETATM   18  C   UNK N   1      28.211  18.912   5.073  0.00  0.00     0.036 A 
HETATM   19  C   UNK N   1      27.315  21.156   5.691  0.00  0.00     0.048 C 
ENDBRANCH  10  12
ENDBRANCH   7   8
ENDBRANCH   4   7
BRANCH   1  20
HETATM   20  O   UNK N   1      35.142  15.976   8.435  0.00  0.00    -0.330 OA
BRANCH  20  21
HETATM   21  C   UNK N   1      35.028  14.919   9.333  0.00  0.00     0.145 C 
HETATM   22  C   UNK N   1      36.340  14.156   9.469  0.00  0.00     0.058 C 
HETATM   23  C   UNK N   1      34.011  13.946   8.760  0.00  0.00     0.058 C 
BRANCH  21  24
HETATM   24  C   UNK N   1      34.558  15.415  10.692  0.00  0.00     0.175 C 
HETATM   25  O   UNK N   1      35.179  16.286  11.280  0.00  0.00    -0.648 OA
BRANCH  24  26
HETATM   26  O   UNK N   1      33.449  14.903  11.265  0.00  0.00    -0.774 OA
HETATM   27  H   UNK N   1      32.572  15.148  11.042  0.00  0.00     0.167 HD
ENDBRANCH  24  26
ENDBRANCH  21  24
ENDBRANCH  20  21
ENDBRANCH   1  20
TORSDOF 7
ENDMDL
MODEL 3
REMARK VINA RESULT:      -7.1      3.523      6.991
REMARK  7 active torsions:
REMARK  status: ('A' for Active; 'I' for Inactive)
REMARK    1  A    between atoms: C_1  and  O_2 
REMARK    2  A    between atoms: C_1  and  C_4 
REMARK    3  A    between atoms: C_4  and  O_7 
REMARK    4  A    between atoms: O_7  and  C_8 
REMARK    5  A    between atoms: C_11  and  C_14 
REMARK    6  A    between atoms: C_14  and  C_15 
REMARK       I    between atoms: C_15  and  N_17 
REMARK    7  A    between atoms: N_17  and  C_18 
ROOT
HETATM    1  C   UNK N   1      25.855  27.447  -3.913  0.00  0.00     0.070 A 
HETATM    2  C   UNK N   1      25.223  27.251  -5.144  0.00  0.00     0.037 A 
HETATM    3  C   UNK N   1      25.227  25.990  -5.747  0.00  0.00     0.010 A 
HETATM    4  C   UNK N   1      25.846  24.908  -5.113  0.00  0.00    -0.049 A 
HETATM    5  C   UNK N   1      26.458  26.353  -3.271  0.00  0.00     0.037 A 
HETATM    6  C   UNK N   1      26.452  25.093  -3.865  0.00  0.00     0.010 A 
ENDROOT
BRANCH   4   7
HETATM    7  C   UNK N   1      25.878  23.588  -5.821  0.00  0.00     0.141 C 
BRANCH   7   8
HETATM    8  C   UNK N   1      26.550  23.579  -7.173  0.00  0.00     0.226 C 
HETATM    9  O   UNK N   1      25.867  23.580  -8.183  0.00  0.00    -0.273 OA
HETATM   10  N   UNK N   1      27.900  23.457  -7.282  0.00  0.00    -0.327 N 
HETATM   11  H   UNK N   1      28.279  23.343  -8.184  0.00  0.00     0.169 HD
BRANCH  10  12
HETATM   12  C   UNK N   1      28.800  23.483  -6.182  0.00  0.00     0.035 A 
HETATM   13  C   UNK N   1      29.202  22.303  -5.532  0.00  0.00     0.036 A 
HETATM   14  C   UNK N   1      30.106  22.356  -4.469  0.00  0.00    -0.059 A 
HETATM   15  C   UNK N   1      30.625  23.586  -4.057  0.00  0.00     0.013 A 
HETATM   16  C   UNK N   1      30.523  21.104  -3.787  0.00  0.00     0.048 C 
HETATM   17  C   UNK N   1      30.224  24.763  -4.696  0.00  0.00    -0.059 A 
HETATM   18  C   UNK N   1      29.306  24.712  -5.748  0.00  0.00     0.036 A 
HETATM   19  C   UNK N   1      30.791  26.069  -4.273  0.00  0.00     0.048 C 
ENDBRANCH  10  12
ENDBRANCH   7   8
ENDBRANCH   4   7
BRANCH   1  20
HETATM   20  O   UNK N   1      25.881  28.698  -3.381  0.00  0.00    -0.330 OA
BRANCH  20  21
HETATM   21  C   UNK N   1      26.899  29.640  -3.496  0.00  0.00     0.145 C 
HETATM   22  C   UNK N   1      26.362  31.061  -3.375  0.00  0.00     0.058 C 
HETATM   23  C   UNK N   1      27.480  29.508  -4.894  0.00  0.00     0.058 C 
BRANCH  21  24
HETATM   24  C   UNK N   1      27.983  29.391  -2.459  0.00  0.00     0.175 C 
HETATM   25  O   UNK N   1      29.117  29.103  -2.808  0.00  0.00    -0.648 OA
BRANCH  24  26
HETATM   26  O   UNK N   1      27.709  29.485  -1.142  0.00  0.00    -0.774 OA
HETATM   27  H   UNK N   1      28.347  29.422  -0.458  0.00  0.00     0.167 HD
ENDBRANCH  24  26
ENDBRANCH  21  24
ENDBRANCH  20  21
ENDBRANCH   1  20
TORSDOF 7
ENDMDL
MODEL 4
REMARK VINA RESULT:      -7.1     14.686     17.860
REMARK  7 active torsions:
REMARK  status: ('A' for Active; 'I' for Inactive)
REMARK    1  A    between atoms: C_1  and  O_2 
REMARK    2  A    between atoms: C_1  and  C_4 
REMARK    3  A    between atoms: C_4  and  O_7 
REMARK    4  A    between atoms: O_7  and  C_8 
REMARK    5  A    between atoms: C_11  and  C_14 
REMARK    6  A    between atoms: C_14  and  C_15 
REMARK       I    between atoms: C_15  and  N_17 
REMARK    7  A    between atoms: N_17  and  C_18 
ROOT
HETATM    1  C   UNK N   1      21.655  17.618   3.730  0.00  0.00     0.070 A 
HETATM    2  C   UNK N   1      21.961  18.365   4.871  0.00  0.00     0.037 A 
HETATM    3  C   UNK N   1      21.954  17.763   6.132  0.00  0.00     0.010 A 
HETATM    4  C   UNK N   1      21.661  16.402   6.262  0.00  0.00    -0.049 A 
HETATM    5  C   UNK N   1      21.380  16.247   3.862  0.00  0.00     0.037 A 
HETATM    6  C   UNK N   1      21.386  15.643   5.118  0.00  0.00     0.010 A 
ENDROOT
BRANCH   4   7
HETATM    7  C   UNK N   1      21.608  15.810   7.637  0.00  0.00     0.141 C 
BRANCH   7   8
HETATM    8  C   UNK N   1      20.252  15.333   8.098  0.00  0.00     0.226 C 
HETATM    9  O   UNK N   1      19.272  16.034   7.912  0.00  0.00    -0.273 OA
HETATM   10  N   UNK N   1      20.122  14.186   8.817  0.00  0.00    -0.327 N 
HETATM   11  H   UNK N   1      19.235  13.976   9.190  0.00  0.00     0.169 HD
BRANCH  10  12
HETATM   12  C   UNK N   1      21.180  13.269   9.066  0.00  0.00     0.035 A 
HETATM   13  C   UNK N   1      21.836  12.601   8.017  0.00  0.00     0.036 A 
HETATM   14  C   UNK N   1      22.888  11.724   8.289  0.00  0.00    -0.059 A 
HETATM   15  C   UNK N   1      23.299  11.516   9.607  0.00  0.00     0.013 A 
HETATM   16  C   UNK N   1      23.574  11.020   7.174  0.00  0.00     0.048 C 
HETATM   17  C   UNK N   1      22.645  12.173  10.655  0.00  0.00    -0.059 A 
HETATM   18  C   UNK N   1      21.582  13.038  10.385  0.00  0.00     0.036 A 
HETATM   19  C   UNK N   1      23.096  11.970  12.056  0.00  0.00     0.048 C 
ENDBRANCH  10  12
ENDBRANCH   7   8
ENDBRANCH   4   7
BRANCH   1  20
HETATM   20  O   UNK N   1      21.616  18.247   2.525  0.00  0.00    -0.330 OA
BRANCH  20  21
HETATM   21  C   UNK N   1      20.498  18.781   1.891  0.00  0.00     0.145 C 
HETATM   22  C   UNK N   1      19.318  18.902   2.847  0.00  0.00     0.058 C 
HETATM   23  C   UNK N   1      20.083  17.802   0.805  0.00  0.00     0.058 C 
BRANCH  21  24
HETATM   24  C   UNK N   1      20.823  20.131   1.272  0.00  0.00     0.175 C 
HETATM   25  O   UNK N   1      21.312  21.020   1.951  0.00  0.00    -0.648 OA
BRANCH  24  26
HETATM   26  O   UNK N   1      20.577  20.366  -0.033  0.00  0.00    -0.774 OA
HETATM   27  H   UNK N   1      20.998  19.921  -0.743  0.00  0.00     0.167 HD
ENDBRANCH  24  26
ENDBRANCH  21  24
ENDBRANCH  20  21
ENDBRANCH   1  20
TORSDOF 7
ENDMDL
MODEL 5
REMARK VINA RESULT:      -7.1     12.036     13.949
REMARK  7 active torsions:
REMARK  status: ('A' for Active; 'I' for Inactive)
REMARK    1  A    between atoms: C_1  and  O_2 
REMARK    2  A    between atoms: C_1  and  C_4 
REMARK    3  A    between atoms: C_4  and  O_7 
REMARK    4  A    between atoms: O_7  and  C_8 
REMARK    5  A    between atoms: C_11  and  C_14 
REMARK    6  A    between atoms: C_14  and  C_15 
REMARK       I    between atoms: C_15  and  N_17 
REMARK    7  A    between atoms: N_17  and  C_18 
ROOT
HETATM    1  C   UNK N   1      31.507  17.047   8.125  0.00  0.00     0.070 A 
HETATM    2  C   UNK N   1      30.926  18.136   8.780  0.00  0.00     0.037 A 
HETATM    3  C   UNK N   1      29.664  18.600   8.397  0.00  0.00     0.010 A 
HETATM    4  C   UNK N   1      28.963  17.964   7.367  0.00  0.00    -0.049 A 
HETATM    5  C   UNK N   1      30.790  16.399   7.105  0.00  0.00     0.037 A 
HETATM    6  C   UNK N   1      29.527  16.852   6.731  0.00  0.00     0.010 A 
ENDROOT
BRANCH   4   7
HETATM    7  C   UNK N   1      27.640  18.530   6.948  0.00  0.00     0.141 C 
BRANCH   7   8
HETATM    8  C   UNK N   1      27.692  19.668   5.958  0.00  0.00     0.226 C 
HETATM    9  O   UNK N   1      27.870  20.805   6.358  0.00  0.00    -0.273 OA
HETATM   10  N   UNK N   1      27.431  19.460   4.639  0.00  0.00    -0.327 N 
HETATM   11  H   UNK N   1      27.367  20.249   4.054  0.00  0.00     0.169 HD
BRANCH  10  12
HETATM   12  C   UNK N   1      27.247  18.180   4.049  0.00  0.00     0.035 A 
HETATM   13  C   UNK N   1      28.337  17.410   3.606  0.00  0.00     0.036 A 
HETATM   14  C   UNK N   1      28.128  16.146   3.051  0.00  0.00    -0.059 A 
HETATM   15  C   UNK N   1      26.832  15.637   2.945  0.00  0.00     0.013 A 
HETATM   16  C   UNK N   1      29.287  15.341   2.583  0.00  0.00     0.048 C 
HETATM   17  C   UNK N   1      25.744  16.400   3.379  0.00  0.00    -0.059 A 
HETATM   18  C   UNK N   1      25.951  17.673   3.918  0.00  0.00     0.036 A 
HETATM   19  C   UNK N   1      24.367  15.852   3.288  0.00  0.00     0.048 C 
ENDBRANCH  10  12
ENDBRANCH   7   8
ENDBRANCH   4   7
BRANCH   1  20
HETATM   20  O   UNK N   1      32.758  16.656   8.486  0.00  0.00    -0.330 OA
BRANCH  20  21
HETATM   21  C   UNK N   1      33.956  16.988   7.860  0.00  0.00     0.145 C 
HETATM   22  C   UNK N   1      33.716  17.621   6.494  0.00  0.00     0.058 C 
HETATM   23  C   UNK N   1      34.713  15.693   7.615  0.00  0.00     0.058 C 
BRANCH  21  24
HETATM   24  C   UNK N   1      34.785  17.913   8.737  0.00  0.00     0.175 C 
HETATM   25  O   UNK N   1      35.240  17.515   9.797  0.00  0.00    -0.648 OA
BRANCH  24  26
HETATM   26  O   UNK N   1      35.029  19.184   8.356  0.00  0.00    -0.774 OA
HETATM   27  H   UNK N   1      34.468  19.913   8.537  0.00  0.00     0.167 HD
ENDBRANCH  24  26
ENDBRANCH  21  24
ENDBRANCH  20  21
ENDBRANCH   1  20
TORSDOF 7
ENDMDL
MODEL 6
REMARK VINA RESULT:      -7.0     24.091     28.090
REMARK  7 active torsions:
REMARK  status: ('A' for Active; 'I' for Inactive)
REMARK    1  A    between atoms: C_1  and  O_2 
REMARK    2  A    between atoms: C_1  and  C_4 
REMARK    3  A    between atoms: C_4  and  O_7 
REMARK    4  A    between atoms: O_7  and  C_8 
REMARK    5  A    between atoms: C_11  and  C_14 
REMARK    6  A    between atoms: C_14  and  C_15 
REMARK       I    between atoms: C_15  and  N_17 
REMARK    7  A    between atoms: N_17  and  C_18 
ROOT
HETATM    1  C   UNK N   1      34.738  12.468  15.954  0.00  0.00     0.070 A 
HETATM    2  C   UNK N   1      34.897  11.136  16.345  0.00  0.00     0.037 A 
HETATM    3  C   UNK N   1      35.213  10.822  17.670  0.00  0.00     0.010 A 
HETATM    4  C   UNK N   1      35.355  11.838  18.620  0.00  0.00    -0.049 A 
HETATM    5  C   UNK N   1      34.861  13.484  16.916  0.00  0.00     0.037 A 
HETATM    6  C   UNK N   1      35.164  13.172  18.239  0.00  0.00     0.010 A 
ENDROOT
BRANCH   4   7
HETATM    7  C   UNK N   1      35.752  11.462  20.015  0.00  0.00     0.141 C 
BRANCH   7   8
HETATM    8  C   UNK N   1      36.403  10.110  20.174  0.00  0.00     0.226 C 
HETATM    9  O   UNK N   1      37.565   9.959  19.837  0.00  0.00    -0.273 OA
HETATM   10  N   UNK N   1      35.683   9.031  20.583  0.00  0.00    -0.327 N 
HETATM   11  H   UNK N   1      36.125   8.151  20.564  0.00  0.00     0.169 HD
BRANCH  10  12
HETATM   12  C   UNK N   1      34.337   9.088  21.037  0.00  0.00     0.035 A 
HETATM   13  C   UNK N   1      33.277   8.592  20.258  0.00  0.00     0.036 A 
HETATM   14  C   UNK N   1      31.967   8.640  20.739  0.00  0.00    -0.059 A 
HETATM   15  C   UNK N   1      31.708   9.172  22.004  0.00  0.00     0.013 A 
HETATM   16  C   UNK N   1      30.852   8.116  19.908  0.00  0.00     0.048 C 
HETATM   17  C   UNK N   1      32.758   9.672  22.780  0.00  0.00    -0.059 A 
HETATM   18  C   UNK N   1      34.067   9.640  22.292  0.00  0.00     0.036 A 
HETATM   19  C   UNK N   1      32.488  10.217  24.135  0.00  0.00     0.048 C 
ENDBRANCH  10  12
ENDBRANCH   7   8
ENDBRANCH   4   7
BRANCH   1  20
HETATM   20  O   UNK N   1      34.485  12.741  14.646  0.00  0.00    -0.330 OA
BRANCH  20  21
HETATM   21  C   UNK N   1      35.385  12.686  13.586  0.00  0.00     0.145 C 
HETATM   22  C   UNK N   1      35.194  11.422  12.756  0.00  0.00     0.058 C 
HETATM   23  C   UNK N   1      36.781  12.613  14.181  0.00  0.00     0.058 C 
BRANCH  21  24
HETATM   24  C   UNK N   1      35.261  13.922  12.708  0.00  0.00     0.175 C 
HETATM   25  O   UNK N   1      36.100  14.807  12.767  0.00  0.00    -0.648 OA
BRANCH  24  26
HETATM   26  O   UNK N   1      34.227  14.056  11.854  0.00  0.00    -0.774 OA
HETATM   27  H   UNK N   1      34.175  13.649  11.011  0.00  0.00     0.167 HD
ENDBRANCH  24  26
ENDBRANCH  21  24
ENDBRANCH  20  21
ENDBRANCH   1  20
TORSDOF 7
ENDMDL
MODEL 7
REMARK VINA RESULT:      -6.9      3.606      7.463
REMARK  7 active torsions:
REMARK  status: ('A' for Active; 'I' for Inactive)
REMARK    1  A    between atoms: C_1  and  O_2 
REMARK    2  A    between atoms: C_1  and  C_4 
REMARK    3  A    between atoms: C_4  and  O_7 
REMARK    4  A    between atoms: O_7  and  C_8 
REMARK    5  A    between atoms: C_11  and  C_14 
REMARK    6  A    between atoms: C_14  and  C_15 
REMARK       I    between atoms: C_15  and  N_17 
REMARK    7  A    between atoms: N_17  and  C_18 
ROOT
HETATM    1  C   UNK N   1      25.878  27.343  -3.927  0.00  0.00     0.070 A 
HETATM    2  C   UNK N   1      25.163  27.189  -5.118  0.00  0.00     0.037 A 
HETATM    3  C   UNK N   1      25.127  25.950  -5.764  0.00  0.00     0.010 A 
HETATM    4  C   UNK N   1      25.789  24.848  -5.213  0.00  0.00    -0.049 A 
HETATM    5  C   UNK N   1      26.524  26.229  -3.366  0.00  0.00     0.037 A 
HETATM    6  C   UNK N   1      26.478  24.990  -4.003  0.00  0.00     0.010 A 
ENDROOT
BRANCH   4   7
HETATM    7  C   UNK N   1      25.773  23.554  -5.968  0.00  0.00     0.141 C 
BRANCH   7   8
HETATM    8  C   UNK N   1      25.924  23.661  -7.466  0.00  0.00     0.226 C 
HETATM    9  O   UNK N   1      25.092  24.276  -8.111  0.00  0.00    -0.273 OA
HETATM   10  N   UNK N   1      26.911  22.991  -8.119  0.00  0.00    -0.327 N 
HETATM   11  H   UNK N   1      26.899  23.003  -9.104  0.00  0.00     0.169 HD
BRANCH  10  12
HETATM   12  C   UNK N   1      27.958  22.276  -7.477  0.00  0.00     0.035 A 
HETATM   13  C   UNK N   1      28.676  22.830  -6.403  0.00  0.00     0.036 A 
HETATM   14  C   UNK N   1      29.684  22.095  -5.775  0.00  0.00    -0.059 A 
HETATM   15  C   UNK N   1      29.974  20.799  -6.207  0.00  0.00     0.013 A 
HETATM   16  C   UNK N   1      30.440  22.690  -4.642  0.00  0.00     0.048 C 
HETATM   17  C   UNK N   1      29.267  20.246  -7.279  0.00  0.00    -0.059 A 
HETATM   18  C   UNK N   1      28.270  20.987  -7.919  0.00  0.00     0.036 A 
HETATM   19  C   UNK N   1      29.558  18.860  -7.726  0.00  0.00     0.048 C 
ENDBRANCH  10  12
ENDBRANCH   7   8
ENDBRANCH   4   7
BRANCH   1  20
HETATM   20  O   UNK N   1      25.939  28.575  -3.353  0.00  0.00    -0.330 OA
BRANCH  20  21
HETATM   21  C   UNK N   1      26.950  29.520  -3.497  0.00  0.00     0.145 C 
HETATM   22  C   UNK N   1      26.403  30.940  -3.416  0.00  0.00     0.058 C 
HETATM   23  C   UNK N   1      27.529  29.353  -4.892  0.00  0.00     0.058 C 
BRANCH  21  24
HETATM   24  C   UNK N   1      28.038  29.309  -2.457  0.00  0.00     0.175 C 
HETATM   25  O   UNK N   1      29.127  28.865  -2.783  0.00  0.00    -0.648 OA
BRANCH  24  26
HETATM   26  O   UNK N   1      27.817  29.610  -1.161  0.00  0.00    -0.774 OA
HETATM   27  H   UNK N   1      28.484  29.664  -0.504  0.00  0.00     0.167 HD
ENDBRANCH  24  26
ENDBRANCH  21  24
ENDBRANCH  20  21
ENDBRANCH   1  20
TORSDOF 7
ENDMDL
MODEL 8
REMARK VINA RESULT:      -6.9     24.144     28.092
REMARK  7 active torsions:
REMARK  status: ('A' for Active; 'I' for Inactive)
REMARK    1  A    between atoms: C_1  and  O_2 
REMARK    2  A    between atoms: C_1  and  C_4 
REMARK    3  A    between atoms: C_4  and  O_7 
REMARK    4  A    between atoms: O_7  and  C_8 
REMARK    5  A    between atoms: C_11  and  C_14 
REMARK    6  A    between atoms: C_14  and  C_15 
REMARK       I    between atoms: C_15  and  N_17 
REMARK    7  A    between atoms: N_17  and  C_18 
ROOT
HETATM    1  C   UNK N   1      34.758  12.104  15.700  0.00  0.00     0.070 A 
HETATM    2  C   UNK N   1      34.991  13.182  16.559  0.00  0.00     0.037 A 
HETATM    3  C   UNK N   1      35.240  12.961  17.917  0.00  0.00     0.010 A 
HETATM    4  C   UNK N   1      35.278  11.658  18.424  0.00  0.00    -0.049 A 
HETATM    5  C   UNK N   1      34.817  10.797  16.209  0.00  0.00     0.037 A 
HETATM    6  C   UNK N   1      35.078  10.575  17.560  0.00  0.00     0.010 A 
ENDROOT
BRANCH   4   7
HETATM    7  C   UNK N   1      35.491  11.470  19.894  0.00  0.00     0.141 C 
BRANCH   7   8
HETATM    8  C   UNK N   1      36.291  10.254  20.296  0.00  0.00     0.226 C 
HETATM    9  O   UNK N   1      37.469  10.183  19.990  0.00  0.00    -0.273 OA
HETATM   10  N   UNK N   1      35.694   9.190  20.896  0.00  0.00    -0.327 N 
HETATM   11  H   UNK N   1      36.234   8.379  21.036  0.00  0.00     0.169 HD
BRANCH  10  12
HETATM   12  C   UNK N   1      34.341   9.169  21.334  0.00  0.00     0.035 A 
HETATM   13  C   UNK N   1      33.971   9.655  22.600  0.00  0.00     0.036 A 
HETATM   14  C   UNK N   1      32.632   9.644  22.996  0.00  0.00    -0.059 A 
HETATM   15  C   UNK N   1      31.653   9.159  22.126  0.00  0.00     0.013 A 
HETATM   16  C   UNK N   1      32.251  10.158  24.337  0.00  0.00     0.048 C 
HETATM   17  C   UNK N   1      32.016   8.669  20.868  0.00  0.00    -0.059 A 
HETATM   18  C   UNK N   1      33.358   8.664  20.479  0.00  0.00     0.036 A 
HETATM   19  C   UNK N   1      30.974   8.174  19.934  0.00  0.00     0.048 C 
ENDBRANCH  10  12
ENDBRANCH   7   8
ENDBRANCH   4   7
BRANCH   1  20
HETATM   20  O   UNK N   1      34.463  12.357  14.397  0.00  0.00    -0.330 OA
BRANCH  20  21
HETATM   21  C   UNK N   1      35.360  12.458  13.337  0.00  0.00     0.145 C 
HETATM   22  C   UNK N   1      34.889  11.660  12.128  0.00  0.00     0.058 C 
HETATM   23  C   UNK N   1      36.669  11.835  13.792  0.00  0.00     0.058 C 
BRANCH  21  24
HETATM   24  C   UNK N   1      35.585  13.914  12.959  0.00  0.00     0.175 C 
HETATM   25  O   UNK N   1      34.790  14.495  12.237  0.00  0.00    -0.648 OA
BRANCH  24  26
HETATM   26  O   UNK N   1      36.662  14.584  13.417  0.00  0.00    -0.774 OA
HETATM   27  H   UNK N   1      37.451  14.722  12.929  0.00  0.00     0.167 HD
ENDBRANCH  24  26
ENDBRANCH  21  24
ENDBRANCH  20  21
ENDBRANCH   1  20
TORSDOF 7
ENDMDL
MODEL 9
REMARK VINA RESULT:      -6.9     12.144     14.910
REMARK  7 active torsions:
REMARK  status: ('A' for Active; 'I' for Inactive)
REMARK    1  A    between atoms: C_1  and  O_2 
REMARK    2  A    between atoms: C_1  and  C_4 
REMARK    3  A    between atoms: C_4  and  O_7 
REMARK    4  A    between atoms: O_7  and  C_8 
REMARK    5  A    between atoms: C_11  and  C_14 
REMARK    6  A    between atoms: C_14  and  C_15 
REMARK       I    between atoms: C_15  and  N_17 
REMARK    7  A    between atoms: N_17  and  C_18 
ROOT
HETATM    1  C   UNK N   1      25.590  18.862   4.703  0.00  0.00     0.070 A 
HETATM    2  C   UNK N   1      25.917  20.082   5.301  0.00  0.00     0.037 A 
HETATM    3  C   UNK N   1      26.923  20.147   6.268  0.00  0.00     0.010 A 
HETATM    4  C   UNK N   1      27.627  18.994   6.631  0.00  0.00    -0.049 A 
HETATM    5  C   UNK N   1      26.313  17.710   5.055  0.00  0.00     0.037 A 
HETATM    6  C   UNK N   1      27.325  17.776   6.011  0.00  0.00     0.010 A 
ENDROOT
BRANCH   4   7
HETATM    7  C   UNK N   1      28.658  19.097   7.714  0.00  0.00     0.141 C 
BRANCH   7   8
HETATM    8  C   UNK N   1      28.728  17.933   8.673  0.00  0.00     0.226 C 
HETATM    9  O   UNK N   1      27.801  17.730   9.439  0.00  0.00    -0.273 OA
HETATM   10  N   UNK N   1      29.853  17.177   8.773  0.00  0.00    -0.327 N 
HETATM   11  H   UNK N   1      29.890  16.502   9.490  0.00  0.00     0.169 HD
BRANCH  10  12
HETATM   12  C   UNK N   1      30.979  17.293   7.913  0.00  0.00     0.035 A 
HETATM   13  C   UNK N   1      30.897  16.974   6.547  0.00  0.00     0.036 A 
HETATM   14  C   UNK N   1      32.013  17.120   5.720  0.00  0.00    -0.059 A 
HETATM   15  C   UNK N   1      33.214  17.596   6.250  0.00  0.00     0.013 A 
HETATM   16  C   UNK N   1      31.917  16.778   4.277  0.00  0.00     0.048 C 
HETATM   17  C   UNK N   1      33.303  17.909   7.609  0.00  0.00    -0.059 A 
HETATM   18  C   UNK N   1      32.191  17.747   8.440  0.00  0.00     0.036 A 
HETATM   19  C   UNK N   1      34.573  18.437   8.170  0.00  0.00     0.048 C 
ENDBRANCH  10  12
ENDBRANCH   7   8
ENDBRANCH   4   7
BRANCH   1  20
HETATM   20  O   UNK N   1      24.568  18.824   3.806  0.00  0.00    -0.330 OA
BRANCH  20  21
HETATM   21  C   UNK N   1      23.262  18.405   4.038  0.00  0.00     0.145 C 
HETATM   22  C   UNK N   1      22.956  18.325   5.529  0.00  0.00     0.058 C 
HETATM   23  C   UNK N   1      23.135  16.994   3.488  0.00  0.00     0.058 C 
BRANCH  21  24
HETATM   24  C   UNK N   1      22.270  19.322   3.340  0.00  0.00     0.175 C 
HETATM   25  O   UNK N   1      22.543  20.496   3.148  0.00  0.00    -0.648 OA
BRANCH  24  26
HETATM   26  O   UNK N   1      21.077  18.852   2.921  0.00  0.00    -0.774 OA
HETATM   27  H   UNK N   1      20.841  17.945   2.892  0.00  0.00     0.167 HD
ENDBRANCH  24  26
ENDBRANCH  21  24
ENDBRANCH  20  21
ENDBRANCH   1  20
TORSDOF 7
ENDMDL
