MODEL 1
REMARK VINA RESULT:      -7.2      0.000      0.000
REMARK  8 active torsions:
REMARK  status: ('A' for Active; 'I' for Inactive)
REMARK    1  A    between atoms: C_3  and  C_16 
REMARK    2  A    between atoms: C_4  and  S_8 
REMARK    3  A    between atoms: N_5  and  C_19 
REMARK    4  A    between atoms: C_6  and  C_27 
REMARK    5  A    between atoms: C_7  and  S_8 
REMARK    6  A    between atoms: C_19  and  C_20 
REMARK    7  A    between atoms: C_27  and  O_28 
REMARK    8  A    between atoms: O_28  and  C_29 
REMARK       I    between atoms: C_29  and  N_30 
ROOT
HETATM    1  N   UNK N   1      22.464  15.464   7.006  0.00  0.00    -0.345 N 
ATOM      2  HN  UNK N   1      22.071  14.829   7.701  1.00  0.00     0.167 HD
HETATM    3  C   UNK N   1      23.627  15.323   6.330  0.00  0.00     0.048 A 
HETATM    4  C   UNK N   1      23.794  16.411   5.488  0.00  0.00     0.102 A 
HETATM    5  N   UNK N   1      22.716  17.215   5.619  0.00  0.00    -0.323 N 
HETATM    6  C   UNK N   1      21.937  16.623   6.562  0.00  0.00     0.110 A 
ENDROOT
BRANCH   4   7
HETATM    7  S   UNK N   1      25.156  16.638   4.299  0.00  0.00    -0.070 SA
BRANCH   7   8
HETATM    8  C   UNK N   1      26.330  17.684   5.208  0.00  0.00     0.010 A 
HETATM    9  C   UNK N   1      26.201  19.080   5.177  0.00  0.00     0.042 A 
HETATM   10  C   UNK N   1      27.015  19.883   5.995  0.00  0.00     0.036 A 
HETATM   11 Cl   UNK N   1      26.831  21.624   5.993  0.00  0.00    -0.084 Cl
HETATM   12  C   UNK N   1      27.951  19.293   6.849  0.00  0.00     0.047 A 
HETATM   13  C   UNK N   1      28.074  17.906   6.891  0.00  0.00     0.036 A 
HETATM   14 Cl   UNK N   1      29.230  17.153   7.969  0.00  0.00    -0.084 Cl
HETATM   15  C   UNK N   1      27.251  17.113   6.092  0.00  0.00     0.042 A 
ENDBRANCH   7   8
ENDBRANCH   4   7
BRANCH   3  16
HETATM   16  C   UNK N   1      24.523  14.118   6.431  0.00  0.00     0.030 C 
HETATM   17  C   UNK N   1      25.246  14.086   7.762  0.00  0.00     0.016 C 
HETATM   18  C   UNK N   1      23.759  12.816   6.243  0.00  0.00     0.016 C 
ENDBRANCH   3  16
BRANCH   5  19
HETATM   19  C   UNK N   1      22.467  18.403   4.799  0.00  0.00     0.170 C 
BRANCH  19  20
HETATM   20  C   UNK N   1      21.411  18.295   3.751  0.00  0.00    -0.037 A 
HETATM   21  C   UNK N   1      21.250  17.106   3.038  0.00  0.00     0.026 A 
HETATM   22  C   UNK N   1      20.192  16.991   2.133  0.00  0.00     0.088 A 
HETATM   23  N   UNK N   1      19.325  18.026   1.961  0.00  0.00    -0.375 N 
HETATM   24  C   UNK N   1      19.458  19.188   2.658  0.00  0.00     0.088 A 
ATOM     25  HN  UNK N   1      18.559  17.931   1.294  1.00  0.00     0.164 HD
HETATM   26  C   UNK N   1      20.499  19.337   3.577  0.00  0.00     0.026 A 
ENDBRANCH  19  20
ENDBRANCH   5  19
BRANCH   6  27
HETATM   27  C   UNK N   1      20.623  17.148   7.041  0.00  0.00     0.257 C 
BRANCH  27  28
HETATM   28  O   UNK N   1      20.651  17.357   8.401  0.00  0.00    -0.297 OA
BRANCH  28  29
HETATM   29  C   UNK N   1      19.725  18.124   9.027  0.00  0.00     0.358 C 
HETATM   30  N   UNK N   1      18.414  17.800   8.986  0.00  0.00    -0.346 N 
HETATM   31  H   UNK N   1      17.601  18.336   8.838  0.00  0.00     0.161 HD
HETATM   32  H   UNK N   1      18.236  16.844   9.132  0.00  0.00     0.161 HD
HETATM   33  O   UNK N   1      20.082  19.109   9.650  0.00  0.00    -0.239 OA
ENDBRANCH  28  29
ENDBRANCH  27  28
ENDBRANCH   6  27
TORSDOF 8
ENDMDL
MODEL 2
REMARK VINA RESULT:      -7.1      0.841      1.845
REMARK  8 active torsions:
REMARK  status: ('A' for Active; 'I' for Inactive)
REMARK    1  A    between atoms: C_3  and  C_16 
REMARK    2  A    between atoms: C_4  and  S_8 
REMARK    3  A    between atoms: N_5  and  C_19 
REMARK    4  A    between atoms: C_6  and  C_27 
REMARK    5  A    between atoms: C_7  and  S_8 
REMARK    6  A    between atoms: C_19  and  C_20 
REMARK    7  A    between atoms: C_27  and  O_28 
REMARK    8  A    between atoms: O_28  and  C_29 
REMARK       I    between atoms: C_29  and  N_30 
ROOT
HETATM    1  N   UNK N   1      22.163  15.644   6.997  0.00  0.00    -0.345 N 
ATOM      2  HN  UNK N   1      21.911  14.907   7.655  1.00  0.00     0.167 HD
HETATM    3  C   UNK N   1      23.229  15.675   6.166  0.00  0.00     0.048 A 
HETATM    4  C   UNK N   1      23.206  16.859   5.447  0.00  0.00     0.102 A 
HETATM    5  N   UNK N   1      22.105  17.552   5.810  0.00  0.00    -0.323 N 
HETATM    6  C   UNK N   1      21.503  16.798   6.767  0.00  0.00     0.110 A 
ENDROOT
BRANCH   4   7
HETATM    7  S   UNK N   1      24.376  17.326   4.129  0.00  0.00    -0.070 SA
BRANCH   7   8
HETATM    8  C   UNK N   1      25.754  18.075   5.045  0.00  0.00     0.010 A 
HETATM    9  C   UNK N   1      26.880  17.307   5.376  0.00  0.00     0.042 A 
HETATM   10  C   UNK N   1      28.007  17.919   5.953  0.00  0.00     0.036 A 
HETATM   11 Cl   UNK N   1      29.432  16.975   6.330  0.00  0.00    -0.084 Cl
HETATM   12  C   UNK N   1      28.013  19.297   6.191  0.00  0.00     0.047 A 
HETATM   13  C   UNK N   1      26.900  20.064   5.853  0.00  0.00     0.036 A 
HETATM   14 Cl   UNK N   1      26.901  21.793   6.130  0.00  0.00    -0.084 Cl
HETATM   15  C   UNK N   1      25.792  19.455   5.264  0.00  0.00     0.042 A 
ENDBRANCH   7   8
ENDBRANCH   4   7
BRANCH   3  16
HETATM   16  C   UNK N   1      24.208  14.543   6.007  0.00  0.00     0.030 C 
HETATM   17  C   UNK N   1      25.247  14.561   7.110  0.00  0.00     0.016 C 
HETATM   18  C   UNK N   1      23.522  13.187   5.984  0.00  0.00     0.016 C 
ENDBRANCH   3  16
BRANCH   5  19
HETATM   19  C   UNK N   1      21.667  18.798   5.177  0.00  0.00     0.170 C 
BRANCH  19  20
HETATM   20  C   UNK N   1      21.180  18.712   3.771  0.00  0.00    -0.037 A 
HETATM   21  C   UNK N   1      20.429  17.611   3.355  0.00  0.00     0.026 A 
HETATM   22  C   UNK N   1      19.896  17.596   2.065  0.00  0.00     0.088 A 
HETATM   23  N   UNK N   1      20.102  18.650   1.228  0.00  0.00    -0.375 N 
HETATM   24  C   UNK N   1      20.820  19.738   1.621  0.00  0.00     0.088 A 
ATOM     25  HN  UNK N   1      19.711  18.625   0.286  1.00  0.00     0.164 HD
HETATM   26  C   UNK N   1      21.362  19.792   2.906  0.00  0.00     0.026 A 
ENDBRANCH  19  20
ENDBRANCH   5  19
BRANCH   6  27
HETATM   27  C   UNK N   1      20.235  17.157   7.469  0.00  0.00     0.257 C 
BRANCH  27  28
HETATM   28  O   UNK N   1      20.435  18.223   8.316  0.00  0.00    -0.297 OA
BRANCH  28  29
HETATM   29  C   UNK N   1      19.547  18.541   9.290  0.00  0.00     0.358 C 
HETATM   30  N   UNK N   1      18.338  17.941   9.349  0.00  0.00    -0.346 N 
HETATM   31  H   UNK N   1      17.430  18.289   9.508  0.00  0.00     0.161 HD
HETATM   32  H   UNK N   1      18.370  16.968   9.207  0.00  0.00     0.161 HD
HETATM   33  O   UNK N   1      19.850  19.368  10.133  0.00  0.00    -0.239 OA
ENDBRANCH  28  29
ENDBRANCH  27  28
ENDBRANCH   6  27
TORSDOF 8
ENDMDL
MODEL 3
REMARK VINA RESULT:      -6.9      3.876      5.713
REMARK  8 active torsions:
REMARK  status: ('A' for Active; 'I' for Inactive)
REMARK    1  A    between atoms: C_3  and  C_16 
REMARK    2  A    between atoms: C_4  and  S_8 
REMARK    3  A    between atoms: N_5  and  C_19 
REMARK    4  A    between atoms: C_6  and  C_27 
REMARK    5  A    between atoms: C_7  and  S_8 
REMARK    6  A    between atoms: C_19  and  C_20 
REMARK    7  A    between atoms: C_27  and  O_28 
REMARK    8  A    between atoms: O_28  and  C_29 
REMARK       I    between atoms: C_29  and  N_30 
ROOT
HETATM    1  N   UNK N   1      22.983  20.091   3.301  0.00  0.00    -0.345 N 
ATOM      2  HN  UNK N   1      23.137  20.985   2.834  1.00  0.00     0.167 HD
HETATM    3  C   UNK N   1      23.921  19.237   3.770  0.00  0.00     0.048 A 
HETATM    4  C   UNK N   1      23.291  18.136   4.325  0.00  0.00     0.102 A 
HETATM    5  N   UNK N   1      21.956  18.320   4.230  0.00  0.00    -0.323 N 
HETATM    6  C   UNK N   1      21.801  19.507   3.585  0.00  0.00     0.110 A 
ENDROOT
BRANCH   4   7
HETATM    7  S   UNK N   1      24.118  16.752   5.176  0.00  0.00    -0.070 SA
BRANCH   7   8
HETATM    8  C   UNK N   1      24.887  15.829   3.814  0.00  0.00     0.010 A 
HETATM    9  C   UNK N   1      24.088  15.235   2.826  0.00  0.00     0.042 A 
HETATM   10  C   UNK N   1      24.682  14.648   1.695  0.00  0.00     0.036 A 
HETATM   11 Cl   UNK N   1      23.691  13.942   0.437  0.00  0.00    -0.084 Cl
HETATM   12  C   UNK N   1      26.073  14.660   1.547  0.00  0.00     0.047 A 
HETATM   13  C   UNK N   1      26.869  15.260   2.521  0.00  0.00     0.036 A 
HETATM   14 Cl   UNK N   1      28.609  15.298   2.340  0.00  0.00    -0.084 Cl
HETATM   15  C   UNK N   1      26.273  15.857   3.631  0.00  0.00     0.042 A 
ENDBRANCH   7   8
ENDBRANCH   4   7
BRANCH   3  16
HETATM   16  C   UNK N   1      25.400  19.517   3.757  0.00  0.00     0.030 C 
HETATM   17  C   UNK N   1      25.749  20.561   2.716  0.00  0.00     0.016 C 
HETATM   18  C   UNK N   1      25.911  19.971   5.116  0.00  0.00     0.016 C 
ENDBRANCH   3  16
BRANCH   5  19
HETATM   19  C   UNK N   1      20.954  17.430   4.819  0.00  0.00     0.170 C 
BRANCH  19  20
HETATM   20  C   UNK N   1      20.335  16.414   3.921  0.00  0.00    -0.037 A 
HETATM   21  C   UNK N   1      20.538  16.482   2.541  0.00  0.00     0.026 A 
HETATM   22  C   UNK N   1      20.035  15.465   1.727  0.00  0.00     0.088 A 
HETATM   23  N   UNK N   1      19.364  14.416   2.278  0.00  0.00    -0.375 N 
HETATM   24  C   UNK N   1      19.170  14.326   3.622  0.00  0.00     0.088 A 
ATOM     25  HN  UNK N   1      18.998  13.682   1.671  1.00  0.00     0.164 HD
HETATM   26  C   UNK N   1      19.664  15.320   4.469  0.00  0.00     0.026 A 
ENDBRANCH  19  20
ENDBRANCH   5  19
BRANCH   6  27
HETATM   27  C   UNK N   1      20.488  20.138   3.255  0.00  0.00     0.257 C 
BRANCH  27  28
HETATM   28  O   UNK N   1      20.211  20.006   1.913  0.00  0.00    -0.297 OA
BRANCH  28  29
HETATM   29  C   UNK N   1      20.641  20.911   1.000  0.00  0.00     0.358 C 
HETATM   30  N   UNK N   1      20.025  22.106   0.865  0.00  0.00    -0.346 N 
HETATM   31  H   UNK N   1      19.747  22.625   0.076  0.00  0.00     0.161 HD
HETATM   32  H   UNK N   1      19.814  22.543   1.721  0.00  0.00     0.161 HD
HETATM   33  O   UNK N   1      21.606  20.650   0.303  0.00  0.00    -0.239 OA
ENDBRANCH  28  29
ENDBRANCH  27  28
ENDBRANCH   6  27
TORSDOF 8
ENDMDL
MODEL 4
REMARK VINA RESULT:      -6.9      4.785      6.607
REMARK  8 active torsions:
REMARK  status: ('A' for Active; 'I' for Inactive)
REMARK    1  A    between atoms: C_3  and  C_16 
REMARK    2  A    between atoms: C_4  and  S_8 
REMARK    3  A    between atoms: N_5  and  C_19 
REMARK    4  A    between atoms: C_6  and  C_27 
REMARK    5  A    between atoms: C_7  and  S_8 
REMARK    6  A    between atoms: C_19  and  C_20 
REMARK    7  A    between atoms: C_27  and  O_28 
REMARK    8  A    between atoms: O_28  and  C_29 
REMARK       I    between atoms: C_29  and  N_30 
ROOT
HETATM    1  N   UNK N   1      27.382  19.882   7.095  0.00  0.00    -0.345 N 
ATOM      2  HN  UNK N   1      26.972  20.631   7.652  1.00  0.00     0.167 HD
HETATM    3  C   UNK N   1      28.076  18.811   7.543  0.00  0.00     0.048 A 
HETATM    4  C   UNK N   1      28.465  18.041   6.459  0.00  0.00     0.102 A 
HETATM    5  N   UNK N   1      27.985  18.618   5.336  0.00  0.00    -0.323 N 
HETATM    6  C   UNK N   1      27.350  19.745   5.754  0.00  0.00     0.110 A 
ENDROOT
BRANCH   4   7
HETATM    7  S   UNK N   1      29.339  16.443   6.548  0.00  0.00    -0.070 SA
BRANCH   7   8
HETATM    8  C   UNK N   1      31.032  16.869   6.046  0.00  0.00     0.010 A 
HETATM    9  C   UNK N   1      31.950  17.346   6.993  0.00  0.00     0.042 A 
HETATM   10  C   UNK N   1      33.297  17.536   6.638  0.00  0.00     0.036 A 
HETATM   11 Cl   UNK N   1      34.457  18.090   7.826  0.00  0.00    -0.084 Cl
HETATM   12  C   UNK N   1      33.729  17.242   5.342  0.00  0.00     0.047 A 
HETATM   13  C   UNK N   1      32.822  16.758   4.401  0.00  0.00     0.036 A 
HETATM   14 Cl   UNK N   1      33.354  16.370   2.779  0.00  0.00    -0.084 Cl
HETATM   15  C   UNK N   1      31.491  16.553   4.763  0.00  0.00     0.042 A 
ENDBRANCH   7   8
ENDBRANCH   4   7
BRANCH   3  16
HETATM   16  C   UNK N   1      28.288  18.491   8.998  0.00  0.00     0.030 C 
HETATM   17  C   UNK N   1      27.832  17.082   9.319  0.00  0.00     0.016 C 
HETATM   18  C   UNK N   1      29.739  18.658   9.419  0.00  0.00     0.016 C 
ENDBRANCH   3  16
BRANCH   5  19
HETATM   19  C   UNK N   1      28.082  18.031   3.998  0.00  0.00     0.170 C 
BRANCH  19  20
HETATM   20  C   UNK N   1      27.176  16.887   3.691  0.00  0.00    -0.037 A 
HETATM   21  C   UNK N   1      27.671  15.755   3.040  0.00  0.00     0.026 A 
HETATM   22  C   UNK N   1      26.833  14.654   2.853  0.00  0.00     0.088 A 
HETATM   23  N   UNK N   1      25.551  14.686   3.310  0.00  0.00    -0.375 N 
HETATM   24  C   UNK N   1      25.056  15.774   3.959  0.00  0.00     0.088 A 
ATOM     25  HN  UNK N   1      24.948  13.876   3.162  1.00  0.00     0.164 HD
HETATM   26  C   UNK N   1      25.866  16.891   4.172  0.00  0.00     0.026 A 
ENDBRANCH  19  20
ENDBRANCH   5  19
BRANCH   6  27
HETATM   27  C   UNK N   1      26.650  20.715   4.859  0.00  0.00     0.257 C 
BRANCH  27  28
HETATM   28  O   UNK N   1      25.438  20.209   4.448  0.00  0.00    -0.297 OA
BRANCH  28  29
HETATM   29  C   UNK N   1      24.924  20.486   3.225  0.00  0.00     0.358 C 
HETATM   30  N   UNK N   1      23.590  20.463   3.012  0.00  0.00    -0.346 N 
HETATM   31  H   UNK N   1      23.039  20.092   2.284  0.00  0.00     0.161 HD
HETATM   32  H   UNK N   1      23.067  20.901   3.721  0.00  0.00     0.161 HD
HETATM   33  O   UNK N   1      25.674  20.776   2.309  0.00  0.00    -0.239 OA
ENDBRANCH  28  29
ENDBRANCH  27  28
ENDBRANCH   6  27
TORSDOF 8
ENDMDL
MODEL 5
REMARK VINA RESULT:      -6.9      4.023      6.488
REMARK  8 active torsions:
REMARK  status: ('A' for Active; 'I' for Inactive)
REMARK    1  A    between atoms: C_3  and  C_16 
REMARK    2  A    between atoms: C_4  and  S_8 
REMARK    3  A    between atoms: N_5  and  C_19 
REMARK    4  A    between atoms: C_6  and  C_27 
REMARK    5  A    between atoms: C_7  and  S_8 
REMARK    6  A    between atoms: C_19  and  C_20 
REMARK    7  A    between atoms: C_27  and  O_28 
REMARK    8  A    between atoms: O_28  and  C_29 
REMARK       I    between atoms: C_29  and  N_30 
ROOT
HETATM    1  N   UNK N   1      19.763  16.571   3.193  0.00  0.00    -0.345 N 
ATOM      2  HN  UNK N   1      19.028  16.586   2.487  1.00  0.00     0.167 HD
HETATM    3  C   UNK N   1      20.273  15.490   3.825  0.00  0.00     0.048 A 
HETATM    4  C   UNK N   1      21.249  15.907   4.715  0.00  0.00     0.102 A 
HETATM    5  N   UNK N   1      21.368  17.249   4.614  0.00  0.00    -0.323 N 
HETATM    6  C   UNK N   1      20.439  17.624   3.696  0.00  0.00     0.110 A 
ENDROOT
BRANCH   4   7
HETATM    7  S   UNK N   1      22.297  14.817   5.733  0.00  0.00    -0.070 SA
BRANCH   7   8
HETATM    8  C   UNK N   1      21.458  14.821   7.344  0.00  0.00     0.010 A 
HETATM    9  C   UNK N   1      20.429  15.739   7.600  0.00  0.00     0.042 A 
HETATM   10  C   UNK N   1      19.681  15.649   8.787  0.00  0.00     0.036 A 
HETATM   11 Cl   UNK N   1      18.368  16.764   9.095  0.00  0.00    -0.084 Cl
HETATM   12  C   UNK N   1      19.954  14.638   9.714  0.00  0.00     0.047 A 
HETATM   13  C   UNK N   1      20.969  13.717   9.457  0.00  0.00     0.036 A 
HETATM   14 Cl   UNK N   1      21.310  12.436  10.600  0.00  0.00    -0.084 Cl
HETATM   15  C   UNK N   1      21.695  13.800   8.269  0.00  0.00     0.042 A 
ENDBRANCH   7   8
ENDBRANCH   4   7
BRANCH   3  16
HETATM   16  C   UNK N   1      19.885  14.069   3.515  0.00  0.00     0.030 C 
HETATM   17  C   UNK N   1      18.909  13.533   4.543  0.00  0.00     0.016 C 
HETATM   18  C   UNK N   1      19.281  13.928   2.127  0.00  0.00     0.016 C 
ENDBRANCH   3  16
BRANCH   5  19
HETATM   19  C   UNK N   1      22.386  18.043   5.306  0.00  0.00     0.170 C 
BRANCH  19  20
HETATM   20  C   UNK N   1      23.681  18.253   4.598  0.00  0.00    -0.037 A 
HETATM   21  C   UNK N   1      23.869  19.383   3.799  0.00  0.00     0.026 A 
HETATM   22  C   UNK N   1      25.121  19.614   3.228  0.00  0.00     0.088 A 
HETATM   23  N   UNK N   1      26.148  18.750   3.457  0.00  0.00    -0.375 N 
HETATM   24  C   UNK N   1      25.987  17.651   4.244  0.00  0.00     0.088 A 
ATOM     25  HN  UNK N   1      27.056  18.928   3.029  1.00  0.00     0.164 HD
HETATM   26  C   UNK N   1      24.752  17.390   4.839  0.00  0.00     0.026 A 
ENDBRANCH  19  20
ENDBRANCH   5  19
BRANCH   6  27
HETATM   27  C   UNK N   1      20.200  19.028   3.244  0.00  0.00     0.257 C 
BRANCH  27  28
HETATM   28  O   UNK N   1      20.829  19.265   2.044  0.00  0.00    -0.297 OA
BRANCH  28  29
HETATM   29  C   UNK N   1      20.985  20.518   1.551  0.00  0.00     0.358 C 
HETATM   30  N   UNK N   1      20.457  20.865   0.357  0.00  0.00    -0.346 N 
HETATM   31  H   UNK N   1      20.816  21.376  -0.405  0.00  0.00     0.161 HD
HETATM   32  H   UNK N   1      19.536  20.546   0.222  0.00  0.00     0.161 HD
HETATM   33  O   UNK N   1      21.596  21.348   2.203  0.00  0.00    -0.239 OA
ENDBRANCH  28  29
ENDBRANCH  27  28
ENDBRANCH   6  27
TORSDOF 8
ENDMDL
MODEL 6
REMARK VINA RESULT:      -6.8      7.123      9.909
REMARK  8 active torsions:
REMARK  status: ('A' for Active; 'I' for Inactive)
REMARK    1  A    between atoms: C_3  and  C_16 
REMARK    2  A    between atoms: C_4  and  S_8 
REMARK    3  A    between atoms: N_5  and  C_19 
REMARK    4  A    between atoms: C_6  and  C_27 
REMARK    5  A    between atoms: C_7  and  S_8 
REMARK    6  A    between atoms: C_19  and  C_20 
REMARK    7  A    between atoms: C_27  and  O_28 
REMARK    8  A    between atoms: O_28  and  C_29 
REMARK       I    between atoms: C_29  and  N_30 
ROOT
HETATM    1  N   UNK N   1      31.135  17.300   7.763  0.00  0.00    -0.345 N 
ATOM      2  HN  UNK N   1      31.429  17.314   8.740  1.00  0.00     0.167 HD
HETATM    3  C   UNK N   1      29.880  17.442   7.281  0.00  0.00     0.048 A 
HETATM    4  C   UNK N   1      29.915  17.353   5.899  0.00  0.00     0.102 A 
HETATM    5  N   UNK N   1      31.200  17.186   5.519  0.00  0.00    -0.323 N 
HETATM    6  C   UNK N   1      31.914  17.138   6.675  0.00  0.00     0.110 A 
ENDROOT
BRANCH   4   7
HETATM    7  S   UNK N   1      28.492  17.577   4.782  0.00  0.00    -0.070 SA
BRANCH   7   8
HETATM    8  C   UNK N   1      27.707  15.939   4.777  0.00  0.00     0.010 A 
HETATM    9  C   UNK N   1      27.049  15.469   5.923  0.00  0.00     0.042 A 
HETATM   10  C   UNK N   1      26.317  14.270   5.875  0.00  0.00     0.036 A 
HETATM   11 Cl   UNK N   1      25.459  13.698   7.290  0.00  0.00    -0.084 Cl
HETATM   12  C   UNK N   1      26.235  13.545   4.683  0.00  0.00     0.047 A 
HETATM   13  C   UNK N   1      26.878  14.015   3.539  0.00  0.00     0.036 A 
HETATM   14 Cl   UNK N   1      26.769  13.126   2.035  0.00  0.00    -0.084 Cl
HETATM   15  C   UNK N   1      27.587  15.215   3.587  0.00  0.00     0.042 A 
ENDBRANCH   7   8
ENDBRANCH   4   7
BRANCH   3  16
HETATM   16  C   UNK N   1      28.677  17.742   8.134  0.00  0.00     0.030 C 
HETATM   17  C   UNK N   1      28.987  17.548   9.604  0.00  0.00     0.016 C 
HETATM   18  C   UNK N   1      28.152  19.152   7.913  0.00  0.00     0.016 C 
ENDBRANCH   3  16
BRANCH   5  19
HETATM   19  C   UNK N   1      31.657  17.176   4.128  0.00  0.00     0.170 C 
BRANCH  19  20
HETATM   20  C   UNK N   1      32.131  15.875   3.577  0.00  0.00    -0.037 A 
HETATM   21  C   UNK N   1      31.226  14.835   3.356  0.00  0.00     0.026 A 
HETATM   22  C   UNK N   1      31.671  13.661   2.746  0.00  0.00     0.088 A 
HETATM   23  N   UNK N   1      32.972  13.540   2.363  0.00  0.00    -0.375 N 
HETATM   24  C   UNK N   1      33.865  14.549   2.557  0.00  0.00     0.088 A 
ATOM     25  HN  UNK N   1      33.285  12.675   1.922  1.00  0.00     0.164 HD
HETATM   26  C   UNK N   1      33.456  15.740   3.157  0.00  0.00     0.026 A 
ENDBRANCH  19  20
ENDBRANCH   5  19
BRANCH   6  27
HETATM   27  C   UNK N   1      33.396  16.970   6.760  0.00  0.00     0.257 C 
BRANCH  27  28
HETATM   28  O   UNK N   1      33.999  18.155   7.113  0.00  0.00    -0.297 OA
BRANCH  28  29
HETATM   29  C   UNK N   1      34.560  18.338   8.334  0.00  0.00     0.358 C 
HETATM   30  N   UNK N   1      34.322  17.472   9.343  0.00  0.00    -0.346 N 
HETATM   31  H   UNK N   1      34.114  17.603  10.296  0.00  0.00     0.161 HD
HETATM   32  H   UNK N   1      34.366  16.526   9.073  0.00  0.00     0.161 HD
HETATM   33  O   UNK N   1      35.302  19.288   8.518  0.00  0.00    -0.239 OA
ENDBRANCH  28  29
ENDBRANCH  27  28
ENDBRANCH   6  27
TORSDOF 8
ENDMDL
MODEL 7
REMARK VINA RESULT:      -6.8      3.765      4.788
REMARK  8 active torsions:
REMARK  status: ('A' for Active; 'I' for Inactive)
REMARK    1  A    between atoms: C_3  and  C_16 
REMARK    2  A    between atoms: C_4  and  S_8 
REMARK    3  A    between atoms: N_5  and  C_19 
REMARK    4  A    between atoms: C_6  and  C_27 
REMARK    5  A    between atoms: C_7  and  S_8 
REMARK    6  A    between atoms: C_19  and  C_20 
REMARK    7  A    between atoms: C_27  and  O_28 
REMARK    8  A    between atoms: O_28  and  C_29 
REMARK       I    between atoms: C_29  and  N_30 
ROOT
HETATM    1  N   UNK N   1      21.202  14.839   6.860  0.00  0.00    -0.345 N 
ATOM      2  HN  UNK N   1      20.643  14.166   7.384  1.00  0.00     0.167 HD
HETATM    3  C   UNK N   1      22.288  14.586   6.096  0.00  0.00     0.048 A 
HETATM    4  C   UNK N   1      22.754  15.779   5.567  0.00  0.00     0.102 A 
HETATM    5  N   UNK N   1      21.937  16.772   5.979  0.00  0.00    -0.323 N 
HETATM    6  C   UNK N   1      21.016  16.172   6.779  0.00  0.00     0.110 A 
ENDROOT
BRANCH   4   7
HETATM    7  S   UNK N   1      24.139  15.955   4.394  0.00  0.00    -0.070 SA
BRANCH   7   8
HETATM    8  C   UNK N   1      23.506  15.167   2.885  0.00  0.00     0.010 A 
HETATM    9  C   UNK N   1      24.214  14.112   2.290  0.00  0.00     0.042 A 
HETATM   10  C   UNK N   1      23.655  13.405   1.211  0.00  0.00     0.036 A 
HETATM   11 Cl   UNK N   1      24.513  12.061   0.491  0.00  0.00    -0.084 Cl
HETATM   12  C   UNK N   1      22.386  13.746   0.731  0.00  0.00     0.047 A 
HETATM   13  C   UNK N   1      21.675  14.786   1.328  0.00  0.00     0.036 A 
HETATM   14 Cl   UNK N   1      20.079  15.212   0.748  0.00  0.00    -0.084 Cl
HETATM   15  C   UNK N   1      22.227  15.471   2.410  0.00  0.00     0.042 A 
ENDBRANCH   7   8
ENDBRANCH   4   7
BRANCH   3  16
HETATM   16  C   UNK N   1      22.819  13.207   5.811  0.00  0.00     0.030 C 
HETATM   17  C   UNK N   1      22.934  12.394   7.084  0.00  0.00     0.016 C 
HETATM   18  C   UNK N   1      21.958  12.455   4.809  0.00  0.00     0.016 C 
ENDBRANCH   3  16
BRANCH   5  19
HETATM   19  C   UNK N   1      22.029  18.162   5.525  0.00  0.00     0.170 C 
BRANCH  19  20
HETATM   20  C   UNK N   1      21.370  18.500   4.232  0.00  0.00    -0.037 A 
HETATM   21  C   UNK N   1      20.167  17.885   3.876  0.00  0.00     0.026 A 
HETATM   22  C   UNK N   1      19.513  18.289   2.710  0.00  0.00     0.088 A 
HETATM   23  N   UNK N   1      20.041  19.278   1.938  0.00  0.00    -0.375 N 
HETATM   24  C   UNK N   1      21.204  19.898   2.277  0.00  0.00     0.088 A 
ATOM     25  HN  UNK N   1      19.555  19.560   1.087  1.00  0.00     0.164 HD
HETATM   26  C   UNK N   1      21.883  19.527   3.438  0.00  0.00     0.026 A 
ENDBRANCH  19  20
ENDBRANCH   5  19
BRANCH   6  27
HETATM   27  C   UNK N   1      19.891  16.874   7.466  0.00  0.00     0.257 C 
BRANCH  27  28
HETATM   28  O   UNK N   1      20.334  17.492   8.613  0.00  0.00    -0.297 OA
BRANCH  28  29
HETATM   29  C   UNK N   1      19.547  18.339   9.321  0.00  0.00     0.358 C 
HETATM   30  N   UNK N   1      18.223  18.107   9.456  0.00  0.00    -0.346 N 
HETATM   31  H   UNK N   1      17.435  18.693   9.390  0.00  0.00     0.161 HD
HETATM   32  H   UNK N   1      18.003  17.169   9.659  0.00  0.00     0.161 HD
HETATM   33  O   UNK N   1      20.044  19.316   9.856  0.00  0.00    -0.239 OA
ENDBRANCH  28  29
ENDBRANCH  27  28
ENDBRANCH   6  27
TORSDOF 8
ENDMDL
MODEL 8
REMARK VINA RESULT:      -6.7     13.939     16.034
REMARK  8 active torsions:
REMARK  status: ('A' for Active; 'I' for Inactive)
REMARK    1  A    between atoms: C_3  and  C_16 
REMARK    2  A    between atoms: C_4  and  S_8 
REMARK    3  A    between atoms: N_5  and  C_19 
REMARK    4  A    between atoms: C_6  and  C_27 
REMARK    5  A    between atoms: C_7  and  S_8 
REMARK    6  A    between atoms: C_19  and  C_20 
REMARK    7  A    between atoms: C_27  and  O_28 
REMARK    8  A    between atoms: O_28  and  C_29 
REMARK       I    between atoms: C_29  and  N_30 
ROOT
HETATM    1  N   UNK N   1      26.908  24.185  -8.348  0.00  0.00    -0.345 N 
ATOM      2  HN  UNK N   1      27.287  23.832  -9.226  1.00  0.00     0.167 HD
HETATM    3  C   UNK N   1      27.070  23.658  -7.113  0.00  0.00     0.048 A 
HETATM    4  C   UNK N   1      26.382  24.438  -6.197  0.00  0.00     0.102 A 
HETATM    5  N   UNK N   1      25.817  25.470  -6.860  0.00  0.00    -0.323 N 
HETATM    6  C   UNK N   1      26.137  25.277  -8.167  0.00  0.00     0.110 A 
ENDROOT
BRANCH   4   7
HETATM    7  S   UNK N   1      26.373  24.197  -4.390  0.00  0.00    -0.070 SA
BRANCH   7   8
HETATM    8  C   UNK N   1      28.088  24.561  -3.915  0.00  0.00     0.010 A 
HETATM    9  C   UNK N   1      28.913  23.541  -3.418  0.00  0.00     0.042 A 
HETATM   10  C   UNK N   1      30.278  23.785  -3.189  0.00  0.00     0.036 A 
HETATM   11 Cl   UNK N   1      31.323  22.506  -2.610  0.00  0.00    -0.084 Cl
HETATM   12  C   UNK N   1      30.822  25.044  -3.463  0.00  0.00     0.047 A 
HETATM   13  C   UNK N   1      30.007  26.056  -3.968  0.00  0.00     0.036 A 
HETATM   14 Cl   UNK N   1      30.677  27.632  -4.332  0.00  0.00    -0.084 Cl
HETATM   15  C   UNK N   1      28.657  25.803  -4.211  0.00  0.00     0.042 A 
ENDBRANCH   7   8
ENDBRANCH   4   7
BRANCH   3  16
HETATM   16  C   UNK N   1      27.943  22.471  -6.809  0.00  0.00     0.030 C 
HETATM   17  C   UNK N   1      27.657  21.326  -7.759  0.00  0.00     0.016 C 
HETATM   18  C   UNK N   1      29.423  22.815  -6.867  0.00  0.00     0.016 C 
ENDBRANCH   3  16
BRANCH   5  19
HETATM   19  C   UNK N   1      25.112  26.580  -6.216  0.00  0.00     0.170 C 
BRANCH  19  20
HETATM   20  C   UNK N   1      25.948  27.635  -5.575  0.00  0.00    -0.037 A 
HETATM   21  C   UNK N   1      27.001  28.220  -6.281  0.00  0.00     0.026 A 
HETATM   22  C   UNK N   1      27.707  29.276  -5.701  0.00  0.00     0.088 A 
HETATM   23  N   UNK N   1      27.362  29.733  -4.466  0.00  0.00    -0.375 N 
HETATM   24  C   UNK N   1      26.329  29.185  -3.770  0.00  0.00     0.088 A 
ATOM     25  HN  UNK N   1      27.889  30.502  -4.053  1.00  0.00     0.164 HD
HETATM   26  C   UNK N   1      25.595  28.132  -4.319  0.00  0.00     0.026 A 
ENDBRANCH  19  20
ENDBRANCH   5  19
BRANCH   6  27
HETATM   27  C   UNK N   1      25.734  26.176  -9.290  0.00  0.00     0.257 C 
BRANCH  27  28
HETATM   28  O   UNK N   1      24.781  25.572 -10.077  0.00  0.00    -0.297 OA
BRANCH  28  29
HETATM   29  C   UNK N   1      24.730  25.767 -11.417  0.00  0.00     0.358 C 
HETATM   30  N   UNK N   1      25.445  26.752 -12.003  0.00  0.00    -0.346 N 
HETATM   31  H   UNK N   1      25.221  27.415 -12.696  0.00  0.00     0.161 HD
HETATM   32  H   UNK N   1      26.369  26.822 -11.672  0.00  0.00     0.161 HD
HETATM   33  O   UNK N   1      24.040  25.034 -12.106  0.00  0.00    -0.239 OA
ENDBRANCH  28  29
ENDBRANCH  27  28
ENDBRANCH   6  27
TORSDOF 8
ENDMDL
MODEL 9
REMARK VINA RESULT:      -6.7      4.822      8.384
REMARK  8 active torsions:
REMARK  status: ('A' for Active; 'I' for Inactive)
REMARK    1  A    between atoms: C_3  and  C_16 
REMARK    2  A    between atoms: C_4  and  S_8 
REMARK    3  A    between atoms: N_5  and  C_19 
REMARK    4  A    between atoms: C_6  and  C_27 
REMARK    5  A    between atoms: C_7  and  S_8 
REMARK    6  A    between atoms: C_19  and  C_20 
REMARK    7  A    between atoms: C_27  and  O_28 
REMARK    8  A    between atoms: O_28  and  C_29 
REMARK       I    between atoms: C_29  and  N_30 
ROOT
HETATM    1  N   UNK N   1      27.207  19.368   5.775  0.00  0.00    -0.345 N 
ATOM      2  HN  UNK N   1      26.779  20.257   6.034  1.00  0.00     0.167 HD
HETATM    3  C   UNK N   1      26.968  18.633   4.666  0.00  0.00     0.048 A 
HETATM    4  C   UNK N   1      27.751  17.491   4.705  0.00  0.00     0.102 A 
HETATM    5  N   UNK N   1      28.502  17.531   5.827  0.00  0.00    -0.323 N 
HETATM    6  C   UNK N   1      28.134  18.673   6.465  0.00  0.00     0.110 A 
ENDROOT
BRANCH   4   7
HETATM    7  S   UNK N   1      27.860  16.230   3.392  0.00  0.00    -0.070 SA
BRANCH   7   8
HETATM    8  C   UNK N   1      26.225  15.441   3.439  0.00  0.00     0.010 A 
HETATM    9  C   UNK N   1      25.558  15.271   4.662  0.00  0.00     0.042 A 
HETATM   10  C   UNK N   1      24.235  14.796   4.685  0.00  0.00     0.036 A 
HETATM   11 Cl   UNK N   1      23.383  14.622   6.204  0.00  0.00    -0.084 Cl
HETATM   12  C   UNK N   1      23.575  14.499   3.489  0.00  0.00     0.047 A 
HETATM   13  C   UNK N   1      24.230  14.678   2.272  0.00  0.00     0.036 A 
HETATM   14 Cl   UNK N   1      23.409  14.326   0.766  0.00  0.00    -0.084 Cl
HETATM   15  C   UNK N   1      25.536  15.167   2.254  0.00  0.00     0.042 A 
ENDBRANCH   7   8
ENDBRANCH   4   7
BRANCH   3  16
HETATM   16  C   UNK N   1      26.061  19.066   3.545  0.00  0.00     0.030 C 
HETATM   17  C   UNK N   1      24.607  18.831   3.898  0.00  0.00     0.016 C 
HETATM   18  C   UNK N   1      26.260  20.528   3.176  0.00  0.00     0.016 C 
ENDBRANCH   3  16
BRANCH   5  19
HETATM   19  C   UNK N   1      29.547  16.560   6.157  0.00  0.00     0.170 C 
BRANCH  19  20
HETATM   20  C   UNK N   1      30.961  16.994   5.968  0.00  0.00    -0.037 A 
HETATM   21  C   UNK N   1      31.809  17.123   7.070  0.00  0.00     0.026 A 
HETATM   22  C   UNK N   1      33.155  17.431   6.863  0.00  0.00     0.088 A 
HETATM   23  N   UNK N   1      33.633  17.592   5.599  0.00  0.00    -0.375 N 
HETATM   24  C   UNK N   1      32.825  17.456   4.512  0.00  0.00     0.088 A 
ATOM     25  HN  UNK N   1      34.618  17.821   5.462  1.00  0.00     0.164 HD
HETATM   26  C   UNK N   1      31.475  17.141   4.678  0.00  0.00     0.026 A 
ENDBRANCH  19  20
ENDBRANCH   5  19
BRANCH   6  27
HETATM   27  C   UNK N   1      28.704  19.151   7.760  0.00  0.00     0.257 C 
BRANCH  27  28
HETATM   28  O   UNK N   1      27.970  18.671   8.820  0.00  0.00    -0.297 OA
BRANCH  28  29
HETATM   29  C   UNK N   1      28.350  17.570   9.515  0.00  0.00     0.358 C 
HETATM   30  N   UNK N   1      29.592  17.475  10.038  0.00  0.00    -0.346 N 
HETATM   31  H   UNK N   1      30.250  16.743  10.060  0.00  0.00     0.161 HD
HETATM   32  H   UNK N   1      29.899  18.297  10.485  0.00  0.00     0.161 HD
HETATM   33  O   UNK N   1      27.556  16.661   9.683  0.00  0.00    -0.239 OA
ENDBRANCH  28  29
ENDBRANCH  27  28
ENDBRANCH   6  27
TORSDOF 8
ENDMDL
