REMARK  3 active torsions:
REMARK  status: ('A' for Active; 'I' for Inactive)
REMARK    1  A    between atoms: C_1  and  C_3 
REMARK    2  A    between atoms: C_1  and  O_6 
REMARK    3  A    between atoms: N_2  and  C_3 
ROOT
HETATM    1  C   UNK N   1       1.185  -0.158   0.000  0.00  0.00     0.157 C 
HETATM    2  O   UNK N   1       1.107   1.063  -0.000  0.00  0.00    -0.649 OA
ENDROOT
BRANCH   1   3
HETATM    3  C   UNK N   1      -0.046  -1.010  -0.000  0.00  0.00     0.224 C 
BRANCH   3   4
HETATM    4  N   UNK N   1      -1.258  -0.210  -0.000  0.00  0.00    -0.417 N 
HETATM    5  C   UNK N   1      -2.359  -1.154   0.000  0.00  0.00     0.140 C 
HETATM    6  H   UNK N   1      -1.323   0.808  -0.000  0.00  0.00     0.153 HD
ENDBRANCH   3   4
ENDBRANCH   1   3
BRANCH   1   7
HETATM    7  O   UNK N   1       2.393  -0.748   0.000  0.00  0.00    -0.775 OA
HETATM    8  H   UNK N   1       2.458  -1.682   0.000  0.00  0.00     0.167 HD
ENDBRANCH   1   7
TORSDOF 3
