MODEL 1
REMARK VINA RESULT:      -3.8      0.000      0.000
REMARK  3 active torsions:
REMARK  status: ('A' for Active; 'I' for Inactive)
REMARK    1  A    between atoms: C_1  and  C_3 
REMARK    2  A    between atoms: C_1  and  O_6 
REMARK    3  A    between atoms: N_2  and  C_3 
ROOT
HETATM    1  C   UNK N   1      34.670  18.211   8.146  0.00  0.00     0.157 C 
HETATM    2  O   UNK N   1      34.412  18.113   6.955  0.00  0.00    -0.649 OA
ENDROOT
BRANCH   1   3
HETATM    3  C   UNK N   1      34.256  17.147   9.115  0.00  0.00     0.224 C 
BRANCH   3   4
HETATM    4  N   UNK N   1      34.946  17.275  10.387  0.00  0.00    -0.417 N 
HETATM    5  C   UNK N   1      35.716  16.056  10.547  0.00  0.00     0.140 C 
HETATM    6  H   UNK N   1      34.900  18.061  11.035  0.00  0.00     0.153 HD
ENDBRANCH   3   4
ENDBRANCH   1   3
BRANCH   1   7
HETATM    7  O   UNK N   1      35.336  19.288   8.597  0.00  0.00    -0.775 OA
HETATM    8  H   UNK N   1      35.916  19.208   9.328  0.00  0.00     0.167 HD
ENDBRANCH   1   7
TORSDOF 3
ENDMDL
MODEL 2
REMARK VINA RESULT:      -3.5      1.536      1.988
REMARK  3 active torsions:
REMARK  status: ('A' for Active; 'I' for Inactive)
REMARK    1  A    between atoms: C_1  and  C_3 
REMARK    2  A    between atoms: C_1  and  O_6 
REMARK    3  A    between atoms: N_2  and  C_3 
ROOT
HETATM    1  C   UNK N   1      34.597  18.240   8.068  0.00  0.00     0.157 C 
HETATM    2  O   UNK N   1      34.418  18.147   6.862  0.00  0.00    -0.649 OA
ENDROOT
BRANCH   1   3
HETATM    3  C   UNK N   1      34.031  17.227   9.013  0.00  0.00     0.224 C 
BRANCH   3   4
HETATM    4  N   UNK N   1      32.578  17.241   9.015  0.00  0.00    -0.417 N 
HETATM    5  C   UNK N   1      32.166  15.893   8.673  0.00  0.00     0.140 C 
HETATM    6  H   UNK N   1      31.971  18.036   9.215  0.00  0.00     0.153 HD
ENDBRANCH   3   4
ENDBRANCH   1   3
BRANCH   1   7
HETATM    7  O   UNK N   1      35.314  19.267   8.558  0.00  0.00    -0.775 OA
HETATM    8  H   UNK N   1      35.438  19.353   9.481  0.00  0.00     0.167 HD
ENDBRANCH   1   7
TORSDOF 3
ENDMDL
MODEL 3
REMARK VINA RESULT:      -3.4     16.168     16.490
REMARK  3 active torsions:
REMARK  status: ('A' for Active; 'I' for Inactive)
REMARK    1  A    between atoms: C_1  and  C_3 
REMARK    2  A    between atoms: C_1  and  O_6 
REMARK    3  A    between atoms: N_2  and  C_3 
ROOT
HETATM    1  C   UNK N   1      20.893  20.361   1.197  0.00  0.00     0.157 C 
HETATM    2  O   UNK N   1      21.444  21.183   1.917  0.00  0.00    -0.649 OA
ENDROOT
BRANCH   1   3
HETATM    3  C   UNK N   1      20.501  19.015   1.722  0.00  0.00     0.224 C 
BRANCH   3   4
HETATM    4  N   UNK N   1      20.091  18.116   0.657  0.00  0.00    -0.417 N 
HETATM    5  C   UNK N   1      20.186  16.778   1.207  0.00  0.00     0.140 C 
HETATM    6  H   UNK N   1      19.797  18.373  -0.285  0.00  0.00     0.153 HD
ENDBRANCH   3   4
ENDBRANCH   1   3
BRANCH   1   7
HETATM    7  O   UNK N   1      20.635  20.666  -0.087  0.00  0.00    -0.775 OA
HETATM    8  H   UNK N   1      20.096  21.403  -0.293  0.00  0.00     0.167 HD
ENDBRANCH   1   7
TORSDOF 3
ENDMDL
MODEL 4
REMARK VINA RESULT:      -3.4     13.190     13.677
REMARK  3 active torsions:
REMARK  status: ('A' for Active; 'I' for Inactive)
REMARK    1  A    between atoms: C_1  and  C_3 
REMARK    2  A    between atoms: C_1  and  O_6 
REMARK    3  A    between atoms: N_2  and  C_3 
ROOT
HETATM    1  C   UNK N   1      23.890  12.042  11.960  0.00  0.00     0.157 C 
HETATM    2  O   UNK N   1      23.618  12.012  13.153  0.00  0.00    -0.649 OA
ENDROOT
BRANCH   1   3
HETATM    3  C   UNK N   1      22.883  11.638  10.929  0.00  0.00     0.224 C 
BRANCH   3   4
HETATM    4  N   UNK N   1      21.523  11.875  11.379  0.00  0.00    -0.417 N 
HETATM    5  C   UNK N   1      20.966  12.856  10.467  0.00  0.00     0.140 C 
HETATM    6  H   UNK N   1      21.053  11.441  12.174  0.00  0.00     0.153 HD
ENDBRANCH   3   4
ENDBRANCH   1   3
BRANCH   1   7
HETATM    7  O   UNK N   1      25.111  12.443  11.566  0.00  0.00    -0.775 OA
HETATM    8  H   UNK N   1      25.197  13.121  10.926  0.00  0.00     0.167 HD
ENDBRANCH   1   7
TORSDOF 3
ENDMDL
MODEL 5
REMARK VINA RESULT:      -3.2     12.622     13.106
REMARK  3 active torsions:
REMARK  status: ('A' for Active; 'I' for Inactive)
REMARK    1  A    between atoms: C_1  and  C_3 
REMARK    2  A    between atoms: C_1  and  O_6 
REMARK    3  A    between atoms: N_2  and  C_3 
ROOT
HETATM    1  C   UNK N   1      23.290  11.855  12.823  0.00  0.00     0.157 C 
HETATM    2  O   UNK N   1      23.976  12.394  13.681  0.00  0.00    -0.649 OA
ENDROOT
BRANCH   1   3
HETATM    3  C   UNK N   1      23.645  11.959  11.373  0.00  0.00     0.224 C 
BRANCH   3   4
HETATM    4  N   UNK N   1      24.967  12.528  11.178  0.00  0.00    -0.417 N 
HETATM    5  C   UNK N   1      24.956  13.120   9.854  0.00  0.00     0.140 C 
HETATM    6  H   UNK N   1      25.745  12.514  11.838  0.00  0.00     0.153 HD
ENDBRANCH   3   4
ENDBRANCH   1   3
BRANCH   1   7
HETATM    7  O   UNK N   1      22.200  11.156  13.185  0.00  0.00    -0.775 OA
HETATM    8  H   UNK N   1      21.823  10.536  12.593  0.00  0.00     0.167 HD
ENDBRANCH   1   7
TORSDOF 3
ENDMDL
MODEL 6
REMARK VINA RESULT:      -3.1      2.519      3.221
REMARK  3 active torsions:
REMARK  status: ('A' for Active; 'I' for Inactive)
REMARK    1  A    between atoms: C_1  and  C_3 
REMARK    2  A    between atoms: C_1  and  O_6 
REMARK    3  A    between atoms: N_2  and  C_3 
ROOT
HETATM    1  C   UNK N   1      35.707  16.457  10.583  0.00  0.00     0.157 C 
HETATM    2  O   UNK N   1      35.515  17.625  10.275  0.00  0.00    -0.649 OA
ENDROOT
BRANCH   1   3
HETATM    3  C   UNK N   1      34.584  15.466  10.590  0.00  0.00     0.224 C 
BRANCH   3   4
HETATM    4  N   UNK N   1      33.434  15.946   9.846  0.00  0.00    -0.417 N 
HETATM    5  C   UNK N   1      32.789  14.766   9.302  0.00  0.00     0.140 C 
HETATM    6  H   UNK N   1      33.138  16.916   9.729  0.00  0.00     0.153 HD
ENDBRANCH   3   4
ENDBRANCH   1   3
BRANCH   1   7
HETATM    7  O   UNK N   1      36.943  16.052  10.921  0.00  0.00    -0.775 OA
HETATM    8  H   UNK N   1      37.293  16.267  11.763  0.00  0.00     0.167 HD
ENDBRANCH   1   7
TORSDOF 3
ENDMDL
MODEL 7
REMARK VINA RESULT:      -3.0     11.454     11.615
REMARK  3 active torsions:
REMARK  status: ('A' for Active; 'I' for Inactive)
REMARK    1  A    between atoms: C_1  and  C_3 
REMARK    2  A    between atoms: C_1  and  O_6 
REMARK    3  A    between atoms: N_2  and  C_3 
ROOT
HETATM    1  C   UNK N   1      43.585  22.802   3.919  0.00  0.00     0.157 C 
HETATM    2  O   UNK N   1      44.284  21.930   4.417  0.00  0.00    -0.649 OA
ENDROOT
BRANCH   1   3
HETATM    3  C   UNK N   1      42.771  22.531   2.692  0.00  0.00     0.224 C 
BRANCH   3   4
HETATM    4  N   UNK N   1      42.101  23.727   2.212  0.00  0.00    -0.417 N 
HETATM    5  C   UNK N   1      40.990  23.265   1.403  0.00  0.00     0.140 C 
HETATM    6  H   UNK N   1      42.359  24.695   2.404  0.00  0.00     0.153 HD
ENDBRANCH   3   4
ENDBRANCH   1   3
BRANCH   1   7
HETATM    7  O   UNK N   1      43.544  24.023   4.479  0.00  0.00    -0.775 OA
HETATM    8  H   UNK N   1      42.817  24.590   4.314  0.00  0.00     0.167 HD
ENDBRANCH   1   7
TORSDOF 3
ENDMDL
MODEL 8
REMARK VINA RESULT:      -2.9     16.638     17.110
REMARK  3 active torsions:
REMARK  status: ('A' for Active; 'I' for Inactive)
REMARK    1  A    between atoms: C_1  and  C_3 
REMARK    2  A    between atoms: C_1  and  O_6 
REMARK    3  A    between atoms: N_2  and  C_3 
ROOT
HETATM    1  C   UNK N   1      19.873  16.700   0.862  0.00  0.00     0.157 C 
HETATM    2  O   UNK N   1      20.770  16.006   0.401  0.00  0.00    -0.649 OA
ENDROOT
BRANCH   1   3
HETATM    3  C   UNK N   1      20.030  17.385   2.184  0.00  0.00     0.224 C 
BRANCH   3   4
HETATM    4  N   UNK N   1      19.042  18.433   2.371  0.00  0.00    -0.417 N 
HETATM    5  C   UNK N   1      19.783  19.613   2.772  0.00  0.00     0.140 C 
HETATM    6  H   UNK N   1      18.032  18.356   2.245  0.00  0.00     0.153 HD
ENDBRANCH   3   4
ENDBRANCH   1   3
BRANCH   1   7
HETATM    7  O   UNK N   1      18.728  16.851   0.175  0.00  0.00    -0.775 OA
HETATM    8  H   UNK N   1      18.035  17.373   0.527  0.00  0.00     0.167 HD
ENDBRANCH   1   7
TORSDOF 3
ENDMDL
MODEL 9
REMARK VINA RESULT:      -2.8     10.592     11.133
REMARK  3 active torsions:
REMARK  status: ('A' for Active; 'I' for Inactive)
REMARK    1  A    between atoms: C_1  and  C_3 
REMARK    2  A    between atoms: C_1  and  O_6 
REMARK    3  A    between atoms: N_2  and  C_3 
ROOT
HETATM    1  C   UNK N   1      44.483  22.007   4.331  0.00  0.00     0.157 C 
HETATM    2  O   UNK N   1      43.849  22.640   5.165  0.00  0.00    -0.649 OA
ENDROOT
BRANCH   1   3
HETATM    3  C   UNK N   1      43.816  20.981   3.470  0.00  0.00     0.224 C 
BRANCH   3   4
HETATM    4  N   UNK N   1      42.455  21.359   3.132  0.00  0.00    -0.417 N 
HETATM    5  C   UNK N   1      41.652  20.166   3.319  0.00  0.00     0.140 C 
HETATM    6  H   UNK N   1      42.130  22.276   2.826  0.00  0.00     0.153 HD
ENDBRANCH   3   4
ENDBRANCH   1   3
BRANCH   1   7
HETATM    7  O   UNK N   1      45.800  22.235   4.183  0.00  0.00    -0.775 OA
HETATM    8  H   UNK N   1      46.347  22.327   4.938  0.00  0.00     0.167 HD
ENDBRANCH   1   7
TORSDOF 3
ENDMDL
