MODEL 1
REMARK VINA RESULT:      -5.3      0.000      0.000
REMARK  2 active torsions:
REMARK  status: ('A' for Active; 'I' for Inactive)
REMARK    1  A    between atoms: C_4  and  N_8 
REMARK    2  A    between atoms: C_6  and  N_9 
ROOT
HETATM    1  C   UNK N   1      32.391  17.826   8.397  0.00  0.00     0.038 A 
HETATM    2  C   UNK N   1      31.324  17.414   7.592  0.00  0.00     0.029 A 
HETATM    3  C   UNK N   1      33.905  17.469   6.554  0.00  0.00     0.073 A 
HETATM    4  C   UNK N   1      33.692  17.855   7.878  0.00  0.00     0.105 A 
HETATM    5  C   UNK N   1      31.538  17.027   6.262  0.00  0.00     0.067 A 
HETATM    6  C   UNK N   1      32.856  17.053   5.727  0.00  0.00     0.127 A 
HETATM    7 Cl   UNK N   1      30.128  16.526   5.336  0.00  0.00    -0.082 Cl
ENDROOT
BRANCH   4   8
HETATM    8  N   UNK N   1      34.795  18.269   8.676  0.00  0.00    -0.116 N 
HETATM    9  O   UNK N   1      35.339  19.309   8.452  0.00  0.00    -0.532 OA
HETATM   10  O   UNK N   1      35.184  17.584   9.573  0.00  0.00    -0.532 OA
ENDBRANCH   4   8
BRANCH   6  11
HETATM   11  N   UNK N   1      33.171  16.675   4.382  0.00  0.00    -0.114 N 
HETATM   12  O   UNK N   1      33.739  15.654   4.144  0.00  0.00    -0.532 OA
HETATM   13  O   UNK N   1      32.861  17.392   3.477  0.00  0.00    -0.532 OA
ENDBRANCH   6  11
TORSDOF 2
ENDMDL
MODEL 2
REMARK VINA RESULT:      -5.3     12.095     12.790
REMARK  2 active torsions:
REMARK  status: ('A' for Active; 'I' for Inactive)
REMARK    1  A    between atoms: C_4  and  N_8 
REMARK    2  A    between atoms: C_6  and  N_9 
ROOT
HETATM    1  C   UNK N   1      23.208  11.493   9.416  0.00  0.00     0.038 A 
HETATM    2  C   UNK N   1      22.547  11.771   8.216  0.00  0.00     0.029 A 
HETATM    3  C   UNK N   1      21.919  13.211  10.512  0.00  0.00     0.073 A 
HETATM    4  C   UNK N   1      22.895  12.217  10.574  0.00  0.00     0.105 A 
HETATM    5  C   UNK N   1      21.566  12.770   8.153  0.00  0.00     0.067 A 
HETATM    6  C   UNK N   1      21.241  13.509   9.324  0.00  0.00     0.127 A 
HETATM    7 Cl   UNK N   1      20.794  13.039   6.594  0.00  0.00    -0.082 Cl
ENDROOT
BRANCH   4   8
HETATM    8  N   UNK N   1      23.553  11.954  11.809  0.00  0.00    -0.116 N 
HETATM    9  O   UNK N   1      24.747  11.930  11.857  0.00  0.00    -0.532 OA
HETATM   10  O   UNK N   1      22.920  11.757  12.802  0.00  0.00    -0.532 OA
ENDBRANCH   4   8
BRANCH   6  11
HETATM   11  N   UNK N   1      20.256  14.547   9.355  0.00  0.00    -0.114 N 
HETATM   12  O   UNK N   1      19.156  14.342   9.770  0.00  0.00    -0.532 OA
HETATM   13  O   UNK N   1      20.532  15.640   8.960  0.00  0.00    -0.532 OA
ENDBRANCH   6  11
TORSDOF 2
ENDMDL
MODEL 3
REMARK VINA RESULT:      -5.2     12.128     13.078
REMARK  2 active torsions:
REMARK  status: ('A' for Active; 'I' for Inactive)
REMARK    1  A    between atoms: C_4  and  N_8 
REMARK    2  A    between atoms: C_6  and  N_9 
ROOT
HETATM    1  C   UNK N   1      20.318  18.522   2.102  0.00  0.00     0.038 A 
HETATM    2  C   UNK N   1      19.787  17.424   2.787  0.00  0.00     0.029 A 
HETATM    3  C   UNK N   1      21.495  19.185   4.100  0.00  0.00     0.073 A 
HETATM    4  C   UNK N   1      21.178  19.410   2.760  0.00  0.00     0.105 A 
HETATM    5  C   UNK N   1      20.104  17.197   4.133  0.00  0.00     0.067 A 
HETATM    6  C   UNK N   1      20.977  18.095   4.809  0.00  0.00     0.127 A 
HETATM    7 Cl   UNK N   1      19.382  15.788   4.901  0.00  0.00    -0.082 Cl
ENDROOT
BRANCH   4   8
HETATM    8  N   UNK N   1      21.733  20.535   2.086  0.00  0.00    -0.116 N 
HETATM    9  O   UNK N   1      22.312  21.378   2.704  0.00  0.00    -0.532 OA
HETATM   10  O   UNK N   1      21.623  20.644   0.902  0.00  0.00    -0.532 OA
ENDBRANCH   4   8
BRANCH   6  11
HETATM   11  N   UNK N   1      21.358  17.944   6.180  0.00  0.00    -0.114 N 
HETATM   12  O   UNK N   1      22.038  17.031   6.536  0.00  0.00    -0.532 OA
HETATM   13  O   UNK N   1      20.991  18.744   6.989  0.00  0.00    -0.532 OA
ENDBRANCH   6  11
TORSDOF 2
ENDMDL
MODEL 4
REMARK VINA RESULT:      -5.2      3.196      4.272
REMARK  2 active torsions:
REMARK  status: ('A' for Active; 'I' for Inactive)
REMARK    1  A    between atoms: C_4  and  N_8 
REMARK    2  A    between atoms: C_6  and  N_9 
ROOT
HETATM    1  C   UNK N   1      30.107  17.304   7.091  0.00  0.00     0.038 A 
HETATM    2  C   UNK N   1      31.149  16.999   6.211  0.00  0.00     0.029 A 
HETATM    3  C   UNK N   1      31.718  18.040   8.727  0.00  0.00     0.073 A 
HETATM    4  C   UNK N   1      30.389  17.828   8.359  0.00  0.00     0.105 A 
HETATM    5  C   UNK N   1      32.484  17.212   6.580  0.00  0.00     0.067 A 
HETATM    6  C   UNK N   1      32.780  17.744   7.866  0.00  0.00     0.127 A 
HETATM    7 Cl   UNK N   1      33.720  16.795   5.398  0.00  0.00    -0.082 Cl
ENDROOT
BRANCH   4   8
HETATM    8  N   UNK N   1      29.346  18.147   9.274  0.00  0.00    -0.116 N 
HETATM    9  O   UNK N   1      29.578  18.816  10.237  0.00  0.00    -0.532 OA
HETATM   10  O   UNK N   1      28.236  17.749   9.088  0.00  0.00    -0.532 OA
ENDBRANCH   4   8
BRANCH   6  11
HETATM   11  N   UNK N   1      34.111  17.995   8.330  0.00  0.00    -0.114 N 
HETATM   12  O   UNK N   1      34.520  17.494   9.333  0.00  0.00    -0.532 OA
HETATM   13  O   UNK N   1      34.830  18.717   7.707  0.00  0.00    -0.532 OA
ENDBRANCH   6  11
TORSDOF 2
ENDMDL
MODEL 5
REMARK VINA RESULT:      -5.0     11.997     13.415
REMARK  2 active torsions:
REMARK  status: ('A' for Active; 'I' for Inactive)
REMARK    1  A    between atoms: C_4  and  N_8 
REMARK    2  A    between atoms: C_6  and  N_9 
ROOT
HETATM    1  C   UNK N   1      30.250  22.090  -4.692  0.00  0.00     0.038 A 
HETATM    2  C   UNK N   1      29.443  22.284  -5.817  0.00  0.00     0.029 A 
HETATM    3  C   UNK N   1      28.882  23.643  -3.455  0.00  0.00     0.073 A 
HETATM    4  C   UNK N   1      29.971  22.772  -3.501  0.00  0.00     0.105 A 
HETATM    5  C   UNK N   1      28.349  23.159  -5.772  0.00  0.00     0.067 A 
HETATM    6  C   UNK N   1      28.058  23.856  -4.566  0.00  0.00     0.127 A 
HETATM    7 Cl   UNK N   1      27.398  23.331  -7.243  0.00  0.00    -0.082 Cl
ENDROOT
BRANCH   4   8
HETATM    8  N   UNK N   1      30.777  22.592  -2.342  0.00  0.00    -0.116 N 
HETATM    9  O   UNK N   1      31.800  21.980  -2.413  0.00  0.00    -0.532 OA
HETATM   10  O   UNK N   1      30.437  23.050  -1.293  0.00  0.00    -0.532 OA
ENDBRANCH   4   8
BRANCH   6  11
HETATM   11  N   UNK N   1      26.964  24.768  -4.425  0.00  0.00    -0.114 N 
HETATM   12  O   UNK N   1      26.991  25.849  -4.930  0.00  0.00    -0.532 OA
HETATM   13  O   UNK N   1      26.002  24.448  -3.792  0.00  0.00    -0.532 OA
ENDBRANCH   6  11
TORSDOF 2
ENDMDL
MODEL 6
REMARK VINA RESULT:      -5.0      4.079      4.781
REMARK  2 active torsions:
REMARK  status: ('A' for Active; 'I' for Inactive)
REMARK    1  A    between atoms: C_4  and  N_8 
REMARK    2  A    between atoms: C_6  and  N_9 
ROOT
HETATM    1  C   UNK N   1      35.324  17.168  10.353  0.00  0.00     0.038 A 
HETATM    2  C   UNK N   1      35.292  16.043  11.182  0.00  0.00     0.029 A 
HETATM    3  C   UNK N   1      34.212  15.912   8.622  0.00  0.00     0.073 A 
HETATM    4  C   UNK N   1      34.781  17.106   9.063  0.00  0.00     0.105 A 
HETATM    5  C   UNK N   1      34.721  14.842  10.739  0.00  0.00     0.067 A 
HETATM    6  C   UNK N   1      34.167  14.771   9.430  0.00  0.00     0.127 A 
HETATM    7 Cl   UNK N   1      34.733  13.486  11.860  0.00  0.00    -0.082 Cl
ENDROOT
BRANCH   4   8
HETATM    8  N   UNK N   1      34.801  18.238   8.200  0.00  0.00    -0.116 N 
HETATM    9  O   UNK N   1      35.286  19.265   8.570  0.00  0.00    -0.532 OA
HETATM   10  O   UNK N   1      34.334  18.169   7.103  0.00  0.00    -0.532 OA
ENDBRANCH   4   8
BRANCH   6  11
HETATM   11  N   UNK N   1      33.563  13.589   8.892  0.00  0.00    -0.114 N 
HETATM   12  O   UNK N   1      32.379  13.495   8.784  0.00  0.00    -0.532 OA
HETATM   13  O   UNK N   1      34.252  12.678   8.541  0.00  0.00    -0.532 OA
ENDBRANCH   6  11
TORSDOF 2
ENDMDL
MODEL 7
REMARK VINA RESULT:      -4.9      9.838     11.139
REMARK  2 active torsions:
REMARK  status: ('A' for Active; 'I' for Inactive)
REMARK    1  A    between atoms: C_4  and  N_8 
REMARK    2  A    between atoms: C_6  and  N_9 
ROOT
HETATM    1  C   UNK N   1      35.153  11.371  17.723  0.00  0.00     0.038 A 
HETATM    2  C   UNK N   1      35.192  10.559  16.585  0.00  0.00     0.029 A 
HETATM    3  C   UNK N   1      35.355  13.324  16.323  0.00  0.00     0.073 A 
HETATM    4  C   UNK N   1      35.235  12.764  17.595  0.00  0.00     0.105 A 
HETATM    5  C   UNK N   1      35.312  11.121  15.307  0.00  0.00     0.067 A 
HETATM    6  C   UNK N   1      35.395  12.535  15.168  0.00  0.00     0.127 A 
HETATM    7 Cl   UNK N   1      35.350  10.011  13.943  0.00  0.00    -0.082 Cl
ENDROOT
BRANCH   4   8
HETATM    8  N   UNK N   1      35.199  13.613  18.737  0.00  0.00    -0.116 N 
HETATM    9  O   UNK N   1      35.038  13.146  19.825  0.00  0.00    -0.532 OA
HETATM   10  O   UNK N   1      35.328  14.794  18.616  0.00  0.00    -0.532 OA
ENDBRANCH   4   8
BRANCH   6  11
HETATM   11  N   UNK N   1      35.520  13.198  13.905  0.00  0.00    -0.114 N 
HETATM   12  O   UNK N   1      34.598  13.267  13.150  0.00  0.00    -0.532 OA
HETATM   13  O   UNK N   1      36.562  13.694  13.596  0.00  0.00    -0.532 OA
ENDBRANCH   6  11
TORSDOF 2
ENDMDL
MODEL 8
REMARK VINA RESULT:      -4.8     14.062     16.034
REMARK  2 active torsions:
REMARK  status: ('A' for Active; 'I' for Inactive)
REMARK    1  A    between atoms: C_4  and  N_8 
REMARK    2  A    between atoms: C_6  and  N_9 
ROOT
HETATM    1  C   UNK N   1      27.392  22.704  -7.284  0.00  0.00     0.038 A 
HETATM    2  C   UNK N   1      28.486  23.008  -6.468  0.00  0.00     0.029 A 
HETATM    3  C   UNK N   1      25.910  23.620  -5.617  0.00  0.00     0.073 A 
HETATM    4  C   UNK N   1      26.093  23.011  -6.859  0.00  0.00     0.105 A 
HETATM    5  C   UNK N   1      28.303  23.620  -5.221  0.00  0.00     0.067 A 
HETATM    6  C   UNK N   1      26.987  23.935  -4.781  0.00  0.00     0.127 A 
HETATM    7 Cl   UNK N   1      29.747  23.959  -4.274  0.00  0.00    -0.082 Cl
ENDROOT
BRANCH   4   8
HETATM    8  N   UNK N   1      24.962  22.712  -7.669  0.00  0.00    -0.116 N 
HETATM    9  O   UNK N   1      24.276  21.768  -7.416  0.00  0.00    -0.532 OA
HETATM   10  O   UNK N   1      24.691  23.401  -8.606  0.00  0.00    -0.532 OA
ENDBRANCH   4   8
BRANCH   6  11
HETATM   11  N   UNK N   1      26.702  24.559  -3.525  0.00  0.00    -0.114 N 
HETATM   12  O   UNK N   1      26.286  25.676  -3.470  0.00  0.00    -0.532 OA
HETATM   13  O   UNK N   1      26.883  23.957  -2.509  0.00  0.00    -0.532 OA
ENDBRANCH   6  11
TORSDOF 2
ENDMDL
MODEL 9
REMARK VINA RESULT:      -4.7     11.185     13.303
REMARK  2 active torsions:
REMARK  status: ('A' for Active; 'I' for Inactive)
REMARK    1  A    between atoms: C_4  and  N_8 
REMARK    2  A    between atoms: C_6  and  N_9 
ROOT
HETATM    1  C   UNK N   1      30.885  20.464  -5.784  0.00  0.00     0.038 A 
HETATM    2  C   UNK N   1      31.854  20.410  -4.777  0.00  0.00     0.029 A 
HETATM    3  C   UNK N   1      29.856  22.343  -4.677  0.00  0.00     0.073 A 
HETATM    4  C   UNK N   1      29.878  21.437  -5.737  0.00  0.00     0.105 A 
HETATM    5  C   UNK N   1      31.833  21.320  -3.712  0.00  0.00     0.067 A 
HETATM    6  C   UNK N   1      30.813  22.311  -3.657  0.00  0.00     0.127 A 
HETATM    7 Cl   UNK N   1      33.098  21.164  -2.499  0.00  0.00    -0.082 Cl
ENDROOT
BRANCH   4   8
HETATM    8  N   UNK N   1      28.879  21.514  -6.749  0.00  0.00    -0.116 N 
HETATM    9  O   UNK N   1      28.847  20.698  -7.621  0.00  0.00    -0.532 OA
HETATM   10  O   UNK N   1      28.070  22.392  -6.733  0.00  0.00    -0.532 OA
ENDBRANCH   4   8
BRANCH   6  11
HETATM   11  N   UNK N   1      30.712  23.282  -2.609  0.00  0.00    -0.114 N 
HETATM   12  O   UNK N   1      30.829  24.448  -2.834  0.00  0.00    -0.532 OA
HETATM   13  O   UNK N   1      30.506  22.925  -1.488  0.00  0.00    -0.532 OA
ENDBRANCH   6  11
TORSDOF 2
ENDMDL
