REMARK  2 active torsions:
REMARK  status: ('A' for Active; 'I' for Inactive)
REMARK    1  A    between atoms: C_4  and  N_8 
REMARK    2  A    between atoms: C_6  and  N_9 
ROOT
HETATM    1  C   UNK N   1       2.274   1.184  -0.000  0.00  0.00     0.038 A 
HETATM    2  C   UNK N   1       2.280  -0.214   0.000  0.00  0.00     0.029 A 
HETATM    3  C   UNK N   1      -0.137   1.163  -0.000  0.00  0.00     0.073 A 
HETATM    4  C   UNK N   1       1.059   1.881  -0.000  0.00  0.00     0.105 A 
HETATM    5  C   UNK N   1       1.079  -0.936   0.000  0.00  0.00     0.067 A 
HETATM    6  C   UNK N   1      -0.160  -0.236  -0.000  0.00  0.00     0.127 A 
HETATM    7 Cl   UNK N   1       1.198  -2.692   0.000  0.00  0.00    -0.082 Cl
ENDROOT
BRANCH   4   8
HETATM    8  N   UNK N   1       1.025   3.304  -0.000  0.00  0.00    -0.116 N 
HETATM    9  O   UNK N   1      -0.023   3.878   0.000  0.00  0.00    -0.532 OA
HETATM   10  O   UNK N   1       2.040   3.933  -0.000  0.00  0.00    -0.532 OA
ENDBRANCH   4   8
BRANCH   6  11
HETATM   11  N   UNK N   1      -1.435  -0.887  -0.000  0.00  0.00    -0.114 N 
HETATM   12  O   UNK N   1      -1.521  -2.077   0.000  0.00  0.00    -0.532 OA
HETATM   13  O   UNK N   1      -2.435  -0.233  -0.000  0.00  0.00    -0.532 OA
ENDBRANCH   6  11
TORSDOF 2
