MODEL 1
REMARK VINA RESULT:      -7.4      0.000      0.000
REMARK  1 active torsions:
REMARK  status: ('A' for Active; 'I' for Inactive)
REMARK    1  A    between atoms: C_5  and  C_13 
ROOT
HETATM    1  C   UNK N   1      27.615  19.452   6.433  0.00  0.00     0.045 A 
HETATM    2  C   UNK N   1      27.673  20.842   6.449  0.00  0.00     0.033 A 
HETATM    3  C   UNK N   1      26.720  21.276   5.542  0.00  0.00     0.043 A 
HETATM    4  C   UNK N   1      26.142  20.128   5.029  0.00  0.00     0.116 A 
HETATM    5  N   UNK N   1      26.680  19.036   5.575  0.00  0.00    -0.342 N 
HETATM    6  C   UNK N   1      26.299  17.665   5.265  0.00  0.00     0.157 C 
HETATM    7  C   UNK N   1      25.120  20.058   4.036  0.00  0.00     0.117 C 
HETATM    8  N   UNK N   1      24.295  19.933   3.238  0.00  0.00    -0.190 NA
ENDROOT
BRANCH   1   9
HETATM    9  C   UNK N   1      28.427  18.582   7.269  0.00  0.00    -0.009 A 
HETATM   10  C   UNK N   1      29.348  17.783   6.631  0.00  0.00     0.026 A 
HETATM   11  C   UNK N   1      30.264  17.047   7.350  0.00  0.00     0.004 A 
HETATM   12  C   UNK N   1      31.304  16.269   6.594  0.00  0.00     0.092 A 
HETATM   13  C   UNK N   1      30.244  17.092   8.752  0.00  0.00     0.044 A 
HETATM   14  C   UNK N   1      30.629  15.165   5.800  0.00  0.00     0.052 C 
HETATM   15  O   UNK N   1      32.255  15.686   7.417  0.00  0.00    -0.311 OA
HETATM   16  C   UNK N   1      31.996  17.210   5.616  0.00  0.00     0.052 C 
HETATM   17  C   UNK N   1      32.227  15.687   8.777  0.00  0.00     0.215 A 
HETATM   18  N   UNK N   1      31.213  16.381   9.478  0.00  0.00    -0.327 N 
HETATM   19  S   UNK N   1      33.203  14.936   9.503  0.00  0.00    -0.033 SA
HETATM   20  H   UNK N   1      31.187  16.365  10.462  0.00  0.00     0.169 HD
HETATM   21  C   UNK N   1      29.282  17.857   9.418  0.00  0.00     0.031 A 
HETATM   22  C   UNK N   1      28.377  18.612   8.672  0.00  0.00     0.016 A 
ENDBRANCH   1   9
TORSDOF 1
ENDMDL
MODEL 2
REMARK VINA RESULT:      -7.3      3.200      7.333
REMARK  1 active torsions:
REMARK  status: ('A' for Active; 'I' for Inactive)
REMARK    1  A    between atoms: C_5  and  C_13 
ROOT
HETATM    1  C   UNK N   1      32.510  16.097   7.714  0.00  0.00     0.045 A 
HETATM    2  C   UNK N   1      32.494  14.799   8.215  0.00  0.00     0.033 A 
HETATM    3  C   UNK N   1      33.497  14.743   9.169  0.00  0.00     0.043 A 
HETATM    4  C   UNK N   1      34.063  16.006   9.191  0.00  0.00     0.116 A 
HETATM    5  N   UNK N   1      33.459  16.816   8.319  0.00  0.00    -0.342 N 
HETATM    6  C   UNK N   1      33.802  18.214   8.092  0.00  0.00     0.157 C 
HETATM    7  C   UNK N   1      35.157  16.437   9.999  0.00  0.00     0.117 C 
HETATM    8  N   UNK N   1      36.035  16.848  10.624  0.00  0.00    -0.190 NA
ENDROOT
BRANCH   1   9
HETATM    9  C   UNK N   1      31.590  16.606   6.709  0.00  0.00    -0.009 A 
HETATM   10  C   UNK N   1      30.310  16.897   7.123  0.00  0.00     0.026 A 
HETATM   11  C   UNK N   1      29.422  17.528   6.282  0.00  0.00     0.004 A 
HETATM   12  C   UNK N   1      28.071  17.903   6.823  0.00  0.00     0.092 A 
HETATM   13  C   UNK N   1      29.816  17.860   4.977  0.00  0.00     0.044 A 
HETATM   14  C   UNK N   1      27.290  16.642   7.148  0.00  0.00     0.052 C 
HETATM   15  O   UNK N   1      27.317  18.658   5.938  0.00  0.00    -0.311 OA
HETATM   16  C   UNK N   1      28.268  18.691   8.113  0.00  0.00     0.052 C 
HETATM   17  C   UNK N   1      27.669  18.952   4.657  0.00  0.00     0.215 A 
HETATM   18  N   UNK N   1      28.923  18.550   4.142  0.00  0.00    -0.327 N 
HETATM   19  S   UNK N   1      26.739  19.631   3.809  0.00  0.00    -0.033 SA
HETATM   20  H   UNK N   1      29.167  18.751   3.209  0.00  0.00     0.169 HD
HETATM   21  C   UNK N   1      31.095  17.526   4.522  0.00  0.00     0.031 A 
HETATM   22  C   UNK N   1      31.987  16.905   5.396  0.00  0.00     0.016 A 
ENDBRANCH   1   9
TORSDOF 1
ENDMDL
MODEL 3
REMARK VINA RESULT:      -7.2      1.315      1.911
REMARK  1 active torsions:
REMARK  status: ('A' for Active; 'I' for Inactive)
REMARK    1  A    between atoms: C_5  and  C_13 
ROOT
HETATM    1  C   UNK N   1      27.213  18.035   5.382  0.00  0.00     0.045 A 
HETATM    2  C   UNK N   1      26.272  17.070   5.040  0.00  0.00     0.033 A 
HETATM    3  C   UNK N   1      25.463  17.649   4.075  0.00  0.00     0.043 A 
HETATM    4  C   UNK N   1      25.959  18.928   3.890  0.00  0.00     0.116 A 
HETATM    5  N   UNK N   1      27.015  19.149   4.674  0.00  0.00    -0.342 N 
HETATM    6  C   UNK N   1      27.780  20.389   4.725  0.00  0.00     0.157 C 
HETATM    7  C   UNK N   1      25.441  19.924   3.010  0.00  0.00     0.117 C 
HETATM    8  N   UNK N   1      25.072  20.772   2.319  0.00  0.00    -0.190 NA
ENDROOT
BRANCH   1   9
HETATM    9  C   UNK N   1      28.289  17.837   6.342  0.00  0.00    -0.009 A 
HETATM   10  C   UNK N   1      29.453  17.276   5.869  0.00  0.00     0.026 A 
HETATM   11  C   UNK N   1      30.573  17.196   6.666  0.00  0.00     0.004 A 
HETATM   12  C   UNK N   1      31.840  16.659   6.062  0.00  0.00     0.092 A 
HETATM   13  C   UNK N   1      30.523  17.671   7.985  0.00  0.00     0.044 A 
HETATM   14  C   UNK N   1      31.651  15.195   5.710  0.00  0.00     0.052 C 
HETATM   15  O   UNK N   1      32.934  16.760   6.907  0.00  0.00    -0.311 OA
HETATM   16  C   UNK N   1      32.128  17.429   4.778  0.00  0.00     0.052 C 
HETATM   17  C   UNK N   1      32.893  17.179   8.201  0.00  0.00     0.215 A 
HETATM   18  N   UNK N   1      31.683  17.634   8.775  0.00  0.00    -0.327 N 
HETATM   19  S   UNK N   1      34.076  17.111   9.002  0.00  0.00    -0.033 SA
HETATM   20  H   UNK N   1      31.654  17.922   9.716  0.00  0.00     0.169 HD
HETATM   21  C   UNK N   1      29.334  18.196   8.499  0.00  0.00     0.031 A 
HETATM   22  C   UNK N   1      28.216  18.288   7.670  0.00  0.00     0.016 A 
ENDBRANCH   1   9
TORSDOF 1
ENDMDL
MODEL 4
REMARK VINA RESULT:      -7.0      3.586      6.822
REMARK  1 active torsions:
REMARK  status: ('A' for Active; 'I' for Inactive)
REMARK    1  A    between atoms: C_5  and  C_13 
ROOT
HETATM    1  C   UNK N   1      30.746  17.341   6.173  0.00  0.00     0.045 A 
HETATM    2  C   UNK N   1      31.598  17.188   5.083  0.00  0.00     0.033 A 
HETATM    3  C   UNK N   1      32.884  17.329   5.580  0.00  0.00     0.043 A 
HETATM    4  C   UNK N   1      32.738  17.560   6.937  0.00  0.00     0.116 A 
HETATM    5  N   UNK N   1      31.450  17.557   7.286  0.00  0.00    -0.342 N 
HETATM    6  C   UNK N   1      30.944  17.763   8.638  0.00  0.00     0.157 C 
HETATM    7  C   UNK N   1      33.783  17.794   7.880  0.00  0.00     0.117 C 
HETATM    8  N   UNK N   1      34.579  17.989   8.692  0.00  0.00    -0.190 NA
ENDROOT
BRANCH   1   9
HETATM    9  C   UNK N   1      29.297  17.231   6.110  0.00  0.00    -0.009 A 
HETATM   10  C   UNK N   1      28.597  18.369   5.780  0.00  0.00     0.026 A 
HETATM   11  C   UNK N   1      27.241  18.321   5.543  0.00  0.00     0.004 A 
HETATM   12  C   UNK N   1      26.551  19.578   5.095  0.00  0.00     0.092 A 
HETATM   13  C   UNK N   1      26.558  17.102   5.663  0.00  0.00     0.044 A 
HETATM   14  C   UNK N   1      26.598  20.605   6.212  0.00  0.00     0.052 C 
HETATM   15  O   UNK N   1      25.224  19.380   4.749  0.00  0.00    -0.311 OA
HETATM   16  C   UNK N   1      27.303  20.140   3.894  0.00  0.00     0.052 C 
HETATM   17  C   UNK N   1      24.538  18.215   4.898  0.00  0.00     0.215 A 
HETATM   18  N   UNK N   1      25.186  17.050   5.371  0.00  0.00    -0.327 N 
HETATM   19  S   UNK N   1      23.134  18.183   4.623  0.00  0.00    -0.033 SA
HETATM   20  H   UNK N   1      24.681  16.213   5.492  0.00  0.00     0.169 HD
HETATM   21  C   UNK N   1      27.242  15.946   6.049  0.00  0.00     0.031 A 
HETATM   22  C   UNK N   1      28.619  16.010   6.263  0.00  0.00     0.016 A 
ENDBRANCH   1   9
TORSDOF 1
ENDMDL
MODEL 5
REMARK VINA RESULT:      -7.0      3.425      6.742
REMARK  1 active torsions:
REMARK  status: ('A' for Active; 'I' for Inactive)
REMARK    1  A    between atoms: C_5  and  C_13 
ROOT
HETATM    1  C   UNK N   1      32.456  17.358   8.332  0.00  0.00     0.045 A 
HETATM    2  C   UNK N   1      33.366  18.360   8.012  0.00  0.00     0.033 A 
HETATM    3  C   UNK N   1      34.600  17.915   8.459  0.00  0.00     0.043 A 
HETATM    4  C   UNK N   1      34.366  16.673   9.024  0.00  0.00     0.116 A 
HETATM    5  N   UNK N   1      33.076  16.343   8.937  0.00  0.00    -0.342 N 
HETATM    6  C   UNK N   1      32.490  15.102   9.427  0.00  0.00     0.157 C 
HETATM    7  C   UNK N   1      35.329  15.824   9.647  0.00  0.00     0.117 C 
HETATM    8  N   UNK N   1      36.058  15.092  10.162  0.00  0.00    -0.190 NA
ENDROOT
BRANCH   1   9
HETATM    9  C   UNK N   1      31.038  17.397   8.009  0.00  0.00    -0.009 A 
HETATM   10  C   UNK N   1      30.651  16.813   6.825  0.00  0.00     0.026 A 
HETATM   11  C   UNK N   1      29.318  16.663   6.513  0.00  0.00     0.004 A 
HETATM   12  C   UNK N   1      28.959  15.934   5.249  0.00  0.00     0.092 A 
HETATM   13  C   UNK N   1      28.339  17.131   7.403  0.00  0.00     0.044 A 
HETATM   14  C   UNK N   1      29.430  16.738   4.051  0.00  0.00     0.052 C 
HETATM   15  O   UNK N   1      27.596  15.716   5.111  0.00  0.00    -0.311 OA
HETATM   16  C   UNK N   1      29.683  14.592   5.243  0.00  0.00     0.052 C 
HETATM   17  C   UNK N   1      26.635  16.199   5.943  0.00  0.00     0.215 A 
HETATM   18  N   UNK N   1      26.983  16.929   7.104  0.00  0.00    -0.327 N 
HETATM   19  S   UNK N   1      25.256  16.010   5.612  0.00  0.00    -0.033 SA
HETATM   20  H   UNK N   1      26.282  17.291   7.694  0.00  0.00     0.169 HD
HETATM   21  C   UNK N   1      28.713  17.774   8.586  0.00  0.00     0.031 A 
HETATM   22  C   UNK N   1      30.069  17.897   8.894  0.00  0.00     0.016 A 
ENDBRANCH   1   9
TORSDOF 1
ENDMDL
MODEL 6
REMARK VINA RESULT:      -6.9     10.950     14.147
REMARK  1 active torsions:
REMARK  status: ('A' for Active; 'I' for Inactive)
REMARK    1  A    between atoms: C_5  and  C_13 
ROOT
HETATM    1  C   UNK N   1      35.760  12.981  15.655  0.00  0.00     0.045 A 
HETATM    2  C   UNK N   1      36.690  13.958  15.312  0.00  0.00     0.033 A 
HETATM    3  C   UNK N   1      36.596  14.111  13.938  0.00  0.00     0.043 A 
HETATM    4  C   UNK N   1      35.618  13.220  13.529  0.00  0.00     0.116 A 
HETATM    5  N   UNK N   1      35.115  12.551  14.568  0.00  0.00    -0.342 N 
HETATM    6  C   UNK N   1      34.066  11.542  14.491  0.00  0.00     0.157 C 
HETATM    7  C   UNK N   1      35.179  12.991  12.191  0.00  0.00     0.117 C 
HETATM    8  N   UNK N   1      34.780  12.760  11.133  0.00  0.00    -0.190 NA
ENDROOT
BRANCH   1   9
HETATM    9  C   UNK N   1      35.497  12.532  17.013  0.00  0.00    -0.009 A 
HETATM   10  C   UNK N   1      35.653  11.188  17.268  0.00  0.00     0.026 A 
HETATM   11  C   UNK N   1      35.580  10.700  18.554  0.00  0.00     0.004 A 
HETATM   12  C   UNK N   1      35.852   9.240  18.778  0.00  0.00     0.092 A 
HETATM   13  C   UNK N   1      35.319  11.578  19.617  0.00  0.00     0.044 A 
HETATM   14  C   UNK N   1      34.766   8.415  18.110  0.00  0.00     0.052 C 
HETATM   15  O   UNK N   1      35.893   8.890  20.119  0.00  0.00    -0.311 OA
HETATM   16  C   UNK N   1      37.187   8.891  18.129  0.00  0.00     0.052 C 
HETATM   17  C   UNK N   1      35.603   9.720  21.157  0.00  0.00     0.215 A 
HETATM   18  N   UNK N   1      35.297  11.082  20.930  0.00  0.00    -0.327 N 
HETATM   19  S   UNK N   1      35.557   9.195  22.487  0.00  0.00    -0.033 SA
HETATM   20  H   UNK N   1      35.072  11.675  21.683  0.00  0.00     0.169 HD
HETATM   21  C   UNK N   1      35.106  12.937  19.371  0.00  0.00     0.031 A 
HETATM   22  C   UNK N   1      35.205  13.416  18.065  0.00  0.00     0.016 A 
ENDBRANCH   1   9
TORSDOF 1
ENDMDL
MODEL 7
REMARK VINA RESULT:      -6.8      1.466      2.681
REMARK  1 active torsions:
REMARK  status: ('A' for Active; 'I' for Inactive)
REMARK    1  A    between atoms: C_5  and  C_13 
ROOT
HETATM    1  C   UNK N   1      27.239  18.900   4.842  0.00  0.00     0.045 A 
HETATM    2  C   UNK N   1      27.190  20.215   4.388  0.00  0.00     0.033 A 
HETATM    3  C   UNK N   1      25.874  20.445   4.021  0.00  0.00     0.043 A 
HETATM    4  C   UNK N   1      25.203  19.260   4.272  0.00  0.00     0.116 A 
HETATM    5  N   UNK N   1      26.029  18.339   4.772  0.00  0.00    -0.342 N 
HETATM    6  C   UNK N   1      25.649  16.985   5.153  0.00  0.00     0.157 C 
HETATM    7  C   UNK N   1      23.822  18.993   4.031  0.00  0.00     0.117 C 
HETATM    8  N   UNK N   1      22.715  18.715   3.860  0.00  0.00    -0.190 NA
ENDROOT
BRANCH   1   9
HETATM    9  C   UNK N   1      28.431  18.250   5.363  0.00  0.00    -0.009 A 
HETATM   10  C   UNK N   1      28.620  18.290   6.725  0.00  0.00     0.026 A 
HETATM   11  C   UNK N   1      29.633  17.569   7.319  0.00  0.00     0.004 A 
HETATM   12  C   UNK N   1      29.729  17.579   8.819  0.00  0.00     0.092 A 
HETATM   13  C   UNK N   1      30.499  16.803   6.525  0.00  0.00     0.044 A 
HETATM   14  C   UNK N   1      30.075  18.979   9.293  0.00  0.00     0.052 C 
HETATM   15  O   UNK N   1      30.690  16.709   9.310  0.00  0.00    -0.311 OA
HETATM   16  C   UNK N   1      28.369  17.199   9.393  0.00  0.00     0.052 C 
HETATM   17  C   UNK N   1      31.563  15.992   8.553  0.00  0.00     0.215 A 
HETATM   18  N   UNK N   1      31.496  16.031   7.141  0.00  0.00    -0.327 N 
HETATM   19  S   UNK N   1      32.592  15.231   9.193  0.00  0.00    -0.033 SA
HETATM   20  H   UNK N   1      32.141  15.523   6.596  0.00  0.00     0.169 HD
HETATM   21  C   UNK N   1      30.355  16.792   5.135  0.00  0.00     0.031 A 
HETATM   22  C   UNK N   1      29.310  17.511   4.554  0.00  0.00     0.016 A 
ENDBRANCH   1   9
TORSDOF 1
ENDMDL
MODEL 8
REMARK VINA RESULT:      -6.7      4.631      7.842
REMARK  1 active torsions:
REMARK  status: ('A' for Active; 'I' for Inactive)
REMARK    1  A    between atoms: C_5  and  C_13 
ROOT
HETATM    1  C   UNK N   1      27.723  18.262   5.548  0.00  0.00     0.045 A 
HETATM    2  C   UNK N   1      27.973  18.669   6.855  0.00  0.00     0.033 A 
HETATM    3  C   UNK N   1      29.043  17.908   7.296  0.00  0.00     0.043 A 
HETATM    4  C   UNK N   1      29.379  17.084   6.235  0.00  0.00     0.116 A 
HETATM    5  N   UNK N   1      28.586  17.309   5.186  0.00  0.00    -0.342 N 
HETATM    6  C   UNK N   1      28.669  16.620   3.904  0.00  0.00     0.157 C 
HETATM    7  C   UNK N   1      30.409  16.098   6.213  0.00  0.00     0.117 C 
HETATM    8  N   UNK N   1      31.225  15.286   6.131  0.00  0.00    -0.190 NA
ENDROOT
BRANCH   1   9
HETATM    9  C   UNK N   1      26.698  18.831   4.687  0.00  0.00    -0.009 A 
HETATM   10  C   UNK N   1      25.449  18.254   4.736  0.00  0.00     0.026 A 
HETATM   11  C   UNK N   1      24.382  18.822   4.077  0.00  0.00     0.004 A 
HETATM   12  C   UNK N   1      23.026  18.198   4.247  0.00  0.00     0.092 A 
HETATM   13  C   UNK N   1      24.572  19.992   3.326  0.00  0.00     0.044 A 
HETATM   14  C   UNK N   1      23.026  16.814   3.623  0.00  0.00     0.052 C 
HETATM   15  O   UNK N   1      22.008  18.934   3.659  0.00  0.00    -0.311 OA
HETATM   16  C   UNK N   1      22.743  18.054   5.738  0.00  0.00     0.052 C 
HETATM   17  C   UNK N   1      22.181  20.045   2.895  0.00  0.00     0.215 A 
HETATM   18  N   UNK N   1      23.470  20.595   2.700  0.00  0.00    -0.327 N 
HETATM   19  S   UNK N   1      21.053  20.633   2.240  0.00  0.00    -0.033 SA
HETATM   20  H   UNK N   1      23.592  21.390   2.132  0.00  0.00     0.169 HD
HETATM   21  C   UNK N   1      25.843  20.563   3.221  0.00  0.00     0.031 A 
HETATM   22  C   UNK N   1      26.908  19.984   3.913  0.00  0.00     0.016 A 
ENDBRANCH   1   9
TORSDOF 1
ENDMDL
MODEL 9
REMARK VINA RESULT:      -6.6      7.912     10.406
REMARK  1 active torsions:
REMARK  status: ('A' for Active; 'I' for Inactive)
REMARK    1  A    between atoms: C_5  and  C_13 
ROOT
HETATM    1  C   UNK N   1      23.086  12.750   9.142  0.00  0.00     0.045 A 
HETATM    2  C   UNK N   1      24.467  12.585   9.133  0.00  0.00     0.033 A 
HETATM    3  C   UNK N   1      24.825  12.275  10.435  0.00  0.00     0.043 A 
HETATM    4  C   UNK N   1      23.643  12.271  11.157  0.00  0.00     0.116 A 
HETATM    5  N   UNK N   1      22.602  12.550  10.370  0.00  0.00    -0.342 N 
HETATM    6  C   UNK N   1      21.214  12.621  10.806  0.00  0.00     0.157 C 
HETATM    7  C   UNK N   1      23.499  12.029  12.555  0.00  0.00     0.117 C 
HETATM    8  N   UNK N   1      23.314  11.841  13.678  0.00  0.00    -0.190 NA
ENDROOT
BRANCH   1   9
HETATM    9  C   UNK N   1      22.282  13.050   7.967  0.00  0.00    -0.009 A 
HETATM   10  C   UNK N   1      22.368  14.326   7.460  0.00  0.00     0.026 A 
HETATM   11  C   UNK N   1      21.768  14.654   6.265  0.00  0.00     0.004 A 
HETATM   12  C   UNK N   1      21.977  16.038   5.718  0.00  0.00     0.092 A 
HETATM   13  C   UNK N   1      21.039  13.682   5.564  0.00  0.00     0.044 A 
HETATM   14  C   UNK N   1      21.319  17.049   6.640  0.00  0.00     0.052 C 
HETATM   15  O   UNK N   1      21.450  16.209   4.447  0.00  0.00    -0.311 OA
HETATM   16  C   UNK N   1      23.474  16.323   5.682  0.00  0.00     0.052 C 
HETATM   17  C   UNK N   1      20.707  15.290   3.773  0.00  0.00     0.215 A 
HETATM   18  N   UNK N   1      20.473  14.007   4.321  0.00  0.00    -0.327 N 
HETATM   19  S   UNK N   1      20.114  15.645   2.521  0.00  0.00    -0.033 SA
HETATM   20  H   UNK N   1      19.921  13.351   3.837  0.00  0.00     0.169 HD
HETATM   21  C   UNK N   1      20.896  12.394   6.089  0.00  0.00     0.031 A 
HETATM   22  C   UNK N   1      21.529  12.076   7.291  0.00  0.00     0.016 A 
ENDBRANCH   1   9
TORSDOF 1
ENDMDL
