REMARK  1 active torsions:
REMARK  status: ('A' for Active; 'I' for Inactive)
REMARK    1  A    between atoms: C_5  and  C_13 
ROOT
HETATM    1  C   UNK N   1       2.126   0.394   0.044  0.00  0.00     0.045 A 
HETATM    2  C   UNK N   1       2.222   1.775  -0.097  0.00  0.00     0.033 A 
HETATM    3  C   UNK N   1       3.574   2.056  -0.209  0.00  0.00     0.043 A 
HETATM    4  C   UNK N   1       4.218   0.833  -0.128  0.00  0.00     0.116 A 
HETATM    5  N   UNK N   1       3.340  -0.161   0.016  0.00  0.00    -0.342 N 
HETATM    6  C   UNK N   1       3.679  -1.574   0.126  0.00  0.00     0.157 C 
HETATM    7  C   UNK N   1       5.626   0.606  -0.168  0.00  0.00     0.117 C 
HETATM    8  N   UNK N   1       6.752   0.355  -0.194  0.00  0.00    -0.190 NA
ENDROOT
BRANCH   1   9
HETATM    9  C   UNK N   1       0.875  -0.340   0.157  0.00  0.00    -0.009 A 
HETATM   10  C   UNK N   1      -0.285   0.400   0.168  0.00  0.00     0.026 A 
HETATM   11  C   UNK N   1      -1.516  -0.215   0.113  0.00  0.00     0.004 A 
HETATM   12  C   UNK N   1      -2.742   0.650   0.033  0.00  0.00     0.092 A 
HETATM   13  C   UNK N   1      -1.592  -1.615   0.069  0.00  0.00     0.044 A 
HETATM   14  C   UNK N   1      -2.888   1.439   1.322  0.00  0.00     0.052 C 
HETATM   15  O   UNK N   1      -3.909  -0.072  -0.163  0.00  0.00    -0.311 OA
HETATM   16  C   UNK N   1      -2.564   1.636  -1.116  0.00  0.00     0.052 C 
HETATM   17  C   UNK N   1      -4.003  -1.429  -0.167  0.00  0.00     0.215 A 
HETATM   18  N   UNK N   1      -2.847  -2.234  -0.039  0.00  0.00    -0.327 N 
HETATM   19  S   UNK N   1      -5.291  -2.046  -0.250  0.00  0.00    -0.033 SA
HETATM   20  H   UNK N   1      -2.922  -3.216  -0.026  0.00  0.00     0.169 HD
HETATM   21  C   UNK N   1      -0.426  -2.385   0.110  0.00  0.00     0.031 A 
HETATM   22  C   UNK N   1       0.812  -1.743   0.144  0.00  0.00     0.016 A 
ENDBRANCH   1   9
TORSDOF 1
