MODEL 1
REMARK VINA RESULT:      -4.8      0.000      0.000
REMARK  2 active torsions:
REMARK  status: ('A' for Active; 'I' for Inactive)
REMARK    1  A    between atoms: C_4  and  C_7 
REMARK    2  A    between atoms: C_4  and  O_10 
ROOT
HETATM    1  C   UNK N   1      36.230  14.641  17.211  0.00  0.00    -0.087 C 
HETATM    2  C   UNK N   1      35.440  13.815  17.919  0.00  0.00    -0.021 C 
HETATM    3  C   UNK N   1      34.995  12.470  17.404  0.00  0.00     0.065 C 
HETATM    4  C   UNK N   1      35.111  12.341  15.877  0.00  0.00     0.064 C 
HETATM    5  C   UNK N   1      36.495  12.826  15.444  0.00  0.00     0.042 C 
HETATM    6  C   UNK N   1      36.738  14.287  15.834  0.00  0.00     0.036 C 
HETATM    7  C   UNK N   1      36.596  15.962  17.791  0.00  0.00     0.043 C 
ENDROOT
BRANCH   4   8
HETATM    8  C   UNK N   1      34.916  10.882  15.423  0.00  0.00     0.012 C 
HETATM    9  C   UNK N   1      34.938   9.896  16.584  0.00  0.00     0.012 C 
HETATM   10  C   UNK N   1      33.639  10.685  14.623  0.00  0.00     0.012 C 
ENDBRANCH   4   8
BRANCH   4  11
HETATM   11  O   UNK N   1      34.140  13.142  15.266  0.00  0.00    -0.389 OA
HETATM   12  H   UNK N   1      33.943  13.510  14.390  0.00  0.00     0.210 HD
ENDBRANCH   4  11
TORSDOF 2
ENDMDL
MODEL 2
REMARK VINA RESULT:      -4.8     26.062     27.097
REMARK  2 active torsions:
REMARK  status: ('A' for Active; 'I' for Inactive)
REMARK    1  A    between atoms: C_4  and  C_7 
REMARK    2  A    between atoms: C_4  and  O_10 
ROOT
HETATM    1  C   UNK N   1      26.027  25.327  -4.963  0.00  0.00    -0.087 C 
HETATM    2  C   UNK N   1      25.269  26.286  -5.523  0.00  0.00    -0.021 C 
HETATM    3  C   UNK N   1      25.467  27.753  -5.238  0.00  0.00     0.065 C 
HETATM    4  C   UNK N   1      26.246  28.015  -3.941  0.00  0.00     0.064 C 
HETATM    5  C   UNK N   1      27.494  27.132  -3.926  0.00  0.00     0.042 C 
HETATM    6  C   UNK N   1      27.143  25.643  -3.997  0.00  0.00     0.036 C 
HETATM    7  C   UNK N   1      25.740  23.902  -5.283  0.00  0.00     0.043 C 
ENDROOT
BRANCH   4   8
HETATM    8  C   UNK N   1      26.666  29.493  -3.829  0.00  0.00     0.012 C 
HETATM    9  C   UNK N   1      27.483  29.780  -2.575  0.00  0.00     0.012 C 
HETATM   10  C   UNK N   1      27.437  29.974  -5.048  0.00  0.00     0.012 C 
ENDBRANCH   4   8
BRANCH   4  11
HETATM   11  O   UNK N   1      25.447  27.685  -2.841  0.00  0.00    -0.389 OA
HETATM   12  H   UNK N   1      24.638  27.999  -2.405  0.00  0.00     0.210 HD
ENDBRANCH   4  11
TORSDOF 2
ENDMDL
MODEL 3
REMARK VINA RESULT:      -4.7      1.513      3.002
REMARK  2 active torsions:
REMARK  status: ('A' for Active; 'I' for Inactive)
REMARK    1  A    between atoms: C_4  and  C_7 
REMARK    2  A    between atoms: C_4  and  O_10 
ROOT
HETATM    1  C   UNK N   1      35.316  12.351  18.445  0.00  0.00    -0.087 C 
HETATM    2  C   UNK N   1      35.576  11.275  17.683  0.00  0.00    -0.021 C 
HETATM    3  C   UNK N   1      35.888  11.372  16.212  0.00  0.00     0.065 C 
HETATM    4  C   UNK N   1      35.423  12.695  15.584  0.00  0.00     0.064 C 
HETATM    5  C   UNK N   1      35.887  13.852  16.469  0.00  0.00     0.042 C 
HETATM    6  C   UNK N   1      35.316  13.753  17.886  0.00  0.00     0.036 C 
HETATM    7  C   UNK N   1      34.990  12.155  19.885  0.00  0.00     0.043 C 
ENDROOT
BRANCH   4   8
HETATM    8  C   UNK N   1      36.001  12.875  14.167  0.00  0.00     0.012 C 
HETATM    9  C   UNK N   1      36.395  14.317  13.870  0.00  0.00     0.012 C 
HETATM   10  C   UNK N   1      37.190  11.967  13.901  0.00  0.00     0.012 C 
ENDBRANCH   4   8
BRANCH   4  11
HETATM   11  O   UNK N   1      34.026  12.713  15.512  0.00  0.00    -0.389 OA
HETATM   12  H   UNK N   1      33.305  13.361  15.482  0.00  0.00     0.210 HD
ENDBRANCH   4  11
TORSDOF 2
ENDMDL
MODEL 4
REMARK VINA RESULT:      -4.7     26.622     27.369
REMARK  2 active torsions:
REMARK  status: ('A' for Active; 'I' for Inactive)
REMARK    1  A    between atoms: C_4  and  C_7 
REMARK    2  A    between atoms: C_4  and  O_10 
ROOT
HETATM    1  C   UNK N   1      26.841  29.330  -4.651  0.00  0.00    -0.087 C 
HETATM    2  C   UNK N   1      26.210  28.703  -3.643  0.00  0.00    -0.021 C 
HETATM    3  C   UNK N   1      25.796  27.256  -3.715  0.00  0.00     0.065 C 
HETATM    4  C   UNK N   1      25.719  26.721  -5.153  0.00  0.00     0.064 C 
HETATM    5  C   UNK N   1      26.998  27.113  -5.894  0.00  0.00     0.042 C 
HETATM    6  C   UNK N   1      27.188  28.632  -5.943  0.00  0.00     0.036 C 
HETATM    7  C   UNK N   1      27.187  30.770  -4.500  0.00  0.00     0.043 C 
ENDROOT
BRANCH   4   8
HETATM    8  C   UNK N   1      25.569  25.188  -5.173  0.00  0.00     0.012 C 
HETATM    9  C   UNK N   1      25.964  24.575  -6.511  0.00  0.00     0.012 C 
HETATM   10  C   UNK N   1      26.354  24.510  -4.061  0.00  0.00     0.012 C 
ENDBRANCH   4   8
BRANCH   4  11
HETATM   11  O   UNK N   1      24.624  27.295  -5.807  0.00  0.00    -0.389 OA
HETATM   12  H   UNK N   1      24.427  27.747  -6.643  0.00  0.00     0.210 HD
ENDBRANCH   4  11
TORSDOF 2
ENDMDL
MODEL 5
REMARK VINA RESULT:      -4.7     27.050     28.037
REMARK  2 active torsions:
REMARK  status: ('A' for Active; 'I' for Inactive)
REMARK    1  A    between atoms: C_4  and  C_7 
REMARK    2  A    between atoms: C_4  and  O_10 
ROOT
HETATM    1  C   UNK N   1      26.108  26.877  -6.832  0.00  0.00    -0.087 C 
HETATM    2  C   UNK N   1      25.169  26.887  -5.870  0.00  0.00    -0.021 C 
HETATM    3  C   UNK N   1      25.240  27.795  -4.669  0.00  0.00     0.065 C 
HETATM    4  C   UNK N   1      26.655  28.331  -4.401  0.00  0.00     0.064 C 
HETATM    5  C   UNK N   1      27.236  28.866  -5.710  0.00  0.00     0.042 C 
HETATM    6  C   UNK N   1      27.316  27.780  -6.787  0.00  0.00     0.036 C 
HETATM    7  C   UNK N   1      25.966  25.926  -7.968  0.00  0.00     0.043 C 
ENDROOT
BRANCH   4   8
HETATM    8  C   UNK N   1      26.637  29.459  -3.353  0.00  0.00     0.012 C 
HETATM    9  C   UNK N   1      27.787  29.357  -2.359  0.00  0.00     0.012 C 
HETATM   10  C   UNK N   1      26.643  30.842  -3.983  0.00  0.00     0.012 C 
ENDBRANCH   4   8
BRANCH   4  11
HETATM   11  O   UNK N   1      27.468  27.291  -3.938  0.00  0.00    -0.389 OA
HETATM   12  H   UNK N   1      28.402  27.135  -3.723  0.00  0.00     0.210 HD
ENDBRANCH   4  11
TORSDOF 2
ENDMDL
MODEL 6
REMARK VINA RESULT:      -4.7      1.784      2.787
REMARK  2 active torsions:
REMARK  status: ('A' for Active; 'I' for Inactive)
REMARK    1  A    between atoms: C_4  and  C_7 
REMARK    2  A    between atoms: C_4  and  O_10 
ROOT
HETATM    1  C   UNK N   1      35.190  12.189  18.272  0.00  0.00    -0.087 C 
HETATM    2  C   UNK N   1      34.983  13.198  17.409  0.00  0.00    -0.021 C 
HETATM    3  C   UNK N   1      34.858  12.988  15.922  0.00  0.00     0.065 C 
HETATM    4  C   UNK N   1      35.448  11.650  15.451  0.00  0.00     0.064 C 
HETATM    5  C   UNK N   1      34.925  10.533  16.355  0.00  0.00     0.042 C 
HETATM    6  C   UNK N   1      35.314  10.754  17.820  0.00  0.00     0.036 C 
HETATM    7  C   UNK N   1      35.328  12.496  19.722  0.00  0.00     0.043 C 
ENDROOT
BRANCH   4   8
HETATM    8  C   UNK N   1      35.057  11.348  13.991  0.00  0.00     0.012 C 
HETATM    9  C   UNK N   1      33.731  10.605  13.879  0.00  0.00     0.012 C 
HETATM   10  C   UNK N   1      35.001  12.601  13.131  0.00  0.00     0.012 C 
ENDBRANCH   4   8
BRANCH   4  11
HETATM   11  O   UNK N   1      36.843  11.695  15.548  0.00  0.00    -0.389 OA
HETATM   12  H   UNK N   1      37.603  11.989  15.021  0.00  0.00     0.210 HD
ENDBRANCH   4  11
TORSDOF 2
ENDMDL
MODEL 7
REMARK VINA RESULT:      -4.7     13.448     14.533
REMARK  2 active torsions:
REMARK  status: ('A' for Active; 'I' for Inactive)
REMARK    1  A    between atoms: C_4  and  C_7 
REMARK    2  A    between atoms: C_4  and  O_10 
ROOT
HETATM    1  C   UNK N   1      26.898  20.017   4.281  0.00  0.00    -0.087 C 
HETATM    2  C   UNK N   1      26.800  20.638   5.469  0.00  0.00    -0.021 C 
HETATM    3  C   UNK N   1      27.531  20.166   6.700  0.00  0.00     0.065 C 
HETATM    4  C   UNK N   1      27.987  18.702   6.606  0.00  0.00     0.064 C 
HETATM    5  C   UNK N   1      28.681  18.486   5.261  0.00  0.00     0.042 C 
HETATM    6  C   UNK N   1      27.752  18.789   4.082  0.00  0.00     0.036 C 
HETATM    7  C   UNK N   1      26.116  20.539   3.127  0.00  0.00     0.043 C 
ENDROOT
BRANCH   4   8
HETATM    8  C   UNK N   1      28.960  18.345   7.745  0.00  0.00     0.012 C 
HETATM    9  C   UNK N   1      28.243  18.018   9.051  0.00  0.00     0.012 C 
HETATM   10  C   UNK N   1      29.886  17.195   7.383  0.00  0.00     0.012 C 
ENDBRANCH   4   8
BRANCH   4  11
HETATM   11  O   UNK N   1      26.871  17.861   6.679  0.00  0.00    -0.389 OA
HETATM   12  H   UNK N   1      26.249  17.528   7.346  0.00  0.00     0.210 HD
ENDBRANCH   4  11
TORSDOF 2
ENDMDL
MODEL 8
REMARK VINA RESULT:      -4.6      1.387      3.838
REMARK  2 active torsions:
REMARK  status: ('A' for Active; 'I' for Inactive)
REMARK    1  A    between atoms: C_4  and  C_7 
REMARK    2  A    between atoms: C_4  and  O_10 
ROOT
HETATM    1  C   UNK N   1      36.833  11.728  14.378  0.00  0.00    -0.087 C 
HETATM    2  C   UNK N   1      36.988  13.049  14.575  0.00  0.00    -0.021 C 
HETATM    3  C   UNK N   1      36.448  13.762  15.788  0.00  0.00     0.065 C 
HETATM    4  C   UNK N   1      35.336  12.979  16.502  0.00  0.00     0.064 C 
HETATM    5  C   UNK N   1      35.796  11.534  16.696  0.00  0.00     0.042 C 
HETATM    6  C   UNK N   1      36.102  10.847  15.362  0.00  0.00     0.036 C 
HETATM    7  C   UNK N   1      37.378  11.115  13.135  0.00  0.00     0.043 C 
ENDROOT
BRANCH   4   8
HETATM    8  C   UNK N   1      35.009  13.597  17.874  0.00  0.00     0.012 C 
HETATM    9  C   UNK N   1      35.311  12.654  19.033  0.00  0.00     0.012 C 
HETATM   10  C   UNK N   1      35.727  14.918  18.106  0.00  0.00     0.012 C 
ENDBRANCH   4   8
BRANCH   4  11
HETATM   11  O   UNK N   1      34.181  12.983  15.713  0.00  0.00    -0.389 OA
HETATM   12  H   UNK N   1      33.705  13.585  15.118  0.00  0.00     0.210 HD
ENDBRANCH   4  11
TORSDOF 2
ENDMDL
MODEL 9
REMARK VINA RESULT:      -4.5     10.180     11.150
REMARK  2 active torsions:
REMARK  status: ('A' for Active; 'I' for Inactive)
REMARK    1  A    between atoms: C_4  and  C_7 
REMARK    2  A    between atoms: C_4  and  O_10 
ROOT
HETATM    1  C   UNK N   1      29.340  17.818   8.364  0.00  0.00    -0.087 C 
HETATM    2  C   UNK N   1      30.386  18.336   9.031  0.00  0.00    -0.021 C 
HETATM    3  C   UNK N   1      31.810  18.181   8.561  0.00  0.00     0.065 C 
HETATM    4  C   UNK N   1      31.996  17.022   7.570  0.00  0.00     0.064 C 
HETATM    5  C   UNK N   1      30.917  17.117   6.491  0.00  0.00     0.042 C 
HETATM    6  C   UNK N   1      29.507  17.037   7.083  0.00  0.00     0.036 C 
HETATM    7  C   UNK N   1      27.970  17.998   8.919  0.00  0.00     0.043 C 
ENDROOT
BRANCH   4   8
HETATM    8  C   UNK N   1      33.386  17.070   6.907  0.00  0.00     0.012 C 
HETATM    9  C   UNK N   1      33.323  17.469   5.437  0.00  0.00     0.012 C 
HETATM   10  C   UNK N   1      34.349  17.994   7.635  0.00  0.00     0.012 C 
ENDBRANCH   4   8
BRANCH   4  11
HETATM   11  O   UNK N   1      31.855  15.804   8.244  0.00  0.00    -0.389 OA
HETATM   12  H   UNK N   1      32.417  15.128   8.656  0.00  0.00     0.210 HD
ENDBRANCH   4  11
TORSDOF 2
ENDMDL
