MODEL 1
REMARK VINA RESULT:      -6.4      0.000      0.000
REMARK  7 active torsions:
REMARK  status: ('A' for Active; 'I' for Inactive)
REMARK       I    between atoms: N_1  and  C_2 
REMARK       I    between atoms: N_1  and  C_24 
REMARK    1  A    between atoms: C_2  and  O_4 
REMARK    2  A    between atoms: C_5  and  O_4 
REMARK    3  A    between atoms: C_15  and  C_11 
REMARK    4  A    between atoms: C_12  and  O_13 
REMARK    5  A    between atoms: C_17  and  C_18 
REMARK    6  A    between atoms: C_18  and  C_19 
REMARK    7  A    between atoms: C_24  and  C_26 
ROOT
HETATM    1  C   UNK N   1      20.818  16.426   7.115  0.00  0.00     0.163 C 
HETATM    2  C   UNK N   1      21.107  17.898   6.738  0.00  0.00     0.038 C 
HETATM    3  C   UNK N   1      21.077  18.197   5.233  0.00  0.00     0.043 C 
HETATM    4  C   UNK N   1      20.518  17.032   4.439  0.00  0.00     0.091 A 
HETATM    5  O   UNK N   1      19.117  17.120   4.327  0.00  0.00    -0.374 OA
HETATM    6  C   UNK N   1      19.860  17.346   3.152  0.00  0.00     0.207 A 
HETATM    7  C   UNK N   1      20.996  15.584   4.731  0.00  0.00     0.091 C 
HETATM    8  C   UNK N   1      21.562  15.422   6.187  0.00  0.00     0.160 C 
ENDROOT
BRANCH   1   9
HETATM    9  O   UNK N   1      21.066  16.235   8.464  0.00  0.00    -0.296 OA
BRANCH   9  10
HETATM   10  C   UNK N   1      20.599  15.127   9.108  0.00  0.00     0.367 C 
HETATM   11  N   UNK N   1      21.486  14.173   9.522  0.00  0.00    -0.272 N 
HETATM   12  C   UNK N   1      21.215  13.055  10.237  0.00  0.00     0.239 C 
HETATM   13  H   UNK N   1      22.428  14.314   9.271  0.00  0.00     0.174 HD
HETATM   14  O   UNK N   1      20.079  12.791  10.603  0.00  0.00    -0.272 OA
HETATM   15  O   UNK N   1      19.405  15.018   9.337  0.00  0.00    -0.238 OA
BRANCH  12  16
HETATM   16  C   UNK N   1      22.347  12.158  10.610  0.00  0.00     0.217 C 
HETATM   17 Cl   UNK N   1      22.430  11.988  12.381  0.00  0.00    -0.121 Cl
ENDBRANCH  12  16
ENDBRANCH   9  10
ENDBRANCH   1   9
BRANCH   8  18
HETATM   18  O   UNK N   1      22.976  15.396   6.321  0.00  0.00    -0.388 OA
HETATM   19  C   UNK N   1      23.462  14.128   6.653  0.00  0.00     0.202 C 
ENDBRANCH   8  18
BRANCH   7  20
HETATM   20  C   UNK N   1      21.863  15.084   3.555  0.00  0.00     0.093 A 
HETATM   21  O   UNK N   1      22.087  13.705   3.391  0.00  0.00    -0.369 OA
HETATM   22  C   UNK N   1      21.068  14.274   2.593  0.00  0.00     0.160 A 
HETATM   23  C   UNK N   1      23.063  15.886   3.060  0.00  0.00     0.049 C 
BRANCH  22  24
HETATM   24  C   UNK N   1      21.399  14.410   1.113  0.00  0.00     0.062 C 
BRANCH  24  25
HETATM   25  C   UNK N   1      21.886  13.091   0.551  0.00  0.00    -0.022 C 
HETATM   26  C   UNK N   1      23.157  12.809   0.198  0.00  0.00    -0.091 C 
HETATM   27  C   UNK N   1      23.476  11.458  -0.344  0.00  0.00     0.042 C 
HETATM   28  C   UNK N   1      24.274  13.791   0.341  0.00  0.00     0.042 C 
ENDBRANCH  24  25
ENDBRANCH  22  24
ENDBRANCH   7  20
TORSDOF 7
ENDMDL
MODEL 2
REMARK VINA RESULT:      -6.4     14.090     17.994
REMARK  7 active torsions:
REMARK  status: ('A' for Active; 'I' for Inactive)
REMARK       I    between atoms: N_1  and  C_2 
REMARK       I    between atoms: N_1  and  C_24 
REMARK    1  A    between atoms: C_2  and  O_4 
REMARK    2  A    between atoms: C_5  and  O_4 
REMARK    3  A    between atoms: C_15  and  C_11 
REMARK    4  A    between atoms: C_12  and  O_13 
REMARK    5  A    between atoms: C_17  and  C_18 
REMARK    6  A    between atoms: C_18  and  C_19 
REMARK    7  A    between atoms: C_24  and  C_26 
ROOT
HETATM    1  C   UNK N   1      35.667  14.008  12.812  0.00  0.00     0.163 C 
HETATM    2  C   UNK N   1      36.513  13.120  11.869  0.00  0.00     0.038 C 
HETATM    3  C   UNK N   1      36.513  11.626  12.218  0.00  0.00     0.043 C 
HETATM    4  C   UNK N   1      35.475  11.293  13.273  0.00  0.00     0.091 A 
HETATM    5  O   UNK N   1      34.231  10.997  12.684  0.00  0.00    -0.374 OA
HETATM    6  C   UNK N   1      34.925   9.921  13.271  0.00  0.00     0.207 A 
HETATM    7  C   UNK N   1      35.331  12.183  14.538  0.00  0.00     0.091 C 
HETATM    8  C   UNK N   1      35.871  13.640  14.310  0.00  0.00     0.160 C 
ENDROOT
BRANCH   1   9
HETATM    9  O   UNK N   1      35.899  15.342  12.524  0.00  0.00    -0.296 OA
BRANCH   9  10
HETATM   10  C   UNK N   1      35.686  15.831  11.268  0.00  0.00     0.367 C 
HETATM   11  N   UNK N   1      34.458  15.667  10.689  0.00  0.00    -0.272 N 
HETATM   12  C   UNK N   1      34.045  16.149   9.492  0.00  0.00     0.239 C 
HETATM   13  H   UNK N   1      33.801  15.140  11.199  0.00  0.00     0.174 HD
HETATM   14  O   UNK N   1      34.781  16.821   8.785  0.00  0.00    -0.272 OA
HETATM   15  O   UNK N   1      36.577  16.436  10.694  0.00  0.00    -0.238 OA
BRANCH  12  16
HETATM   16  C   UNK N   1      32.643  15.875   9.062  0.00  0.00     0.217 C 
HETATM   17 Cl   UNK N   1      31.876  17.379   8.494  0.00  0.00    -0.121 Cl
ENDBRANCH  12  16
ENDBRANCH   9  10
ENDBRANCH   1   9
BRANCH   8  18
HETATM   18  O   UNK N   1      37.154  13.934  14.844  0.00  0.00    -0.388 OA
HETATM   19  C   UNK N   1      37.128  14.998  15.751  0.00  0.00     0.202 C 
ENDBRANCH   8  18
BRANCH   7  20
HETATM   20  C   UNK N   1      35.839  11.404  15.771  0.00  0.00     0.093 A 
HETATM   21  O   UNK N   1      35.734  11.979  17.050  0.00  0.00    -0.369 OA
HETATM   22  C   UNK N   1      34.727  11.053  16.694  0.00  0.00     0.160 A 
HETATM   23  C   UNK N   1      37.068  10.503  15.687  0.00  0.00     0.049 C 
BRANCH  22  24
HETATM   24  C   UNK N   1      34.797   9.708  17.406  0.00  0.00     0.062 C 
BRANCH  24  25
HETATM   25  C   UNK N   1      34.930   9.901  18.902  0.00  0.00    -0.022 C 
HETATM   26  C   UNK N   1      34.085   9.417  19.834  0.00  0.00    -0.091 C 
HETATM   27  C   UNK N   1      34.355   9.697  21.273  0.00  0.00     0.042 C 
HETATM   28  C   UNK N   1      32.888   8.591  19.492  0.00  0.00     0.042 C 
ENDBRANCH  24  25
ENDBRANCH  22  24
ENDBRANCH   7  20
TORSDOF 7
ENDMDL
MODEL 3
REMARK VINA RESULT:      -6.4      1.389      2.027
REMARK  7 active torsions:
REMARK  status: ('A' for Active; 'I' for Inactive)
REMARK       I    between atoms: N_1  and  C_2 
REMARK       I    between atoms: N_1  and  C_24 
REMARK    1  A    between atoms: C_2  and  O_4 
REMARK    2  A    between atoms: C_5  and  O_4 
REMARK    3  A    between atoms: C_15  and  C_11 
REMARK    4  A    between atoms: C_12  and  O_13 
REMARK    5  A    between atoms: C_17  and  C_18 
REMARK    6  A    between atoms: C_18  and  C_19 
REMARK    7  A    between atoms: C_24  and  C_26 
ROOT
HETATM    1  C   UNK N   1      20.785  15.741   7.573  0.00  0.00     0.163 C 
HETATM    2  C   UNK N   1      20.892  17.240   7.205  0.00  0.00     0.038 C 
HETATM    3  C   UNK N   1      20.700  17.555   5.716  0.00  0.00     0.043 C 
HETATM    4  C   UNK N   1      20.193  16.350   4.946  0.00  0.00     0.091 A 
HETATM    5  O   UNK N   1      18.786  16.298   4.957  0.00  0.00    -0.374 OA
HETATM    6  C   UNK N   1      19.397  16.613   3.728  0.00  0.00     0.207 A 
HETATM    7  C   UNK N   1      20.836  14.954   5.164  0.00  0.00     0.091 C 
HETATM    8  C   UNK N   1      21.541  14.830   6.562  0.00  0.00     0.160 C 
ENDROOT
BRANCH   1   9
HETATM    9  O   UNK N   1      21.168  15.558   8.890  0.00  0.00    -0.296 OA
BRANCH   9  10
HETATM   10  C   UNK N   1      20.875  14.397   9.546  0.00  0.00     0.367 C 
HETATM   11  N   UNK N   1      21.896  13.643  10.055  0.00  0.00    -0.272 N 
HETATM   12  C   UNK N   1      21.791  12.513  10.795  0.00  0.00     0.239 C 
HETATM   13  H   UNK N   1      22.809  13.957   9.862  0.00  0.00     0.174 HD
HETATM   14  O   UNK N   1      20.703  12.045  11.096  0.00  0.00    -0.272 OA
HETATM   15  O   UNK N   1      19.711  14.066   9.700  0.00  0.00    -0.238 OA
BRANCH  12  16
HETATM   16  C   UNK N   1      23.043  11.862  11.278  0.00  0.00     0.217 C 
HETATM   17 Cl   UNK N   1      23.087  11.873  13.059  0.00  0.00    -0.121 Cl
ENDBRANCH  12  16
ENDBRANCH   9  10
ENDBRANCH   1   9
BRANCH   8  18
HETATM   18  O   UNK N   1      22.957  14.945   6.574  0.00  0.00    -0.388 OA
HETATM   19  C   UNK N   1      23.590  13.765   6.975  0.00  0.00     0.202 C 
ENDBRANCH   8  18
BRANCH   7  20
HETATM   20  C   UNK N   1      21.643  14.560   3.907  0.00  0.00     0.093 A 
HETATM   21  O   UNK N   1      22.180  13.265   3.800  0.00  0.00    -0.369 OA
HETATM   22  C   UNK N   1      20.958  13.494   3.128  0.00  0.00     0.160 A 
HETATM   23  C   UNK N   1      22.532  15.571   3.189  0.00  0.00     0.049 C 
BRANCH  22  24
HETATM   24  C   UNK N   1      21.052  13.558   1.609  0.00  0.00     0.062 C 
BRANCH  24  25
HETATM   25  C   UNK N   1      19.679  13.426   0.982  0.00  0.00    -0.022 C 
HETATM   26  C   UNK N   1      18.979  14.424   0.406  0.00  0.00    -0.091 C 
HETATM   27  C   UNK N   1      17.635  14.132  -0.165  0.00  0.00     0.042 C 
HETATM   28  C   UNK N   1      19.500  15.821   0.298  0.00  0.00     0.042 C 
ENDBRANCH  24  25
ENDBRANCH  22  24
ENDBRANCH   7  20
TORSDOF 7
ENDMDL
MODEL 4
REMARK VINA RESULT:      -6.3     10.621     12.267
REMARK  7 active torsions:
REMARK  status: ('A' for Active; 'I' for Inactive)
REMARK       I    between atoms: N_1  and  C_2 
REMARK       I    between atoms: N_1  and  C_24 
REMARK    1  A    between atoms: C_2  and  O_4 
REMARK    2  A    between atoms: C_5  and  O_4 
REMARK    3  A    between atoms: C_15  and  C_11 
REMARK    4  A    between atoms: C_12  and  O_13 
REMARK    5  A    between atoms: C_17  and  C_18 
REMARK    6  A    between atoms: C_18  and  C_19 
REMARK    7  A    between atoms: C_24  and  C_26 
ROOT
HETATM    1  C   UNK N   1      34.348  15.907   8.616  0.00  0.00     0.163 C 
HETATM    2  C   UNK N   1      34.220  17.434   8.829  0.00  0.00     0.038 C 
HETATM    3  C   UNK N   1      32.992  18.077   8.170  0.00  0.00     0.043 C 
HETATM    4  C   UNK N   1      32.018  17.034   7.655  0.00  0.00     0.091 A 
HETATM    5  O   UNK N   1      31.096  16.665   8.654  0.00  0.00    -0.374 OA
HETATM    6  C   UNK N   1      30.593  17.421   7.577  0.00  0.00     0.207 A 
HETATM    7  C   UNK N   1      32.534  15.812   6.849  0.00  0.00     0.091 C 
HETATM    8  C   UNK N   1      34.041  15.488   7.149  0.00  0.00     0.160 C 
ENDROOT
BRANCH   1   9
HETATM    9  O   UNK N   1      35.580  15.476   9.078  0.00  0.00    -0.296 OA
BRANCH   9  10
HETATM   10  C   UNK N   1      35.857  15.465  10.415  0.00  0.00     0.367 C 
HETATM   11  N   UNK N   1      35.396  14.431  11.182  0.00  0.00    -0.272 N 
HETATM   12  C   UNK N   1      35.637  14.216  12.498  0.00  0.00     0.239 C 
HETATM   13  H   UNK N   1      34.825  13.770  10.727  0.00  0.00     0.174 HD
HETATM   14  O   UNK N   1      36.339  14.973  13.151  0.00  0.00    -0.272 OA
HETATM   15  O   UNK N   1      36.539  16.354  10.899  0.00  0.00    -0.238 OA
BRANCH  12  16
HETATM   16  C   UNK N   1      35.056  12.999  13.136  0.00  0.00     0.217 C 
HETATM   17 Cl   UNK N   1      35.202  13.112  14.907  0.00  0.00    -0.121 Cl
ENDBRANCH  12  16
ENDBRANCH   9  10
ENDBRANCH   1   9
BRANCH   8  18
HETATM   18  O   UNK N   1      34.989  15.912   6.179  0.00  0.00    -0.388 OA
HETATM   19  C   UNK N   1      35.691  14.845   5.612  0.00  0.00     0.202 C 
ENDBRANCH   8  18
BRANCH   7  20
HETATM   20  C   UNK N   1      32.102  15.954   5.373  0.00  0.00     0.093 A 
HETATM   21  O   UNK N   1      32.312  14.888   4.479  0.00  0.00    -0.369 OA
HETATM   22  C   UNK N   1      31.013  15.000   5.026  0.00  0.00     0.160 A 
HETATM   23  C   UNK N   1      32.198  17.292   4.646  0.00  0.00     0.049 C 
BRANCH  22  24
HETATM   24  C   UNK N   1      29.938  15.478   4.059  0.00  0.00     0.062 C 
BRANCH  24  25
HETATM   25  C   UNK N   1      28.602  15.598   4.762  0.00  0.00    -0.022 C 
HETATM   26  C   UNK N   1      27.943  16.748   5.006  0.00  0.00    -0.091 C 
HETATM   27  C   UNK N   1      26.633  16.698   5.713  0.00  0.00     0.042 C 
HETATM   28  C   UNK N   1      28.462  18.084   4.582  0.00  0.00     0.042 C 
ENDBRANCH  24  25
ENDBRANCH  22  24
ENDBRANCH   7  20
TORSDOF 7
ENDMDL
MODEL 5
REMARK VINA RESULT:      -6.3      3.897      7.039
REMARK  7 active torsions:
REMARK  status: ('A' for Active; 'I' for Inactive)
REMARK       I    between atoms: N_1  and  C_2 
REMARK       I    between atoms: N_1  and  C_24 
REMARK    1  A    between atoms: C_2  and  O_4 
REMARK    2  A    between atoms: C_5  and  O_4 
REMARK    3  A    between atoms: C_15  and  C_11 
REMARK    4  A    between atoms: C_12  and  O_13 
REMARK    5  A    between atoms: C_17  and  C_18 
REMARK    6  A    between atoms: C_18  and  C_19 
REMARK    7  A    between atoms: C_24  and  C_26 
ROOT
HETATM    1  C   UNK N   1      23.478  17.973   4.958  0.00  0.00     0.163 C 
HETATM    2  C   UNK N   1      22.140  18.231   4.225  0.00  0.00     0.038 C 
HETATM    3  C   UNK N   1      20.910  17.592   4.882  0.00  0.00     0.043 C 
HETATM    4  C   UNK N   1      21.228  17.046   6.262  0.00  0.00     0.091 A 
HETATM    5  O   UNK N   1      21.051  18.034   7.250  0.00  0.00    -0.374 OA
HETATM    6  C   UNK N   1      20.117  16.980   7.235  0.00  0.00     0.207 A 
HETATM    7  C   UNK N   1      22.511  16.203   6.493  0.00  0.00     0.091 C 
HETATM    8  C   UNK N   1      23.621  16.494   5.421  0.00  0.00     0.160 C 
ENDROOT
BRANCH   1   9
HETATM    9  O   UNK N   1      24.529  18.422   4.176  0.00  0.00    -0.296 OA
BRANCH   9  10
HETATM   10  C   UNK N   1      25.398  19.361   4.651  0.00  0.00     0.367 C 
HETATM   11  N   UNK N   1      26.237  19.034   5.679  0.00  0.00    -0.272 N 
HETATM   12  C   UNK N   1      27.209  19.805   6.223  0.00  0.00     0.239 C 
HETATM   13  H   UNK N   1      26.122  18.137   6.069  0.00  0.00     0.174 HD
HETATM   14  O   UNK N   1      27.438  20.932   5.806  0.00  0.00    -0.272 OA
HETATM   15  O   UNK N   1      25.440  20.464   4.131  0.00  0.00    -0.238 OA
BRANCH  12  16
HETATM   16  C   UNK N   1      28.035  19.236   7.326  0.00  0.00     0.217 C 
HETATM   17 Cl   UNK N   1      27.924  17.458   7.315  0.00  0.00    -0.121 Cl
ENDBRANCH  12  16
ENDBRANCH   9  10
ENDBRANCH   1   9
BRANCH   8  18
HETATM   18  O   UNK N   1      23.767  15.537   4.380  0.00  0.00    -0.388 OA
HETATM   19  C   UNK N   1      25.032  14.941   4.371  0.00  0.00     0.202 C 
ENDBRANCH   8  18
BRANCH   7  20
HETATM   20  C   UNK N   1      22.117  14.732   6.751  0.00  0.00     0.093 A 
HETATM   21  O   UNK N   1      23.100  13.806   7.144  0.00  0.00    -0.369 OA
HETATM   22  C   UNK N   1      22.307  14.356   8.178  0.00  0.00     0.160 A 
HETATM   23  C   UNK N   1      21.034  14.047   5.923  0.00  0.00     0.049 C 
BRANCH  22  24
HETATM   24  C   UNK N   1      21.293  13.403   8.798  0.00  0.00     0.062 C 
BRANCH  24  25
HETATM   25  C   UNK N   1      21.660  13.091  10.233  0.00  0.00    -0.022 C 
HETATM   26  C   UNK N   1      22.539  12.150  10.632  0.00  0.00    -0.091 C 
HETATM   27  C   UNK N   1      22.791  11.964  12.089  0.00  0.00     0.042 C 
HETATM   28  C   UNK N   1      23.292  11.286   9.673  0.00  0.00     0.042 C 
ENDBRANCH  24  25
ENDBRANCH  22  24
ENDBRANCH   7  20
TORSDOF 7
ENDMDL
MODEL 6
REMARK VINA RESULT:      -6.3     11.051     14.185
REMARK  7 active torsions:
REMARK  status: ('A' for Active; 'I' for Inactive)
REMARK       I    between atoms: N_1  and  C_2 
REMARK       I    between atoms: N_1  and  C_24 
REMARK    1  A    between atoms: C_2  and  O_4 
REMARK    2  A    between atoms: C_5  and  O_4 
REMARK    3  A    between atoms: C_15  and  C_11 
REMARK    4  A    between atoms: C_12  and  O_13 
REMARK    5  A    between atoms: C_17  and  C_18 
REMARK    6  A    between atoms: C_18  and  C_19 
REMARK    7  A    between atoms: C_24  and  C_26 
ROOT
HETATM    1  C   UNK N   1      32.528  15.419   7.312  0.00  0.00     0.163 C 
HETATM    2  C   UNK N   1      33.200  14.376   6.387  0.00  0.00     0.038 C 
HETATM    3  C   UNK N   1      34.063  13.334   7.109  0.00  0.00     0.043 C 
HETATM    4  C   UNK N   1      33.875  13.392   8.614  0.00  0.00     0.091 A 
HETATM    5  O   UNK N   1      32.811  12.566   9.023  0.00  0.00    -0.374 OA
HETATM    6  C   UNK N   1      34.108  12.144   9.372  0.00  0.00     0.207 A 
HETATM    7  C   UNK N   1      33.879  14.758   9.351  0.00  0.00     0.091 C 
HETATM    8  C   UNK N   1      33.500  15.952   8.404  0.00  0.00     0.160 C 
ENDROOT
BRANCH   1   9
HETATM    9  O   UNK N   1      31.946  16.413   6.543  0.00  0.00    -0.296 OA
BRANCH   9  10
HETATM   10  C   UNK N   1      30.593  16.591   6.544  0.00  0.00     0.367 C 
HETATM   11  N   UNK N   1      29.997  17.162   7.634  0.00  0.00    -0.272 N 
HETATM   12  C   UNK N   1      28.689  17.484   7.779  0.00  0.00     0.239 C 
HETATM   13  H   UNK N   1      30.584  17.360   8.400  0.00  0.00     0.174 HD
HETATM   14  O   UNK N   1      27.880  17.286   6.886  0.00  0.00    -0.272 OA
HETATM   15  O   UNK N   1      29.941  16.274   5.563  0.00  0.00    -0.238 OA
BRANCH  12  16
HETATM   16  C   UNK N   1      28.254  18.132   9.050  0.00  0.00     0.217 C 
HETATM   17 Cl   UNK N   1      29.674  18.714   9.954  0.00  0.00    -0.121 Cl
ENDBRANCH  12  16
ENDBRANCH   9  10
ENDBRANCH   1   9
BRANCH   8  18
HETATM   18  O   UNK N   1      34.573  16.755   7.931  0.00  0.00    -0.388 OA
HETATM   19  C   UNK N   1      34.424  18.103   8.267  0.00  0.00     0.202 C 
ENDBRANCH   8  18
BRANCH   7  20
HETATM   20  C   UNK N   1      35.168  14.880  10.194  0.00  0.00     0.093 A 
HETATM   21  O   UNK N   1      35.289  15.919  11.136  0.00  0.00    -0.369 OA
HETATM   22  C   UNK N   1      34.900  14.657  11.641  0.00  0.00     0.160 A 
HETATM   23  C   UNK N   1      36.531  14.522   9.611  0.00  0.00     0.049 C 
BRANCH  22  24
HETATM   24  C   UNK N   1      35.962  13.923  12.450  0.00  0.00     0.062 C 
BRANCH  24  25
HETATM   25  C   UNK N   1      35.355  13.306  13.693  0.00  0.00    -0.022 C 
HETATM   26  C   UNK N   1      35.791  13.490  14.955  0.00  0.00    -0.091 C 
HETATM   27  C   UNK N   1      35.084  12.808  16.074  0.00  0.00     0.042 C 
HETATM   28  C   UNK N   1      36.954  14.368  15.290  0.00  0.00     0.042 C 
ENDBRANCH  24  25
ENDBRANCH  22  24
ENDBRANCH   7  20
TORSDOF 7
ENDMDL
MODEL 7
REMARK VINA RESULT:      -6.0     13.102     16.670
REMARK  7 active torsions:
REMARK  status: ('A' for Active; 'I' for Inactive)
REMARK       I    between atoms: N_1  and  C_2 
REMARK       I    between atoms: N_1  and  C_24 
REMARK    1  A    between atoms: C_2  and  O_4 
REMARK    2  A    between atoms: C_5  and  O_4 
REMARK    3  A    between atoms: C_15  and  C_11 
REMARK    4  A    between atoms: C_12  and  O_13 
REMARK    5  A    between atoms: C_17  and  C_18 
REMARK    6  A    between atoms: C_18  and  C_19 
REMARK    7  A    between atoms: C_24  and  C_26 
ROOT
HETATM    1  C   UNK N   1      34.561  12.694  10.029  0.00  0.00     0.163 C 
HETATM    2  C   UNK N   1      35.332  11.392   9.704  0.00  0.00     0.038 C 
HETATM    3  C   UNK N   1      35.802  10.598  10.929  0.00  0.00     0.043 C 
HETATM    4  C   UNK N   1      35.192  11.128  12.213  0.00  0.00     0.091 A 
HETATM    5  O   UNK N   1      33.956  10.509  12.480  0.00  0.00    -0.374 OA
HETATM    6  C   UNK N   1      35.028  10.171  13.329  0.00  0.00     0.207 A 
HETATM    7  C   UNK N   1      35.159  12.655  12.492  0.00  0.00     0.091 C 
HETATM    8  C   UNK N   1      35.232  13.507  11.174  0.00  0.00     0.160 C 
ENDROOT
BRANCH   1   9
HETATM    9  O   UNK N   1      34.364  13.419   8.866  0.00  0.00    -0.296 OA
BRANCH   9  10
HETATM   10  C   UNK N   1      33.263  14.213   8.719  0.00  0.00     0.367 C 
HETATM   11  N   UNK N   1      33.426  15.567   8.632  0.00  0.00    -0.272 N 
HETATM   12  C   UNK N   1      32.466  16.496   8.408  0.00  0.00     0.239 C 
HETATM   13  H   UNK N   1      34.344  15.905   8.745  0.00  0.00     0.174 HD
HETATM   14  O   UNK N   1      31.296  16.180   8.248  0.00  0.00    -0.272 OA
HETATM   15  O   UNK N   1      32.158  13.704   8.631  0.00  0.00    -0.238 OA
BRANCH  12  16
HETATM   16  C   UNK N   1      32.870  17.929   8.321  0.00  0.00     0.217 C 
HETATM   17 Cl   UNK N   1      34.563  18.052   7.779  0.00  0.00    -0.121 Cl
ENDBRANCH  12  16
ENDBRANCH   9  10
ENDBRANCH   1   9
BRANCH   8  18
HETATM   18  O   UNK N   1      36.491  14.085  10.859  0.00  0.00    -0.388 OA
HETATM   19  C   UNK N   1      36.437  15.479  10.777  0.00  0.00     0.202 C 
ENDBRANCH   8  18
BRANCH   7  20
HETATM   20  C   UNK N   1      36.149  12.989  13.629  0.00  0.00     0.093 A 
HETATM   21  O   UNK N   1      36.224  14.304  14.124  0.00  0.00    -0.369 OA
HETATM   22  C   UNK N   1      35.439  13.397  14.872  0.00  0.00     0.160 A 
HETATM   23  C   UNK N   1      37.507  12.302  13.722  0.00  0.00     0.049 C 
BRANCH  22  24
HETATM   24  C   UNK N   1      36.038  12.960  16.202  0.00  0.00     0.062 C 
BRANCH  24  25
HETATM   25  C   UNK N   1      35.172  11.906  16.858  0.00  0.00    -0.022 C 
HETATM   26  C   UNK N   1      35.502  10.609  17.023  0.00  0.00    -0.091 C 
HETATM   27  C   UNK N   1      34.534   9.693  17.689  0.00  0.00     0.042 C 
HETATM   28  C   UNK N   1      36.812  10.044  16.579  0.00  0.00     0.042 C 
ENDBRANCH  24  25
ENDBRANCH  22  24
ENDBRANCH   7  20
TORSDOF 7
ENDMDL
MODEL 8
REMARK VINA RESULT:      -6.0     11.804     14.021
REMARK  7 active torsions:
REMARK  status: ('A' for Active; 'I' for Inactive)
REMARK       I    between atoms: N_1  and  C_2 
REMARK       I    between atoms: N_1  and  C_24 
REMARK    1  A    between atoms: C_2  and  O_4 
REMARK    2  A    between atoms: C_5  and  O_4 
REMARK    3  A    between atoms: C_15  and  C_11 
REMARK    4  A    between atoms: C_12  and  O_13 
REMARK    5  A    between atoms: C_17  and  C_18 
REMARK    6  A    between atoms: C_18  and  C_19 
REMARK    7  A    between atoms: C_24  and  C_26 
ROOT
HETATM    1  C   UNK N   1      35.289  12.861  11.014  0.00  0.00     0.163 C 
HETATM    2  C   UNK N   1      36.702  13.408  10.702  0.00  0.00     0.038 C 
HETATM    3  C   UNK N   1      36.732  14.827  10.119  0.00  0.00     0.043 C 
HETATM    4  C   UNK N   1      35.374  15.499  10.204  0.00  0.00     0.091 A 
HETATM    5  O   UNK N   1      35.219  16.173  11.431  0.00  0.00    -0.374 OA
HETATM    6  C   UNK N   1      35.355  16.975  10.281  0.00  0.00     0.207 A 
HETATM    7  C   UNK N   1      34.092  14.728   9.788  0.00  0.00     0.091 C 
HETATM    8  C   UNK N   1      34.273  13.171   9.877  0.00  0.00     0.160 C 
ENDROOT
BRANCH   1   9
HETATM    9  O   UNK N   1      35.373  11.519  11.342  0.00  0.00    -0.296 OA
BRANCH   9  10
HETATM   10  C   UNK N   1      34.839  11.052  12.508  0.00  0.00     0.367 C 
HETATM   11  N   UNK N   1      34.870  11.847  13.620  0.00  0.00    -0.272 N 
HETATM   12  C   UNK N   1      34.325  11.584  14.832  0.00  0.00     0.239 C 
HETATM   13  H   UNK N   1      35.343  12.707  13.530  0.00  0.00     0.174 HD
HETATM   14  O   UNK N   1      33.711  10.549  15.046  0.00  0.00    -0.272 OA
HETATM   15  O   UNK N   1      34.311   9.953  12.535  0.00  0.00    -0.238 OA
BRANCH  12  16
HETATM   16  C   UNK N   1      34.452  12.611  15.906  0.00  0.00     0.217 C 
HETATM   17 Cl   UNK N   1      36.043  13.405  15.805  0.00  0.00    -0.121 Cl
ENDBRANCH  12  16
ENDBRANCH   9  10
ENDBRANCH   1   9
BRANCH   8  18
HETATM   18  O   UNK N   1      34.495  12.485   8.652  0.00  0.00    -0.388 OA
HETATM   19  C   UNK N   1      33.512  11.527   8.387  0.00  0.00     0.202 C 
ENDBRANCH   8  18
BRANCH   7  20
HETATM   20  C   UNK N   1      33.542  15.322   8.473  0.00  0.00     0.093 A 
HETATM   21  O   UNK N   1      32.326  14.849   7.949  0.00  0.00    -0.369 OA
HETATM   22  C   UNK N   1      32.263  16.050   8.692  0.00  0.00     0.160 A 
HETATM   23  C   UNK N   1      34.479  15.757   7.349  0.00  0.00     0.049 C 
BRANCH  22  24
HETATM   24  C   UNK N   1      32.018  17.311   7.873  0.00  0.00     0.062 C 
BRANCH  24  25
HETATM   25  C   UNK N   1      30.560  17.419   7.481  0.00  0.00    -0.022 C 
HETATM   26  C   UNK N   1      29.594  18.021   8.203  0.00  0.00    -0.091 C 
HETATM   27  C   UNK N   1      28.200  18.041   7.678  0.00  0.00     0.042 C 
HETATM   28  C   UNK N   1      29.861  18.692   9.512  0.00  0.00     0.042 C 
ENDBRANCH  24  25
ENDBRANCH  22  24
ENDBRANCH   7  20
TORSDOF 7
ENDMDL
MODEL 9
REMARK VINA RESULT:      -5.9     12.253     15.729
REMARK  7 active torsions:
REMARK  status: ('A' for Active; 'I' for Inactive)
REMARK       I    between atoms: N_1  and  C_2 
REMARK       I    between atoms: N_1  and  C_24 
REMARK    1  A    between atoms: C_2  and  O_4 
REMARK    2  A    between atoms: C_5  and  O_4 
REMARK    3  A    between atoms: C_15  and  C_11 
REMARK    4  A    between atoms: C_12  and  O_13 
REMARK    5  A    between atoms: C_17  and  C_18 
REMARK    6  A    between atoms: C_18  and  C_19 
REMARK    7  A    between atoms: C_24  and  C_26 
ROOT
HETATM    1  C   UNK N   1      34.306  14.341   8.594  0.00  0.00     0.163 C 
HETATM    2  C   UNK N   1      35.320  13.443   7.847  0.00  0.00     0.038 C 
HETATM    3  C   UNK N   1      35.912  12.302   8.684  0.00  0.00     0.043 C 
HETATM    4  C   UNK N   1      35.186  12.139  10.006  0.00  0.00     0.091 A 
HETATM    5  O   UNK N   1      34.088  11.266   9.877  0.00  0.00    -0.374 OA
HETATM    6  C   UNK N   1      35.189  10.791  10.616  0.00  0.00     0.207 A 
HETATM    7  C   UNK N   1      34.852  13.381  10.875  0.00  0.00     0.091 C 
HETATM    8  C   UNK N   1      34.785  14.703  10.030  0.00  0.00     0.160 C 
ENDROOT
BRANCH   1   9
HETATM    9  O   UNK N   1      33.995  15.440   7.811  0.00  0.00    -0.296 OA
BRANCH   9  10
HETATM   10  C   UNK N   1      32.695  15.763   7.551  0.00  0.00     0.367 C 
HETATM   11  N   UNK N   1      32.083  16.725   8.307  0.00  0.00    -0.272 N 
HETATM   12  C   UNK N   1      30.835  17.225   8.144  0.00  0.00     0.239 C 
HETATM   13  H   UNK N   1      32.609  17.094   9.054  0.00  0.00     0.174 HD
HETATM   14  O   UNK N   1      30.105  16.840   7.244  0.00  0.00    -0.272 OA
HETATM   15  O   UNK N   1      32.109  15.220   6.629  0.00  0.00    -0.238 OA
BRANCH  12  16
HETATM   16  C   UNK N   1      30.374  18.299   9.071  0.00  0.00     0.217 C 
HETATM   17 Cl   UNK N   1      28.659  18.670   8.768  0.00  0.00    -0.121 Cl
ENDBRANCH  12  16
ENDBRANCH   9  10
ENDBRANCH   1   9
BRANCH   8  18
HETATM   18  O   UNK N   1      35.915  15.563  10.101  0.00  0.00    -0.388 OA
HETATM   19  C   UNK N   1      35.590  16.839  10.568  0.00  0.00     0.202 C 
ENDBRANCH   8  18
BRANCH   7  20
HETATM   20  C   UNK N   1      35.737  13.373  12.141  0.00  0.00     0.093 A 
HETATM   21  O   UNK N   1      35.621  14.414  13.080  0.00  0.00    -0.369 OA
HETATM   22  C   UNK N   1      34.923  13.221  13.378  0.00  0.00     0.160 A 
HETATM   23  C   UNK N   1      37.166  12.840  12.104  0.00  0.00     0.049 C 
BRANCH  22  24
HETATM   24  C   UNK N   1      35.509  12.389  14.511  0.00  0.00     0.062 C 
BRANCH  24  25
HETATM   25  C   UNK N   1      35.298  13.077  15.843  0.00  0.00    -0.022 C 
HETATM   26  C   UNK N   1      35.345  12.480  17.052  0.00  0.00    -0.091 C 
HETATM   27  C   UNK N   1      35.113  13.298  18.274  0.00  0.00     0.042 C 
HETATM   28  C   UNK N   1      35.639  11.025  17.226  0.00  0.00     0.042 C 
ENDBRANCH  24  25
ENDBRANCH  22  24
ENDBRANCH   7  20
TORSDOF 7
ENDMDL
