REMARK  7 active torsions:
REMARK  status: ('A' for Active; 'I' for Inactive)
REMARK       I    between atoms: N_1  and  C_2 
REMARK       I    between atoms: N_1  and  C_24 
REMARK    1  A    between atoms: C_2  and  O_4 
REMARK    2  A    between atoms: C_5  and  O_4 
REMARK    3  A    between atoms: C_15  and  C_11 
REMARK    4  A    between atoms: C_12  and  O_13 
REMARK    5  A    between atoms: C_17  and  C_18 
REMARK    6  A    between atoms: C_18  and  C_19 
REMARK    7  A    between atoms: C_24  and  C_26 
ROOT
HETATM    1  C   UNK N   1       0.232   2.319  -0.064  0.00  0.00     0.163 C 
HETATM    2  C   UNK N   1       0.429   2.165   1.463  0.00  0.00     0.038 C 
HETATM    3  C   UNK N   1       0.141   0.762   2.013  0.00  0.00     0.043 C 
HETATM    4  C   UNK N   1      -0.036  -0.254   0.900  0.00  0.00     0.091 A 
HETATM    5  O   UNK N   1       1.199  -0.821   0.531  0.00  0.00    -0.374 OA
HETATM    6  C   UNK N   1       0.296  -1.661   1.211  0.00  0.00     0.207 A 
HETATM    7  C   UNK N   1      -0.923   0.079  -0.330  0.00  0.00     0.091 C 
HETATM    8  C   UNK N   1      -1.068   1.625  -0.564  0.00  0.00     0.160 C 
ENDROOT
BRANCH   1   9
HETATM    9  O   UNK N   1       0.325   3.656  -0.411  0.00  0.00    -0.296 OA
BRANCH   9  10
HETATM   10  C   UNK N   1       1.514   4.319  -0.315  0.00  0.00     0.367 C 
HETATM   11  N   UNK N   1       2.645   3.617  -0.003  0.00  0.00    -0.272 N 
HETATM   12  C   UNK N   1       3.913   4.090   0.059  0.00  0.00     0.239 C 
HETATM   13  H   UNK N   1       2.524   2.661   0.200  0.00  0.00     0.174 HD
HETATM   14  O   UNK N   1       4.171   5.260  -0.182  0.00  0.00    -0.272 OA
HETATM   15  O   UNK N   1       1.559   5.517  -0.543  0.00  0.00    -0.238 OA
BRANCH  12  16
HETATM   16  C   UNK N   1       5.011   3.137   0.392  0.00  0.00     0.217 C 
HETATM   17 Cl   UNK N   1       5.941   2.743  -1.075  0.00  0.00    -0.121 Cl
ENDBRANCH  12  16
ENDBRANCH   9  10
ENDBRANCH   1   9
BRANCH   8  18
HETATM   18  O   UNK N   1      -2.285   2.222  -0.137  0.00  0.00    -0.388 OA
HETATM   19  C   UNK N   1      -2.451   2.171   1.250  0.00  0.00     0.202 C 
ENDBRANCH   8  18
BRANCH   7  20
HETATM   20  C   UNK N   1      -2.211  -0.772  -0.277  0.00  0.00     0.093 A 
HETATM   21  O   UNK N   1      -3.009  -0.901  -1.428  0.00  0.00    -0.369 OA
HETATM   22  C   UNK N   1      -2.117  -1.965  -1.161  0.00  0.00     0.160 A 
HETATM   23  C   UNK N   1      -3.071  -0.827   0.982  0.00  0.00     0.049 C 
BRANCH  22  24
HETATM   24  C   UNK N   1      -2.767  -3.255  -0.678  0.00  0.00     0.062 C 
BRANCH  24  25
HETATM   25  C   UNK N   1      -1.775  -4.095   0.099  0.00  0.00    -0.022 C 
HETATM   26  C   UNK N   1      -0.574  -4.510  -0.352  0.00  0.00    -0.091 C 
HETATM   27  C   UNK N   1       0.289  -5.336   0.538  0.00  0.00     0.042 C 
HETATM   28  C   UNK N   1      -0.055  -4.164  -1.710  0.00  0.00     0.042 C 
ENDBRANCH  24  25
ENDBRANCH  22  24
ENDBRANCH   7  20
TORSDOF 7
