MODEL 1
REMARK VINA RESULT:      -7.7      0.000      0.000
REMARK  3 active torsions:
REMARK  status: ('A' for Active; 'I' for Inactive)
REMARK    1  A    between atoms: C_1  and  N_2 
REMARK    2  A    between atoms: N_2  and  C_10 
REMARK       I    between atoms: C_13  and  N_14 
REMARK    3  A    between atoms: N_14  and  C_19 
ROOT
HETATM    1  C   UNK N   1      20.574  17.731   4.288  0.00  0.00     0.145 C 
HETATM    2  C   UNK N   1      19.481  17.820   3.424  0.00  0.00     0.004 C 
HETATM    3  C   UNK N   1      19.558  18.723   2.373  0.00  0.00     0.021 C 
HETATM    4  C   UNK N   1      20.596  19.651   2.363  0.00  0.00     0.044 C 
HETATM    5  C   UNK N   1      21.362  19.849   3.525  0.00  0.00     0.021 C 
HETATM    6  C   UNK N   1      21.226  18.934   4.573  0.00  0.00     0.004 C 
HETATM    7  C   UNK N   1      20.944  20.262   1.120  0.00  0.00     0.099 C 
HETATM    8  N   UNK N   1      21.183  20.729   0.090  0.00  0.00    -0.191 NA
ENDROOT
BRANCH   1   9
HETATM    9  N   UNK N   1      21.500  16.801   3.776  0.00  0.00    -0.215 N 
HETATM   10  C   UNK N   1      22.516  16.213   4.533  0.00  0.00     0.680 C 
HETATM   11  N   UNK N   1      22.150  15.259   5.380  0.00  0.00    -0.177 N 
HETATM   12  N   UNK N   1      23.824  16.339   4.182  0.00  0.00    -0.202 N 
HETATM   13  C   UNK N   1      22.980  14.352   5.871  0.00  0.00     0.122 C 
ATOM     14  HN  UNK N   1      21.171  15.222   5.668  1.00  0.00     0.186 HD
HETATM   15  C   UNK N   1      24.350  14.478   5.602  0.00  0.00     0.066 C 
HETATM   16  C   UNK N   1      24.759  15.535   4.766  0.00  0.00     0.110 C 
ATOM     17  HN  UNK N   1      24.104  17.030   3.487  1.00  0.00     0.183 HD
HETATM   18  H   UNK N   1      21.427  16.550   2.828  0.00  0.00     0.178 HD
BRANCH  13  19
HETATM   19  N   UNK N   1      22.426  13.201   6.491  0.00  0.00    -0.341 N 
HETATM   20  H   UNK N   1      22.011  12.540   5.892  0.00  0.00     0.167 HD
BRANCH  19  21
HETATM   21  C   UNK N   1      22.402  12.886   7.914  0.00  0.00     0.045 A 
HETATM   22  C   UNK N   1      23.098  11.719   8.308  0.00  0.00    -0.034 A 
HETATM   23  C   UNK N   1      23.729  10.823   7.298  0.00  0.00     0.050 C 
HETATM   24  C   UNK N   1      23.226  11.373   9.656  0.00  0.00     0.015 A 
HETATM   25  C   UNK N   1      22.650  12.156  10.646  0.00  0.00    -0.061 A 
HETATM   26  C   UNK N   1      21.888  13.249  10.299  0.00  0.00     0.015 A 
HETATM   27  C   UNK N   1      22.858  11.836  12.081  0.00  0.00     0.048 C 
HETATM   28  C   UNK N   1      21.731  13.636   8.974  0.00  0.00    -0.034 A 
HETATM   29  C   UNK N   1      20.813  14.797   8.853  0.00  0.00     0.050 C 
ENDBRANCH  19  21
ENDBRANCH  13  19
ENDBRANCH   1   9
TORSDOF 3
ENDMDL
MODEL 2
REMARK VINA RESULT:      -7.7      4.828      6.695
REMARK  3 active torsions:
REMARK  status: ('A' for Active; 'I' for Inactive)
REMARK    1  A    between atoms: C_1  and  N_2 
REMARK    2  A    between atoms: N_2  and  C_10 
REMARK       I    between atoms: C_13  and  N_14 
REMARK    3  A    between atoms: N_14  and  C_19 
ROOT
HETATM    1  C   UNK N   1      22.267  18.453   4.381  0.00  0.00     0.145 C 
HETATM    2  C   UNK N   1      21.806  17.136   4.353  0.00  0.00     0.004 C 
HETATM    3  C   UNK N   1      21.063  16.734   3.252  0.00  0.00     0.021 C 
HETATM    4  C   UNK N   1      20.614  17.702   2.358  0.00  0.00     0.044 C 
HETATM    5  C   UNK N   1      20.668  19.059   2.719  0.00  0.00     0.021 C 
HETATM    6  C   UNK N   1      21.400  19.415   3.855  0.00  0.00     0.004 C 
HETATM    7  C   UNK N   1      20.255  17.289   1.039  0.00  0.00     0.099 C 
HETATM    8  N   UNK N   1      19.975  16.901  -0.014  0.00  0.00    -0.191 NA
ENDROOT
BRANCH   1   9
HETATM    9  N   UNK N   1      23.510  18.529   3.723  0.00  0.00    -0.215 N 
HETATM   10  C   UNK N   1      24.644  19.141   4.262  0.00  0.00     0.680 C 
HETATM   11  N   UNK N   1      25.282  18.474   5.216  0.00  0.00    -0.177 N 
HETATM   12  N   UNK N   1      25.268  20.165   3.622  0.00  0.00    -0.202 N 
HETATM   13  C   UNK N   1      26.542  18.698   5.555  0.00  0.00     0.122 C 
ATOM     14  HN  UNK N   1      24.771  17.746   5.717  1.00  0.00     0.186 HD
HETATM   15  C   UNK N   1      27.209  19.789   4.981  0.00  0.00     0.066 C 
HETATM   16  C   UNK N   1      26.514  20.551   4.022  0.00  0.00     0.110 C 
ATOM     17  HN  UNK N   1      24.807  20.642   2.847  1.00  0.00     0.183 HD
HETATM   18  H   UNK N   1      23.585  18.125   2.829  0.00  0.00     0.178 HD
BRANCH  13  19
HETATM   19  N   UNK N   1      27.209  17.721   6.341  0.00  0.00    -0.341 N 
HETATM   20  H   UNK N   1      26.638  17.058   6.789  0.00  0.00     0.167 HD
BRANCH  19  21
HETATM   21  C   UNK N   1      28.644  17.589   6.559  0.00  0.00     0.045 A 
HETATM   22  C   UNK N   1      29.112  17.898   7.857  0.00  0.00    -0.034 A 
HETATM   23  C   UNK N   1      28.187  18.425   8.901  0.00  0.00     0.050 C 
HETATM   24  C   UNK N   1      30.452  17.712   8.208  0.00  0.00     0.015 A 
HETATM   25  C   UNK N   1      31.368  17.239   7.281  0.00  0.00    -0.061 A 
HETATM   26  C   UNK N   1      30.972  17.012   5.981  0.00  0.00     0.015 A 
HETATM   27  C   UNK N   1      32.771  16.960   7.676  0.00  0.00     0.048 C 
HETATM   28  C   UNK N   1      29.653  17.180   5.582  0.00  0.00    -0.034 A 
HETATM   29  C   UNK N   1      29.492  16.941   4.124  0.00  0.00     0.050 C 
ENDBRANCH  19  21
ENDBRANCH  13  19
ENDBRANCH   1   9
TORSDOF 3
ENDMDL
MODEL 3
REMARK VINA RESULT:      -7.5     11.376     15.343
REMARK  3 active torsions:
REMARK  status: ('A' for Active; 'I' for Inactive)
REMARK    1  A    between atoms: C_1  and  N_2 
REMARK    2  A    between atoms: N_2  and  C_10 
REMARK       I    between atoms: C_13  and  N_14 
REMARK    3  A    between atoms: N_14  and  C_19 
ROOT
HETATM    1  C   UNK N   1      35.625  12.599  13.243  0.00  0.00     0.145 C 
HETATM    2  C   UNK N   1      34.506  11.960  13.780  0.00  0.00     0.004 C 
HETATM    3  C   UNK N   1      34.399  11.896  15.163  0.00  0.00     0.021 C 
HETATM    4  C   UNK N   1      35.501  12.250  15.937  0.00  0.00     0.044 C 
HETATM    5  C   UNK N   1      36.761  12.386  15.329  0.00  0.00     0.021 C 
HETATM    6  C   UNK N   1      36.826  12.410  13.933  0.00  0.00     0.004 C 
HETATM    7  C   UNK N   1      35.280  12.612  17.300  0.00  0.00     0.099 C 
HETATM    8  N   UNK N   1      35.047  12.894  18.397  0.00  0.00    -0.191 NA
ENDROOT
BRANCH   1   9
HETATM    9  N   UNK N   1      35.362  13.977  13.120  0.00  0.00    -0.215 N 
HETATM   10  C   UNK N   1      35.304  14.656  11.901  0.00  0.00     0.680 C 
HETATM   11  N   UNK N   1      34.213  14.466  11.168  0.00  0.00    -0.177 N 
HETATM   12  N   UNK N   1      36.118  15.712  11.638  0.00  0.00    -0.202 N 
HETATM   13  C   UNK N   1      33.815  15.292  10.213  0.00  0.00     0.122 C 
ATOM     14  HN  UNK N   1      33.649  13.635  11.352  1.00  0.00     0.186 HD
HETATM   15  C   UNK N   1      34.654  16.355   9.850  0.00  0.00     0.066 C 
HETATM   16  C   UNK N   1      35.852  16.520  10.571  0.00  0.00     0.110 C 
ATOM     17  HN  UNK N   1      36.924  15.899  12.235  1.00  0.00     0.183 HD
HETATM   18  H   UNK N   1      35.211  14.494  13.944  0.00  0.00     0.178 HD
BRANCH  13  19
HETATM   19  N   UNK N   1      32.485  15.169   9.731  0.00  0.00    -0.341 N 
HETATM   20  H   UNK N   1      31.832  14.773  10.351  0.00  0.00     0.167 HD
BRANCH  19  21
HETATM   21  C   UNK N   1      31.976  15.563   8.423  0.00  0.00     0.045 A 
HETATM   22  C   UNK N   1      32.175  14.640   7.370  0.00  0.00    -0.034 A 
HETATM   23  C   UNK N   1      32.951  13.386   7.584  0.00  0.00     0.050 C 
HETATM   24  C   UNK N   1      31.643  14.867   6.098  0.00  0.00     0.015 A 
HETATM   25  C   UNK N   1      30.922  16.021   5.827  0.00  0.00    -0.061 A 
HETATM   26  C   UNK N   1      30.784  16.986   6.800  0.00  0.00     0.015 A 
HETATM   27  C   UNK N   1      30.285  16.223   4.502  0.00  0.00     0.048 C 
HETATM   28  C   UNK N   1      31.292  16.809   8.080  0.00  0.00    -0.034 A 
HETATM   29  C   UNK N   1      31.077  18.013   8.922  0.00  0.00     0.050 C 
ENDBRANCH  19  21
ENDBRANCH  13  19
ENDBRANCH   1   9
TORSDOF 3
ENDMDL
MODEL 4
REMARK VINA RESULT:      -7.5     10.194     13.876
REMARK  3 active torsions:
REMARK  status: ('A' for Active; 'I' for Inactive)
REMARK    1  A    between atoms: C_1  and  N_2 
REMARK    2  A    between atoms: N_2  and  C_10 
REMARK       I    between atoms: C_13  and  N_14 
REMARK    3  A    between atoms: N_14  and  C_19 
ROOT
HETATM    1  C   UNK N   1      35.244  14.113  10.062  0.00  0.00     0.145 C 
HETATM    2  C   UNK N   1      34.514  13.238  10.869  0.00  0.00     0.004 C 
HETATM    3  C   UNK N   1      34.989  12.990  12.149  0.00  0.00     0.021 C 
HETATM    4  C   UNK N   1      36.269  13.423  12.484  0.00  0.00     0.044 C 
HETATM    5  C   UNK N   1      37.149  13.837  11.470  0.00  0.00     0.021 C 
HETATM    6  C   UNK N   1      36.635  14.041  10.186  0.00  0.00     0.004 C 
HETATM    7  C   UNK N   1      36.590  13.576  13.867  0.00  0.00     0.099 C 
HETATM    8  N   UNK N   1      36.799  13.681  15.000  0.00  0.00    -0.191 NA
ENDROOT
BRANCH   1   9
HETATM    9  N   UNK N   1      34.817  15.434  10.297  0.00  0.00    -0.215 N 
HETATM   10  C   UNK N   1      34.289  16.272   9.312  0.00  0.00     0.680 C 
HETATM   11  N   UNK N   1      33.043  16.023   8.926  0.00  0.00    -0.177 N 
HETATM   12  N   UNK N   1      34.859  17.472   9.022  0.00  0.00    -0.202 N 
HETATM   13  C   UNK N   1      32.270  16.910   8.320  0.00  0.00     0.122 C 
ATOM     14  HN  UNK N   1      32.660  15.095   9.108  1.00  0.00     0.186 HD
HETATM   15  C   UNK N   1      32.828  18.136   7.932  0.00  0.00     0.066 C 
HETATM   16  C   UNK N   1      34.174  18.379   8.268  0.00  0.00     0.110 C 
ATOM     17  HN  UNK N   1      35.793  17.692   9.368  1.00  0.00     0.183 HD
HETATM   18  H   UNK N   1      34.894  15.789  11.211  0.00  0.00     0.178 HD
BRANCH  13  19
HETATM   19  N   UNK N   1      30.875  16.651   8.256  0.00  0.00    -0.341 N 
HETATM   20  H   UNK N   1      30.557  15.855   8.738  0.00  0.00     0.167 HD
BRANCH  19  21
HETATM   21  C   UNK N   1      29.860  17.431   7.558  0.00  0.00     0.045 A 
HETATM   22  C   UNK N   1      29.150  18.375   8.336  0.00  0.00    -0.034 A 
HETATM   23  C   UNK N   1      29.373  18.481   9.806  0.00  0.00     0.050 C 
HETATM   24  C   UNK N   1      28.225  19.245   7.753  0.00  0.00     0.015 A 
HETATM   25  C   UNK N   1      27.960  19.190   6.393  0.00  0.00    -0.061 A 
HETATM   26  C   UNK N   1      28.563  18.225   5.616  0.00  0.00     0.015 A 
HETATM   27  C   UNK N   1      27.043  20.170   5.760  0.00  0.00     0.048 C 
HETATM   28  C   UNK N   1      29.490  17.337   6.146  0.00  0.00    -0.034 A 
HETATM   29  C   UNK N   1      29.943  16.354   5.130  0.00  0.00     0.050 C 
ENDBRANCH  19  21
ENDBRANCH  13  19
ENDBRANCH   1   9
TORSDOF 3
ENDMDL
MODEL 5
REMARK VINA RESULT:      -7.4     11.983     13.895
REMARK  3 active torsions:
REMARK  status: ('A' for Active; 'I' for Inactive)
REMARK    1  A    between atoms: C_1  and  N_2 
REMARK    2  A    between atoms: N_2  and  C_10 
REMARK       I    between atoms: C_13  and  N_14 
REMARK    3  A    between atoms: N_14  and  C_19 
ROOT
HETATM    1  C   UNK N   1      33.531  16.697   9.077  0.00  0.00     0.145 C 
HETATM    2  C   UNK N   1      32.233  16.576   8.576  0.00  0.00     0.004 C 
HETATM    3  C   UNK N   1      32.033  16.836   7.228  0.00  0.00     0.021 C 
HETATM    4  C   UNK N   1      33.062  17.426   6.500  0.00  0.00     0.044 C 
HETATM    5  C   UNK N   1      34.152  17.999   7.177  0.00  0.00     0.021 C 
HETATM    6  C   UNK N   1      34.296  17.739   8.543  0.00  0.00     0.004 C 
HETATM    7  C   UNK N   1      33.046  17.292   5.078  0.00  0.00     0.099 C 
HETATM    8  N   UNK N   1      32.985  17.156   3.931  0.00  0.00    -0.191 NA
ENDROOT
BRANCH   1   9
HETATM    9  N   UNK N   1      34.213  15.477   8.910  0.00  0.00    -0.215 N 
HETATM   10  C   UNK N   1      35.143  14.970   9.821  0.00  0.00     0.680 C 
HETATM   11  N   UNK N   1      34.655  14.451  10.941  0.00  0.00    -0.177 N 
HETATM   12  N   UNK N   1      36.421  14.692   9.448  0.00  0.00    -0.202 N 
HETATM   13  C   UNK N   1      35.320  13.603  11.710  0.00  0.00     0.122 C 
ATOM     14  HN  UNK N   1      33.712  14.720  11.224  1.00  0.00     0.186 HD
HETATM   15  C   UNK N   1      36.664  13.339  11.414  0.00  0.00     0.066 C 
HETATM   16  C   UNK N   1      37.215  13.947  10.270  0.00  0.00     0.110 C 
ATOM     17  HN  UNK N   1      36.782  15.038   8.560  1.00  0.00     0.183 HD
HETATM   18  H   UNK N   1      34.023  14.948   8.102  0.00  0.00     0.178 HD
BRANCH  13  19
HETATM   19  N   UNK N   1      34.593  12.868  12.683  0.00  0.00    -0.341 N 
HETATM   20  H   UNK N   1      33.612  12.919  12.625  0.00  0.00     0.167 HD
BRANCH  19  21
HETATM   21  C   UNK N   1      35.132  12.045  13.758  0.00  0.00     0.045 A 
HETATM   22  C   UNK N   1      34.752  10.682  13.755  0.00  0.00    -0.034 A 
HETATM   23  C   UNK N   1      33.774  10.160  12.758  0.00  0.00     0.050 C 
HETATM   24  C   UNK N   1      35.286   9.779  14.677  0.00  0.00     0.015 A 
HETATM   25  C   UNK N   1      36.190  10.201  15.641  0.00  0.00    -0.061 A 
HETATM   26  C   UNK N   1      36.517  11.536  15.734  0.00  0.00     0.015 A 
HETATM   27  C   UNK N   1      36.823   9.227  16.565  0.00  0.00     0.048 C 
HETATM   28  C   UNK N   1      36.015  12.474  14.842  0.00  0.00    -0.034 A 
HETATM   29  C   UNK N   1      36.456  13.848  15.192  0.00  0.00     0.050 C 
ENDBRANCH  19  21
ENDBRANCH  13  19
ENDBRANCH   1   9
TORSDOF 3
ENDMDL
MODEL 6
REMARK VINA RESULT:      -7.4      5.047      6.963
REMARK  3 active torsions:
REMARK  status: ('A' for Active; 'I' for Inactive)
REMARK    1  A    between atoms: C_1  and  N_2 
REMARK    2  A    between atoms: N_2  and  C_10 
REMARK       I    between atoms: C_13  and  N_14 
REMARK    3  A    between atoms: N_14  and  C_19 
ROOT
HETATM    1  C   UNK N   1      23.354  16.736   4.742  0.00  0.00     0.145 C 
HETATM    2  C   UNK N   1      22.605  16.179   3.704  0.00  0.00     0.004 C 
HETATM    3  C   UNK N   1      21.656  16.981   3.087  0.00  0.00     0.021 C 
HETATM    4  C   UNK N   1      21.330  18.202   3.671  0.00  0.00     0.044 C 
HETATM    5  C   UNK N   1      21.737  18.472   4.989  0.00  0.00     0.021 C 
HETATM    6  C   UNK N   1      22.669  17.617   5.584  0.00  0.00     0.004 C 
HETATM    7  C   UNK N   1      20.721  19.202   2.852  0.00  0.00     0.099 C 
HETATM    8  N   UNK N   1      20.229  19.974   2.147  0.00  0.00    -0.191 NA
ENDROOT
BRANCH   1   9
HETATM    9  N   UNK N   1      24.488  17.380   4.208  0.00  0.00    -0.215 N 
HETATM   10  C   UNK N   1      25.415  18.091   4.972  0.00  0.00     0.680 C 
HETATM   11  N   UNK N   1      26.265  17.371   5.695  0.00  0.00    -0.177 N 
HETATM   12  N   UNK N   1      25.680  19.402   4.727  0.00  0.00    -0.202 N 
HETATM   13  C   UNK N   1      27.418  17.834   6.152  0.00  0.00     0.122 C 
ATOM     14  HN  UNK N   1      26.015  16.406   5.910  1.00  0.00     0.186 HD
HETATM   15  C   UNK N   1      27.707  19.197   5.992  0.00  0.00     0.066 C 
HETATM   16  C   UNK N   1      26.774  19.987   5.293  0.00  0.00     0.110 C 
ATOM     17  HN  UNK N   1      25.063  19.944   4.122  1.00  0.00     0.183 HD
HETATM   18  H   UNK N   1      24.635  17.324   3.237  0.00  0.00     0.178 HD
BRANCH  13  19
HETATM   19  N   UNK N   1      28.380  16.899   6.618  0.00  0.00    -0.341 N 
HETATM   20  H   UNK N   1      28.104  15.955   6.619  0.00  0.00     0.167 HD
BRANCH  19  21
HETATM   21  C   UNK N   1      29.728  17.177   7.095  0.00  0.00     0.045 A 
HETATM   22  C   UNK N   1      30.786  16.824   6.225  0.00  0.00    -0.034 A 
HETATM   23  C   UNK N   1      30.519  16.117   4.940  0.00  0.00     0.050 C 
HETATM   24  C   UNK N   1      32.113  17.134   6.534  0.00  0.00     0.015 A 
HETATM   25  C   UNK N   1      32.432  17.778   7.721  0.00  0.00    -0.061 A 
HETATM   26  C   UNK N   1      31.441  18.059   8.635  0.00  0.00     0.015 A 
HETATM   27  C   UNK N   1      33.830  18.184   8.010  0.00  0.00     0.048 C 
HETATM   28  C   UNK N   1      30.108  17.772   8.376  0.00  0.00    -0.034 A 
HETATM   29  C   UNK N   1      29.244  18.103   9.539  0.00  0.00     0.050 C 
ENDBRANCH  19  21
ENDBRANCH  13  19
ENDBRANCH   1   9
TORSDOF 3
ENDMDL
MODEL 7
REMARK VINA RESULT:      -7.3     11.507     15.815
REMARK  3 active torsions:
REMARK  status: ('A' for Active; 'I' for Inactive)
REMARK    1  A    between atoms: C_1  and  N_2 
REMARK    2  A    between atoms: N_2  and  C_10 
REMARK       I    between atoms: C_13  and  N_14 
REMARK    3  A    between atoms: N_14  and  C_19 
ROOT
HETATM    1  C   UNK N   1      34.934  11.507  12.953  0.00  0.00     0.145 C 
HETATM    2  C   UNK N   1      33.928  10.783  13.595  0.00  0.00     0.004 C 
HETATM    3  C   UNK N   1      34.049  10.579  14.963  0.00  0.00     0.021 C 
HETATM    4  C   UNK N   1      35.257  10.889  15.581  0.00  0.00     0.044 C 
HETATM    5  C   UNK N   1      36.399  11.123  14.796  0.00  0.00     0.021 C 
HETATM    6  C   UNK N   1      36.235  11.288  13.418  0.00  0.00     0.004 C 
HETATM    7  C   UNK N   1      35.257  11.108  16.993  0.00  0.00     0.099 C 
HETATM    8  N   UNK N   1      35.202  11.273  18.136  0.00  0.00    -0.191 NA
ENDROOT
BRANCH   1   9
HETATM    9  N   UNK N   1      34.635  12.882  13.017  0.00  0.00    -0.215 N 
HETATM   10  C   UNK N   1      34.940  13.795  12.005  0.00  0.00     0.680 C 
HETATM   11  N   UNK N   1      34.171  13.760  10.923  0.00  0.00    -0.177 N 
HETATM   12  N   UNK N   1      35.723  14.881  12.242  0.00  0.00    -0.202 N 
HETATM   13  C   UNK N   1      34.059  14.765  10.068  0.00  0.00     0.122 C 
ATOM     14  HN  UNK N   1      33.636  12.911  10.740  1.00  0.00     0.186 HD
HETATM   15  C   UNK N   1      34.897  15.878  10.223  0.00  0.00     0.066 C 
HETATM   16  C   UNK N   1      35.772  15.890  11.326  0.00  0.00     0.110 C 
ATOM     17  HN  UNK N   1      36.269  14.940  13.102  1.00  0.00     0.183 HD
HETATM   18  H   UNK N   1      34.184  13.219  13.823  0.00  0.00     0.178 HD
BRANCH  13  19
HETATM   19  N   UNK N   1      32.976  14.745   9.148  0.00  0.00    -0.341 N 
HETATM   20  H   UNK N   1      32.167  14.268   9.439  0.00  0.00     0.167 HD
BRANCH  19  21
HETATM   21  C   UNK N   1      32.927  15.353   7.825  0.00  0.00     0.045 A 
HETATM   22  C   UNK N   1      31.980  16.389   7.647  0.00  0.00    -0.034 A 
HETATM   23  C   UNK N   1      31.029  16.756   8.734  0.00  0.00     0.050 C 
HETATM   24  C   UNK N   1      31.912  17.110   6.451  0.00  0.00     0.015 A 
HETATM   25  C   UNK N   1      32.759  16.811   5.394  0.00  0.00    -0.061 A 
HETATM   26  C   UNK N   1      33.633  15.751   5.495  0.00  0.00     0.015 A 
HETATM   27  C   UNK N   1      32.745  17.631   4.157  0.00  0.00     0.048 C 
HETATM   28  C   UNK N   1      33.740  15.004   6.661  0.00  0.00    -0.034 A 
HETATM   29  C   UNK N   1      34.695  13.878   6.499  0.00  0.00     0.050 C 
ENDBRANCH  19  21
ENDBRANCH  13  19
ENDBRANCH   1   9
TORSDOF 3
ENDMDL
MODEL 8
REMARK VINA RESULT:      -7.3      0.975      2.080
REMARK  3 active torsions:
REMARK  status: ('A' for Active; 'I' for Inactive)
REMARK    1  A    between atoms: C_1  and  N_2 
REMARK    2  A    between atoms: N_2  and  C_10 
REMARK       I    between atoms: C_13  and  N_14 
REMARK    3  A    between atoms: N_14  and  C_19 
ROOT
HETATM    1  C   UNK N   1      22.106  18.216   4.605  0.00  0.00     0.145 C 
HETATM    2  C   UNK N   1      20.888  18.897   4.575  0.00  0.00     0.004 C 
HETATM    3  C   UNK N   1      20.638  19.730   3.493  0.00  0.00     0.021 C 
HETATM    4  C   UNK N   1      21.684  20.031   2.625  0.00  0.00     0.044 C 
HETATM    5  C   UNK N   1      23.005  19.735   3.000  0.00  0.00     0.021 C 
HETATM    6  C   UNK N   1      23.211  18.921   4.118  0.00  0.00     0.004 C 
HETATM    7  C   UNK N   1      21.361  20.494   1.313  0.00  0.00     0.099 C 
HETATM    8  N   UNK N   1      21.045  20.866   0.265  0.00  0.00    -0.191 NA
ENDROOT
BRANCH   1   9
HETATM    9  N   UNK N   1      21.979  16.998   3.909  0.00  0.00    -0.215 N 
HETATM   10  C   UNK N   1      22.661  15.828   4.250  0.00  0.00     0.680 C 
HETATM   11  N   UNK N   1      22.218  15.172   5.316  0.00  0.00    -0.177 N 
HETATM   12  N   UNK N   1      23.481  15.202   3.365  0.00  0.00    -0.202 N 
HETATM   13  C   UNK N   1      22.472  13.894   5.552  0.00  0.00     0.122 C 
ATOM     14  HN  UNK N   1      21.649  15.682   5.992  1.00  0.00     0.186 HD
HETATM   15  C   UNK N   1      23.371  13.221   4.713  0.00  0.00     0.066 C 
HETATM   16  C   UNK N   1      23.907  13.932   3.622  0.00  0.00     0.110 C 
ATOM     17  HN  UNK N   1      23.776  15.680   2.513  1.00  0.00     0.183 HD
HETATM   18  H   UNK N   1      21.372  16.969   3.135  0.00  0.00     0.178 HD
BRANCH  13  19
HETATM   19  N   UNK N   1      21.688  13.223   6.527  0.00  0.00    -0.341 N 
HETATM   20  H   UNK N   1      20.777  12.969   6.254  0.00  0.00     0.167 HD
BRANCH  19  21
HETATM   21  C   UNK N   1      22.077  12.867   7.885  0.00  0.00     0.045 A 
HETATM   22  C   UNK N   1      21.579  13.696   8.917  0.00  0.00    -0.034 A 
HETATM   23  C   UNK N   1      20.784  14.918   8.605  0.00  0.00     0.050 C 
HETATM   24  C   UNK N   1      21.805  13.393  10.263  0.00  0.00     0.015 A 
HETATM   25  C   UNK N   1      22.548  12.278  10.623  0.00  0.00    -0.061 A 
HETATM   26  C   UNK N   1      23.126  11.496   9.647  0.00  0.00     0.015 A 
HETATM   27  C   UNK N   1      22.716  11.909  12.050  0.00  0.00     0.048 C 
HETATM   28  C   UNK N   1      22.932  11.754   8.297  0.00  0.00    -0.034 A 
HETATM   29  C   UNK N   1      23.712  10.818   7.447  0.00  0.00     0.050 C 
ENDBRANCH  19  21
ENDBRANCH  13  19
ENDBRANCH   1   9
TORSDOF 3
ENDMDL
MODEL 9
REMARK VINA RESULT:      -7.2      3.720      7.106
REMARK  3 active torsions:
REMARK  status: ('A' for Active; 'I' for Inactive)
REMARK    1  A    between atoms: C_1  and  N_2 
REMARK    2  A    between atoms: N_2  and  C_10 
REMARK       I    between atoms: C_13  and  N_14 
REMARK    3  A    between atoms: N_14  and  C_19 
ROOT
HETATM    1  C   UNK N   1      22.386  16.737   6.068  0.00  0.00     0.145 C 
HETATM    2  C   UNK N   1      22.550  15.356   6.197  0.00  0.00     0.004 C 
HETATM    3  C   UNK N   1      21.444  14.549   5.971  0.00  0.00     0.021 C 
HETATM    4  C   UNK N   1      20.191  15.146   5.863  0.00  0.00     0.044 C 
HETATM    5  C   UNK N   1      20.022  16.484   6.259  0.00  0.00     0.021 C 
HETATM    6  C   UNK N   1      21.164  17.250   6.510  0.00  0.00     0.004 C 
HETATM    7  C   UNK N   1      19.151  14.419   5.207  0.00  0.00     0.099 C 
HETATM    8  N   UNK N   1      18.345  13.787   4.670  0.00  0.00    -0.191 NA
ENDROOT
BRANCH   1   9
HETATM    9  N   UNK N   1      22.597  17.109   4.725  0.00  0.00    -0.215 N 
HETATM   10  C   UNK N   1      22.911  18.407   4.315  0.00  0.00     0.680 C 
HETATM   11  N   UNK N   1      24.154  18.815   4.538  0.00  0.00    -0.177 N 
HETATM   12  N   UNK N   1      22.128  19.079   3.429  0.00  0.00    -0.202 N 
HETATM   13  C   UNK N   1      24.726  19.820   3.893  0.00  0.00     0.122 C 
ATOM     14  HN  UNK N   1      24.701  18.326   5.248  1.00  0.00     0.186 HD
HETATM   15  C   UNK N   1      23.943  20.594   3.024  0.00  0.00     0.066 C 
HETATM   16  C   UNK N   1      22.600  20.214   2.839  0.00  0.00     0.110 C 
ATOM     17  HN  UNK N   1      21.194  18.735   3.208  1.00  0.00     0.183 HD
HETATM   18  H   UNK N   1      22.518  16.413   4.035  0.00  0.00     0.178 HD
BRANCH  13  19
HETATM   19  N   UNK N   1      26.137  19.953   3.973  0.00  0.00    -0.341 N 
HETATM   20  H   UNK N   1      26.560  20.525   3.293  0.00  0.00     0.167 HD
BRANCH  19  21
HETATM   21  C   UNK N   1      27.031  19.340   4.947  0.00  0.00     0.045 A 
HETATM   22  C   UNK N   1      27.288  20.088   6.119  0.00  0.00    -0.034 A 
HETATM   23  C   UNK N   1      26.745  21.466   6.286  0.00  0.00     0.050 C 
HETATM   24  C   UNK N   1      28.050  19.558   7.164  0.00  0.00     0.015 A 
HETATM   25  C   UNK N   1      28.597  18.287   7.068  0.00  0.00    -0.061 A 
HETATM   26  C   UNK N   1      28.446  17.562   5.907  0.00  0.00     0.015 A 
HETATM   27  C   UNK N   1      29.333  17.691   8.211  0.00  0.00     0.048 C 
HETATM   28  C   UNK N   1      27.698  18.042   4.840  0.00  0.00    -0.034 A 
HETATM   29  C   UNK N   1      27.743  17.113   3.682  0.00  0.00     0.050 C 
ENDBRANCH  19  21
ENDBRANCH  13  19
ENDBRANCH   1   9
TORSDOF 3
ENDMDL
