MODEL 1
REMARK VINA RESULT:      -4.4      0.000      0.000
REMARK  9 active torsions:
REMARK  status: ('A' for Active; 'I' for Inactive)
REMARK    1  A    between atoms: C_1  and  C_2 
REMARK    2  A    between atoms: C_1  and  C_7 
REMARK    3  A    between atoms: C_1  and  O_11 
REMARK    4  A    between atoms: C_2  and  C_3 
REMARK    5  A    between atoms: C_2  and  O_6 
REMARK    6  A    between atoms: C_3  and  C_4 
REMARK    7  A    between atoms: C_7  and  C_8 
REMARK    8  A    between atoms: C_7  and  O_10 
REMARK    9  A    between atoms: C_8  and  O_9 
ROOT
HETATM    1  C   UNK N   1      34.735  16.739  10.121  0.00  0.00     0.178 C 
ENDROOT
BRANCH   1   2
HETATM    2  C   UNK N   1      34.582  15.292  10.626  0.00  0.00     0.155 C 
BRANCH   2   3
HETATM    3  C   UNK N   1      35.540  14.990  11.774  0.00  0.00     0.103 C 
BRANCH   3   4
HETATM    4  C   UNK N   1      35.296  13.638  12.350  0.00  0.00     0.233 C 
HETATM    5  O   UNK N   1      34.726  13.533  13.429  0.00  0.00    -0.307 OA
ENDBRANCH   3   4
ENDBRANCH   2   3
BRANCH   2   6
HETATM    6  O   UNK N   1      33.288  15.071  11.095  0.00  0.00    -0.393 OA
HETATM    7  H   UNK N   1      32.536  15.560  10.726  0.00  0.00     0.210 HD
ENDBRANCH   2   6
ENDBRANCH   1   2
BRANCH   1   8
HETATM    8  C   UNK N   1      34.618  16.856   8.588  0.00  0.00     0.172 C 
BRANCH   8   9
HETATM    9  C   UNK N   1      34.269  18.275   8.158  0.00  0.00     0.198 C 
BRANCH   9  10
HETATM   10  O   UNK N   1      35.285  19.162   8.511  0.00  0.00    -0.398 OA
HETATM   11  H   UNK N   1      36.166  18.892   8.814  0.00  0.00     0.209 HD
ENDBRANCH   9  10
ENDBRANCH   8   9
BRANCH   8  12
HETATM   12  O   UNK N   1      33.613  16.012   8.110  0.00  0.00    -0.391 OA
HETATM   13  H   UNK N   1      33.098  15.456   8.715  0.00  0.00     0.210 HD
ENDBRANCH   8  12
ENDBRANCH   1   8
BRANCH   1  14
HETATM   14  O   UNK N   1      35.972  17.245  10.532  0.00  0.00    -0.390 OA
HETATM   15  H   UNK N   1      36.376  18.004  10.082  0.00  0.00     0.210 HD
ENDBRANCH   1  14
TORSDOF 9
ENDMDL
MODEL 2
REMARK VINA RESULT:      -4.4      1.200      4.920
REMARK  9 active torsions:
REMARK  status: ('A' for Active; 'I' for Inactive)
REMARK    1  A    between atoms: C_1  and  C_2 
REMARK    2  A    between atoms: C_1  and  C_7 
REMARK    3  A    between atoms: C_1  and  O_11 
REMARK    4  A    between atoms: C_2  and  C_3 
REMARK    5  A    between atoms: C_2  and  O_6 
REMARK    6  A    between atoms: C_3  and  C_4 
REMARK    7  A    between atoms: C_7  and  C_8 
REMARK    8  A    between atoms: C_7  and  O_10 
REMARK    9  A    between atoms: C_8  and  O_9 
ROOT
HETATM    1  C   UNK N   1      34.567  16.000  10.716  0.00  0.00     0.178 C 
ENDROOT
BRANCH   1   2
HETATM    2  C   UNK N   1      34.733  16.835   9.432  0.00  0.00     0.155 C 
BRANCH   2   3
HETATM    3  C   UNK N   1      33.386  17.227   8.835  0.00  0.00     0.103 C 
BRANCH   3   4
HETATM    4  C   UNK N   1      33.551  18.052   7.605  0.00  0.00     0.233 C 
HETATM    5  O   UNK N   1      34.596  17.989   6.969  0.00  0.00    -0.307 OA
ENDBRANCH   3   4
ENDBRANCH   2   3
BRANCH   2   6
HETATM    6  O   UNK N   1      35.427  18.014   9.702  0.00  0.00    -0.393 OA
HETATM    7  H   UNK N   1      35.301  18.484  10.541  0.00  0.00     0.210 HD
ENDBRANCH   2   6
ENDBRANCH   1   2
BRANCH   1   8
HETATM    8  C   UNK N   1      35.804  15.138  11.036  0.00  0.00     0.172 C 
BRANCH   8   9
HETATM    9  C   UNK N   1      35.723  14.536  12.434  0.00  0.00     0.198 C 
BRANCH   9  10
HETATM   10  O   UNK N   1      34.612  13.703  12.549  0.00  0.00    -0.398 OA
HETATM   11  H   UNK N   1      34.061  13.418  11.803  0.00  0.00     0.209 HD
ENDBRANCH   9  10
ENDBRANCH   8   9
BRANCH   8  12
HETATM   12  O   UNK N   1      36.966  15.910  10.977  0.00  0.00    -0.391 OA
HETATM   13  H   UNK N   1      37.578  15.836  10.228  0.00  0.00     0.210 HD
ENDBRANCH   8  12
ENDBRANCH   1   8
BRANCH   1  14
HETATM   14  O   UNK N   1      33.445  15.174  10.589  0.00  0.00    -0.390 OA
HETATM   15  H   UNK N   1      32.729  15.199  11.244  0.00  0.00     0.210 HD
ENDBRANCH   1  14
TORSDOF 9
ENDMDL
MODEL 3
REMARK VINA RESULT:      -4.4      1.389      4.506
REMARK  9 active torsions:
REMARK  status: ('A' for Active; 'I' for Inactive)
REMARK    1  A    between atoms: C_1  and  C_2 
REMARK    2  A    between atoms: C_1  and  C_7 
REMARK    3  A    between atoms: C_1  and  O_11 
REMARK    4  A    between atoms: C_2  and  C_3 
REMARK    5  A    between atoms: C_2  and  O_6 
REMARK    6  A    between atoms: C_3  and  C_4 
REMARK    7  A    between atoms: C_7  and  C_8 
REMARK    8  A    between atoms: C_7  and  O_10 
REMARK    9  A    between atoms: C_8  and  O_9 
ROOT
HETATM    1  C   UNK N   1      34.837  16.570   9.685  0.00  0.00     0.178 C 
ENDROOT
BRANCH   1   2
HETATM    2  C   UNK N   1      33.452  16.613   9.013  0.00  0.00     0.155 C 
BRANCH   2   3
HETATM    3  C   UNK N   1      33.248  17.900   8.221  0.00  0.00     0.103 C 
BRANCH   3   4
HETATM    4  C   UNK N   1      33.365  17.666   6.754  0.00  0.00     0.233 C 
HETATM    5  O   UNK N   1      34.474  17.619   6.235  0.00  0.00    -0.307 OA
ENDBRANCH   3   4
ENDBRANCH   2   3
BRANCH   2   6
HETATM    6  O   UNK N   1      33.307  15.549   8.123  0.00  0.00    -0.393 OA
HETATM    7  H   UNK N   1      32.484  15.429   7.623  0.00  0.00     0.210 HD
ENDBRANCH   2   6
ENDBRANCH   1   2
BRANCH   1   8
HETATM    8  C   UNK N   1      34.802  15.947  11.095  0.00  0.00     0.172 C 
BRANCH   8   9
HETATM    9  C   UNK N   1      36.098  15.213  11.417  0.00  0.00     0.198 C 
BRANCH   9  10
HETATM   10  O   UNK N   1      37.182  15.829  10.795  0.00  0.00    -0.398 OA
HETATM   11  H   UNK N   1      37.150  16.706  10.381  0.00  0.00     0.209 HD
ENDBRANCH   9  10
ENDBRANCH   8   9
BRANCH   8  12
HETATM   12  O   UNK N   1      33.759  15.023  11.194  0.00  0.00    -0.391 OA
HETATM   13  H   UNK N   1      32.901  15.277  11.568  0.00  0.00     0.210 HD
ENDBRANCH   8  12
ENDBRANCH   1   8
BRANCH   1  14
HETATM   14  O   UNK N   1      35.355  17.866   9.763  0.00  0.00    -0.390 OA
HETATM   15  H   UNK N   1      36.067  18.157   9.172  0.00  0.00     0.210 HD
ENDBRANCH   1  14
TORSDOF 9
ENDMDL
MODEL 4
REMARK VINA RESULT:      -4.3      1.606      2.702
REMARK  9 active torsions:
REMARK  status: ('A' for Active; 'I' for Inactive)
REMARK    1  A    between atoms: C_1  and  C_2 
REMARK    2  A    between atoms: C_1  and  C_7 
REMARK    3  A    between atoms: C_1  and  O_11 
REMARK    4  A    between atoms: C_2  and  C_3 
REMARK    5  A    between atoms: C_2  and  O_6 
REMARK    6  A    between atoms: C_3  and  C_4 
REMARK    7  A    between atoms: C_7  and  C_8 
REMARK    8  A    between atoms: C_7  and  O_10 
REMARK    9  A    between atoms: C_8  and  O_9 
ROOT
HETATM    1  C   UNK N   1      35.490  15.039  11.929  0.00  0.00     0.178 C 
ENDROOT
BRANCH   1   2
HETATM    2  C   UNK N   1      35.619  13.710  12.697  0.00  0.00     0.155 C 
BRANCH   2   3
HETATM    3  C   UNK N   1      35.991  13.937  14.159  0.00  0.00     0.103 C 
BRANCH   3   4
HETATM    4  C   UNK N   1      35.355  12.926  15.049  0.00  0.00     0.233 C 
HETATM    5  O   UNK N   1      34.257  13.156  15.540  0.00  0.00    -0.307 OA
ENDBRANCH   3   4
ENDBRANCH   2   3
BRANCH   2   6
HETATM    6  O   UNK N   1      34.412  13.014  12.678  0.00  0.00    -0.393 OA
HETATM    7  H   UNK N   1      33.846  13.021  11.889  0.00  0.00     0.210 HD
ENDBRANCH   2   6
ENDBRANCH   1   2
BRANCH   1   8
HETATM    8  C   UNK N   1      34.537  14.944  10.721  0.00  0.00     0.172 C 
BRANCH   8   9
HETATM    9  C   UNK N   1      34.761  16.086   9.737  0.00  0.00     0.198 C 
BRANCH   9  10
HETATM   10  O   UNK N   1      34.827  17.308  10.405  0.00  0.00    -0.398 OA
HETATM   11  H   UNK N   1      35.348  18.068  10.105  0.00  0.00     0.209 HD
ENDBRANCH   9  10
ENDBRANCH   8   9
BRANCH   8  12
HETATM   12  O   UNK N   1      33.207  15.006  11.142  0.00  0.00    -0.391 OA
HETATM   13  H   UNK N   1      32.896  15.729  11.707  0.00  0.00     0.210 HD
ENDBRANCH   8  12
ENDBRANCH   1   8
BRANCH   1  14
HETATM   14  O   UNK N   1      36.754  15.447  11.492  0.00  0.00    -0.390 OA
HETATM   15  H   UNK N   1      37.325  15.995  12.055  0.00  0.00     0.210 HD
ENDBRANCH   1  14
TORSDOF 9
ENDMDL
MODEL 5
REMARK VINA RESULT:      -4.3      1.632      2.986
REMARK  9 active torsions:
REMARK  status: ('A' for Active; 'I' for Inactive)
REMARK    1  A    between atoms: C_1  and  C_2 
REMARK    2  A    between atoms: C_1  and  C_7 
REMARK    3  A    between atoms: C_1  and  O_11 
REMARK    4  A    between atoms: C_2  and  C_3 
REMARK    5  A    between atoms: C_2  and  O_6 
REMARK    6  A    between atoms: C_3  and  C_4 
REMARK    7  A    between atoms: C_7  and  C_8 
REMARK    8  A    between atoms: C_7  and  O_10 
REMARK    9  A    between atoms: C_8  and  O_9 
ROOT
HETATM    1  C   UNK N   1      35.150  14.755  11.357  0.00  0.00     0.178 C 
ENDROOT
BRANCH   1   2
HETATM    2  C   UNK N   1      35.836  14.264  12.646  0.00  0.00     0.155 C 
BRANCH   2   3
HETATM    3  C   UNK N   1      35.079  13.103  13.282  0.00  0.00     0.103 C 
BRANCH   3   4
HETATM    4  C   UNK N   1      35.207  13.113  14.766  0.00  0.00     0.233 C 
HETATM    5  O   UNK N   1      34.222  12.893  15.461  0.00  0.00    -0.307 OA
ENDBRANCH   3   4
ENDBRANCH   2   3
BRANCH   2   6
HETATM    6  O   UNK N   1      37.129  13.818  12.373  0.00  0.00    -0.393 OA
HETATM    7  H   UNK N   1      37.562  14.037  11.533  0.00  0.00     0.210 HD
ENDBRANCH   2   6
ENDBRANCH   1   2
BRANCH   1   8
HETATM    8  C   UNK N   1      35.612  16.162  10.929  0.00  0.00     0.172 C 
BRANCH   8   9
HETATM    9  C   UNK N   1      35.042  16.551   9.570  0.00  0.00     0.198 C 
BRANCH   9  10
HETATM   10  O   UNK N   1      33.834  17.230   9.718  0.00  0.00    -0.398 OA
HETATM   11  H   UNK N   1      33.072  16.891  10.214  0.00  0.00     0.209 HD
ENDBRANCH   9  10
ENDBRANCH   8   9
BRANCH   8  12
HETATM   12  O   UNK N   1      37.004  16.210  10.832  0.00  0.00    -0.391 OA
HETATM   13  H   UNK N   1      37.444  16.231   9.968  0.00  0.00     0.210 HD
ENDBRANCH   8  12
ENDBRANCH   1   8
BRANCH   1  14
HETATM   14  O   UNK N   1      33.764  14.757  11.542  0.00  0.00    -0.390 OA
HETATM   15  H   UNK N   1      33.271  13.926  11.641  0.00  0.00     0.210 HD
ENDBRANCH   1  14
TORSDOF 9
ENDMDL
MODEL 6
REMARK VINA RESULT:      -4.3     14.098     15.847
REMARK  9 active torsions:
REMARK  status: ('A' for Active; 'I' for Inactive)
REMARK    1  A    between atoms: C_1  and  C_2 
REMARK    2  A    between atoms: C_1  and  C_7 
REMARK    3  A    between atoms: C_1  and  O_11 
REMARK    4  A    between atoms: C_2  and  C_3 
REMARK    5  A    between atoms: C_2  and  O_6 
REMARK    6  A    between atoms: C_3  and  C_4 
REMARK    7  A    between atoms: C_7  and  C_8 
REMARK    8  A    between atoms: C_7  and  O_10 
REMARK    9  A    between atoms: C_8  and  O_9 
ROOT
HETATM    1  C   UNK N   1      20.667  19.245   2.355  0.00  0.00     0.178 C 
ENDROOT
BRANCH   1   2
HETATM    2  C   UNK N   1      20.842  18.624   3.753  0.00  0.00     0.155 C 
BRANCH   2   3
HETATM    3  C   UNK N   1      22.074  17.726   3.822  0.00  0.00     0.103 C 
BRANCH   3   4
HETATM    4  C   UNK N   1      23.168  18.358   4.612  0.00  0.00     0.233 C 
HETATM    5  O   UNK N   1      23.872  19.215   4.093  0.00  0.00    -0.307 OA
ENDBRANCH   3   4
ENDBRANCH   2   3
BRANCH   2   6
HETATM    6  O   UNK N   1      20.999  19.620   4.716  0.00  0.00    -0.393 OA
HETATM    7  H   UNK N   1      21.843  20.089   4.813  0.00  0.00     0.210 HD
ENDBRANCH   2   6
ENDBRANCH   1   2
BRANCH   1   8
HETATM    8  C   UNK N   1      20.869  20.774   2.347  0.00  0.00     0.172 C 
BRANCH   8   9
HETATM    9  C   UNK N   1      20.508  21.381   0.997  0.00  0.00     0.198 C 
BRANCH   9  10
HETATM   10  O   UNK N   1      20.714  20.461  -0.030  0.00  0.00    -0.398 OA
HETATM   11  H   UNK N   1      20.024  19.884  -0.394  0.00  0.00     0.209 HD
ENDBRANCH   9  10
ENDBRANCH   8   9
BRANCH   8  12
HETATM   12  O   UNK N   1      22.203  21.091   2.608  0.00  0.00    -0.391 OA
HETATM   13  H   UNK N   1      22.863  20.395   2.757  0.00  0.00     0.210 HD
ENDBRANCH   8  12
ENDBRANCH   1   8
BRANCH   1  14
HETATM   14  O   UNK N   1      19.391  18.943   1.870  0.00  0.00    -0.390 OA
HETATM   15  H   UNK N   1      18.597  19.152   2.387  0.00  0.00     0.210 HD
ENDBRANCH   1  14
TORSDOF 9
ENDMDL
MODEL 7
REMARK VINA RESULT:      -4.2      1.755      2.983
REMARK  9 active torsions:
REMARK  status: ('A' for Active; 'I' for Inactive)
REMARK    1  A    between atoms: C_1  and  C_2 
REMARK    2  A    between atoms: C_1  and  C_7 
REMARK    3  A    between atoms: C_1  and  O_11 
REMARK    4  A    between atoms: C_2  and  C_3 
REMARK    5  A    between atoms: C_2  and  O_6 
REMARK    6  A    between atoms: C_3  and  C_4 
REMARK    7  A    between atoms: C_7  and  C_8 
REMARK    8  A    between atoms: C_7  and  O_10 
REMARK    9  A    between atoms: C_8  and  O_9 
ROOT
HETATM    1  C   UNK N   1      34.982  14.765  11.324  0.00  0.00     0.178 C 
ENDROOT
BRANCH   1   2
HETATM    2  C   UNK N   1      35.472  14.147  12.647  0.00  0.00     0.155 C 
BRANCH   2   3
HETATM    3  C   UNK N   1      35.992  12.727  12.449  0.00  0.00     0.103 C 
BRANCH   3   4
HETATM    4  C   UNK N   1      36.842  12.620  11.230  0.00  0.00     0.233 C 
HETATM    5  O   UNK N   1      37.941  13.160  11.209  0.00  0.00    -0.307 OA
ENDBRANCH   3   4
ENDBRANCH   2   3
BRANCH   2   6
HETATM    6  O   UNK N   1      36.515  14.901  13.183  0.00  0.00    -0.393 OA
HETATM    7  H   UNK N   1      36.475  15.226  14.096  0.00  0.00     0.210 HD
ENDBRANCH   2   6
ENDBRANCH   1   2
BRANCH   1   8
HETATM    8  C   UNK N   1      35.579  16.161  11.056  0.00  0.00     0.172 C 
BRANCH   8   9
HETATM    9  C   UNK N   1      34.917  16.835   9.860  0.00  0.00     0.198 C 
BRANCH   9  10
HETATM   10  O   UNK N   1      35.463  18.099   9.641  0.00  0.00    -0.398 OA
HETATM   11  H   UNK N   1      35.832  18.396   8.794  0.00  0.00     0.209 HD
ENDBRANCH   9  10
ENDBRANCH   8   9
BRANCH   8  12
HETATM   12  O   UNK N   1      36.945  16.063  10.781  0.00  0.00    -0.391 OA
HETATM   13  H   UNK N   1      37.523  16.839  10.838  0.00  0.00     0.210 HD
ENDBRANCH   8  12
ENDBRANCH   1   8
BRANCH   1  14
HETATM   14  O   UNK N   1      33.587  14.852  11.342  0.00  0.00    -0.390 OA
HETATM   15  H   UNK N   1      33.044  14.307  10.750  0.00  0.00     0.210 HD
ENDBRANCH   1  14
TORSDOF 9
ENDMDL
MODEL 8
REMARK VINA RESULT:      -4.1      1.782      4.974
REMARK  9 active torsions:
REMARK  status: ('A' for Active; 'I' for Inactive)
REMARK    1  A    between atoms: C_1  and  C_2 
REMARK    2  A    between atoms: C_1  and  C_7 
REMARK    3  A    between atoms: C_1  and  O_11 
REMARK    4  A    between atoms: C_2  and  C_3 
REMARK    5  A    between atoms: C_2  and  O_6 
REMARK    6  A    between atoms: C_3  and  C_4 
REMARK    7  A    between atoms: C_7  and  C_8 
REMARK    8  A    between atoms: C_7  and  O_10 
REMARK    9  A    between atoms: C_8  and  O_9 
ROOT
HETATM    1  C   UNK N   1      35.402  14.332  11.614  0.00  0.00     0.178 C 
ENDROOT
BRANCH   1   2
HETATM    2  C   UNK N   1      36.227  14.964  10.477  0.00  0.00     0.155 C 
BRANCH   2   3
HETATM    3  C   UNK N   1      35.333  15.533   9.380  0.00  0.00     0.103 C 
BRANCH   3   4
HETATM    4  C   UNK N   1      34.717  16.826   9.792  0.00  0.00     0.233 C 
HETATM    5  O   UNK N   1      35.331  17.871   9.621  0.00  0.00    -0.307 OA
ENDBRANCH   3   4
ENDBRANCH   2   3
BRANCH   2   6
HETATM    6  O   UNK N   1      37.009  16.011  10.963  0.00  0.00    -0.393 OA
HETATM    7  H   UNK N   1      37.289  16.734  10.380  0.00  0.00     0.210 HD
ENDBRANCH   2   6
ENDBRANCH   1   2
BRANCH   1   8
HETATM    8  C   UNK N   1      36.242  13.420  12.531  0.00  0.00     0.172 C 
BRANCH   8   9
HETATM    9  C   UNK N   1      36.289  13.949  13.959  0.00  0.00     0.198 C 
BRANCH   9  10
HETATM   10  O   UNK N   1      36.875  15.213  13.999  0.00  0.00    -0.398 OA
HETATM   11  H   UNK N   1      37.164  15.657  14.812  0.00  0.00     0.209 HD
ENDBRANCH   9  10
ENDBRANCH   8   9
BRANCH   8  12
HETATM   12  O   UNK N   1      37.557  13.341  12.068  0.00  0.00    -0.391 OA
HETATM   13  H   UNK N   1      37.756  12.988  11.186  0.00  0.00     0.210 HD
ENDBRANCH   8  12
ENDBRANCH   1   8
BRANCH   1  14
HETATM   14  O   UNK N   1      34.346  13.596  11.068  0.00  0.00    -0.390 OA
HETATM   15  H   UNK N   1      34.513  12.859  10.458  0.00  0.00     0.210 HD
ENDBRANCH   1  14
TORSDOF 9
ENDMDL
MODEL 9
REMARK VINA RESULT:      -3.9      1.840      5.456
REMARK  9 active torsions:
REMARK  status: ('A' for Active; 'I' for Inactive)
REMARK    1  A    between atoms: C_1  and  C_2 
REMARK    2  A    between atoms: C_1  and  C_7 
REMARK    3  A    between atoms: C_1  and  O_11 
REMARK    4  A    between atoms: C_2  and  C_3 
REMARK    5  A    between atoms: C_2  and  O_6 
REMARK    6  A    between atoms: C_3  and  C_4 
REMARK    7  A    between atoms: C_7  and  C_8 
REMARK    8  A    between atoms: C_7  and  O_10 
REMARK    9  A    between atoms: C_8  and  O_9 
ROOT
HETATM    1  C   UNK N   1      35.834  13.732  12.627  0.00  0.00     0.178 C 
ENDROOT
BRANCH   1   2
HETATM    2  C   UNK N   1      35.294  15.022  11.981  0.00  0.00     0.155 C 
BRANCH   2   3
HETATM    3  C   UNK N   1      36.103  15.420  10.751  0.00  0.00     0.103 C 
BRANCH   3   4
HETATM    4  C   UNK N   1      35.321  16.305   9.843  0.00  0.00     0.233 C 
HETATM    5  O   UNK N   1      35.267  17.507  10.067  0.00  0.00    -0.307 OA
ENDBRANCH   3   4
ENDBRANCH   2   3
BRANCH   2   6
HETATM    6  O   UNK N   1      33.973  14.848  11.572  0.00  0.00    -0.393 OA
HETATM    7  H   UNK N   1      33.427  14.138  11.944  0.00  0.00     0.210 HD
ENDBRANCH   2   6
ENDBRANCH   1   2
BRANCH   1   8
HETATM    8  C   UNK N   1      35.547  13.652  14.139  0.00  0.00     0.172 C 
BRANCH   8   9
HETATM    9  C   UNK N   1      36.747  13.118  14.912  0.00  0.00     0.198 C 
BRANCH   9  10
HETATM   10  O   UNK N   1      37.574  14.162  15.323  0.00  0.00    -0.398 OA
HETATM   11  H   UNK N   1      38.319  14.061  15.936  0.00  0.00     0.209 HD
ENDBRANCH   9  10
ENDBRANCH   8   9
BRANCH   8  12
HETATM   12  O   UNK N   1      34.472  12.795  14.387  0.00  0.00    -0.391 OA
HETATM   13  H   UNK N   1      33.691  12.795  13.812  0.00  0.00     0.210 HD
ENDBRANCH   8  12
ENDBRANCH   1   8
BRANCH   1  14
HETATM   14  O   UNK N   1      37.213  13.648  12.411  0.00  0.00    -0.390 OA
HETATM   15  H   UNK N   1      37.573  13.526  11.518  0.00  0.00     0.210 HD
ENDBRANCH   1  14
TORSDOF 9
ENDMDL
