REMARK  7 active torsions:
REMARK  status: ('A' for Active; 'I' for Inactive)
REMARK    1  A    between atoms: O_8  and  C_25 
REMARK    2  A    between atoms: O_9  and  C_25 
REMARK    3  A    between atoms: O_10  and  C_26 
REMARK    4  A    between atoms: O_11  and  C_26 
REMARK    5  A    between atoms: N_13  and  C_15 
REMARK    6  A    between atoms: C_25  and  C_27 
REMARK    7  A    between atoms: C_26  and  C_28 
ROOT
HETATM    1  C   UNK N   1       6.289   9.051   0.086  0.00  0.00     0.163 C 
ENDROOT
BRANCH   1   2
HETATM    2  O   UNK N   1       6.885   8.729  -1.079  0.00  0.00    -0.775 OA
HETATM    3  H   UNK N   1       6.898   8.258  -1.889  0.00  0.00     0.167 HD
ENDBRANCH   1   2
BRANCH   1   4
HETATM    4  O   UNK N   1       7.007   9.663   1.048  0.00  0.00    -0.775 OA
HETATM    5  H   UNK N   1       7.625   9.443   1.717  0.00  0.00     0.167 HD
ENDBRANCH   1   4
BRANCH   1   6
HETATM    6  C   UNK N   1       4.835   8.747   0.317  0.00  0.00     0.270 C 
HETATM    7 Cl   UNK N   1       4.662   7.697   1.745  0.00  0.00    -0.072 Cl
HETATM    8 Cl   UNK N   1       3.953  10.266   0.601  0.00  0.00    -0.072 Cl
HETATM    9 Cl   UNK N   1       4.095   7.928  -1.086  0.00  0.00    -0.072 Cl
ENDBRANCH   1   6
TORSDOF 7
