REMARK  8 active torsions:
REMARK  status: ('A' for Active; 'I' for Inactive)
REMARK    1  A    between atoms: C_5  and  O_1 
REMARK    2  A    between atoms: C_6  and  N_2 
REMARK    3  A    between atoms: C_3  and  C_4 
REMARK    4  A    between atoms: C_3  and  C_5 
REMARK    5  A    between atoms: C_3  and  C_7 
REMARK    6  A    between atoms: C_3  and  C_8 
REMARK    7  A    between atoms: C_4  and  C_6 
REMARK    8  A    between atoms: C_5  and  C_9 
ROOT
HETATM    1  C   UNK N   1       4.950  -0.043  -0.371  0.00  0.00     0.042 C 
ENDROOT
BRANCH   1   2
HETATM    2  C   UNK N   1       4.121  -0.060  -1.680  0.00  0.00     0.057 C 
BRANCH   2   3
HETATM    3  C   UNK N   1       2.631  -0.381  -1.466  0.00  0.00     0.219 C 
HETATM    4  C   UNK N   1       1.936  -0.682  -2.792  0.00  0.00     0.043 C 
BRANCH   3   5
HETATM    5  N   UNK N   1       1.941   0.631  -0.651  0.00  0.00     0.084 N 
HETATM    6  C   UNK N   1       0.716   0.063  -0.112  0.00  0.00     0.309 C 
HETATM    7  C   UNK N   1       1.601   1.821  -1.421  0.00  0.00     0.309 C 
ENDBRANCH   3   5
ENDBRANCH   2   3
ENDBRANCH   1   2
BRANCH   1   8
HETATM    8  C   UNK N   1       6.466   0.056  -0.700  0.00  0.00     0.135 C 
BRANCH   8   9
HETATM    9  O   UNK N   1       7.217   0.082   0.481  0.00  0.00    -0.394 OA
HETATM   10  H   UNK N   1       7.493  -0.360   1.299  0.00  0.00     0.210 HD
ENDBRANCH   8   9
BRANCH   8  11
HETATM   11  C   UNK N   1       7.006  -1.024  -1.639  0.00  0.00     0.028 C 
HETATM   12  C   UNK N   1       8.479  -0.800  -1.931  0.00  0.00     0.007 C 
ENDBRANCH   8  11
ENDBRANCH   1   8
BRANCH   1  13
HETATM   13  C   UNK N   1       4.611   1.280   0.350  0.00  0.00    -0.042 A 
HETATM   14  C   UNK N   1       4.081   1.343   1.648  0.00  0.00     0.008 A 
HETATM   15  C   UNK N   1       3.783   2.572   2.245  0.00  0.00     0.001 A 
HETATM   16  C   UNK N   1       4.011   3.760   1.550  0.00  0.00     0.000 A 
HETATM   17  C   UNK N   1       4.540   3.722   0.261  0.00  0.00     0.001 A 
HETATM   18  C   UNK N   1       4.838   2.494  -0.335  0.00  0.00     0.008 A 
ENDBRANCH   1  13
BRANCH   1  19
HETATM   19  C   UNK N   1       4.672  -1.377   0.372  0.00  0.00    -0.042 A 
HETATM   20  C   UNK N   1       4.923  -2.595  -0.295  0.00  0.00     0.008 A 
HETATM   21  C   UNK N   1       4.655  -3.821   0.317  0.00  0.00     0.001 A 
HETATM   22  C   UNK N   1       4.125  -3.854   1.605  0.00  0.00     0.000 A 
HETATM   23  C   UNK N   1       3.865  -2.662   2.281  0.00  0.00     0.001 A 
HETATM   24  C   UNK N   1       4.135  -1.435   1.666  0.00  0.00     0.008 A 
ENDBRANCH   1  19
TORSDOF 8
