REMARK  3 active torsions:
REMARK  status: ('A' for Active; 'I' for Inactive)
REMARK    1  A    between atoms: C_7  and  O_2 
REMARK    2  A    between atoms: C_13  and  O_3 
REMARK    3  A    between atoms: O_4  and  C_21 
ROOT
HETATM    1  O   UNK N   1       1.058   0.035  -0.990  0.00  0.00    -0.339 OA
HETATM    2  N   UNK N   1       6.115  -0.613  -0.637  0.00  0.00     0.092 N 
HETATM    3  C   UNK N   1       3.188  -0.811  -0.556  0.00  0.00     0.054 C 
HETATM    4  C   UNK N   1       4.055  -1.696   0.349  0.00  0.00     0.103 C 
HETATM    5  C   UNK N   1       5.371  -0.869   0.622  0.00  0.00     0.262 C 
HETATM    6  C   UNK N   1       1.693  -1.207  -0.819  0.00  0.00     0.174 C 
HETATM    7  C   UNK N   1       3.935  -0.604  -1.890  0.00  0.00     0.050 C 
HETATM    8  C   UNK N   1       2.966   0.514   0.028  0.00  0.00    -0.001 A 
HETATM    9  C   UNK N   1       3.266  -2.060   1.606  0.00  0.00     0.044 C 
HETATM   10  C   UNK N   1       1.043  -1.917   0.417  0.00  0.00     0.148 C 
HETATM   11  C   UNK N   1       5.103   0.513   1.309  0.00  0.00     0.078 C 
HETATM   12  C   UNK N   1       2.011  -2.835   1.170  0.00  0.00     0.037 C 
HETATM   13  C   UNK N   1       5.316   0.042  -1.685  0.00  0.00     0.273 C 
HETATM   14  C   UNK N   1       3.847   1.209   0.832  0.00  0.00    -0.046 A 
HETATM   15  C   UNK N   1       1.756   0.979  -0.336  0.00  0.00     0.110 A 
HETATM   16  C   UNK N   1       6.748  -1.811  -1.177  0.00  0.00     0.310 C 
HETATM   17  C   UNK N   1       3.477   2.501   1.245  0.00  0.00     0.011 A 
HETATM   18  C   UNK N   1       1.352   2.264   0.037  0.00  0.00     0.099 A 
HETATM   19  C   UNK N   1       2.234   3.040   0.824  0.00  0.00     0.040 A 
ENDROOT
BRANCH   4  20
HETATM   20  O   UNK N   1       4.366  -2.897  -0.301  0.00  0.00    -0.386 OA
HETATM   21  H   UNK N   1       3.754  -3.500  -0.752  0.00  0.00     0.210 HD
ENDBRANCH   4  20
BRANCH  10  22
HETATM   22  O   UNK N   1       0.495  -1.011   1.330  0.00  0.00    -0.393 OA
HETATM   23  H   UNK N   1       0.850  -0.368   1.964  0.00  0.00     0.210 HD
ENDBRANCH  10  22
BRANCH  18  24
HETATM   24  O   UNK N   1       0.148   2.740  -0.318  0.00  0.00    -0.358 OA
HETATM   25  H   UNK N   1       0.015   3.634  -0.565  0.00  0.00     0.217 HD
ENDBRANCH  18  24
TORSDOF 3
