REMARK  5 active torsions:
REMARK  status: ('A' for Active; 'I' for Inactive)
REMARK    1  A    between atoms: O_1  and  C_7 
REMARK    2  A    between atoms: O_2  and  C_11 
REMARK    3  A    between atoms: N_3  and  C_5 
REMARK    4  A    between atoms: C_4  and  C_5 
REMARK    5  A    between atoms: C_4  and  C_6 
ROOT
HETATM    1  C   UNK N   1       3.605   0.366   0.058  0.00  0.00    -0.020 A 
HETATM    2  C   UNK N   1       2.414  -0.418   0.022  0.00  0.00     0.075 A 
HETATM    3  C   UNK N   1       4.843  -0.287   0.039  0.00  0.00     0.047 A 
HETATM    4  C   UNK N   1       3.769  -2.451  -0.040  0.00  0.00    -0.026 A 
HETATM    5  C   UNK N   1       4.957  -1.675  -0.010  0.00  0.00     0.074 A 
HETATM    6  C   UNK N   1       2.529  -1.812  -0.027  0.00  0.00     0.046 A 
HETATM    7  C   UNK N   1       3.770  -3.942  -0.083  0.00  0.00     0.051 C 
ENDROOT
BRANCH   1   8
HETATM    8  C   UNK N   1       3.573   1.875   0.171  0.00  0.00     0.065 C 
BRANCH   8   9
HETATM    9  C   UNK N   1       4.799   2.638  -0.347  0.00  0.00     0.074 C 
HETATM   10  C   UNK N   1       6.047   2.345   0.468  0.00  0.00     0.032 C 
BRANCH   9  11
HETATM   11  N   UNK N   1       4.529   4.062  -0.267  0.00  0.00    -0.426 N 
HETATM   12  H   UNK N   1       5.301   4.726  -0.211  0.00  0.00     0.150 HD
HETATM   13  H   UNK N   1       3.566   4.399  -0.267  0.00  0.00     0.150 HD
ENDBRANCH   9  11
ENDBRANCH   8   9
ENDBRANCH   1   8
BRANCH   2  14
HETATM   14  O   UNK N   1       1.154   0.093   0.037  0.00  0.00    -0.355 OA
HETATM   15  C   UNK N   1       0.807   1.424   0.030  0.00  0.00     0.210 C 
ENDBRANCH   2  14
BRANCH   5  16
HETATM   16  O   UNK N   1       6.216  -2.190  -0.017  0.00  0.00    -0.355 OA
HETATM   17  C   UNK N   1       6.555  -3.522  -0.033  0.00  0.00     0.210 C 
ENDBRANCH   5  16
TORSDOF 5
