REMARK  5 active torsions:
REMARK  status: ('A' for Active; 'I' for Inactive)
REMARK    1  A    between atoms: N_2  and  C_9 
REMARK    2  A    between atoms: N_3  and  C_4 
REMARK    3  A    between atoms: N_3  and  C_12 
REMARK       I    between atoms: N_3  and  C_13 
REMARK    4  A    between atoms: C_9  and  C_10 
REMARK    5  A    between atoms: C_10  and  C_14 
ROOT
HETATM    1  N   UNK N   1       2.722  -0.774  -0.894  0.00  0.00     0.093 N 
HETATM    2  C   UNK N   1       2.702   1.909  -0.411  0.00  0.00     0.096 C 
HETATM    3  C   UNK N   1       1.483   1.157   0.127  0.00  0.00     0.056 C 
HETATM    4  C   UNK N   1       3.062   1.563  -1.844  0.00  0.00     0.056 C 
HETATM    5  C   UNK N   1       1.402  -0.248  -0.497  0.00  0.00     0.275 C 
HETATM    6  C   UNK N   1       3.326   0.052  -1.964  0.00  0.00     0.275 C 
ENDROOT
BRANCH   2   7
HETATM    7  N   UNK N   1       2.830   3.329  -0.094  0.00  0.00    -0.314 N 
HETATM    8  C   UNK N   1       1.715   4.151  -0.119  0.00  0.00     0.220 C 
HETATM    9  O   UNK N   1       0.622   3.690  -0.418  0.00  0.00    -0.273 OA
HETATM   10  C   UNK N   1       1.762   5.606   0.223  0.00  0.00     0.117 C 
BRANCH   7  11
HETATM   11  C   UNK N   1       4.171   3.805   0.186  0.00  0.00     0.037 A 
HETATM   12  C   UNK N   1       4.485   5.172   0.291  0.00  0.00     0.030 A 
HETATM   13  C   UNK N   1       5.800   5.595   0.509  0.00  0.00     0.002 A 
HETATM   14  C   UNK N   1       6.826   4.658   0.628  0.00  0.00     0.000 A 
HETATM   15  C   UNK N   1       6.539   3.297   0.529  0.00  0.00     0.002 A 
HETATM   16  C   UNK N   1       5.227   2.876   0.304  0.00  0.00     0.030 A 
ENDBRANCH   7  11
ENDBRANCH   2   7
BRANCH   1  17
HETATM   17  C   UNK N   1       3.610  -0.919   0.280  0.00  0.00     0.223 C 
HETATM   18  C   UNK N   1       5.031  -1.321  -0.104  0.00  0.00     0.043 C 
BRANCH  17  19
HETATM   19  C   UNK N   1       3.048  -1.916   1.306  0.00  0.00     0.074 C 
BRANCH  19  20
HETATM   20  C   UNK N   1       2.619  -3.226   0.712  0.00  0.00    -0.056 A 
HETATM   21  C   UNK N   1       3.526  -4.029   0.008  0.00  0.00     0.007 A 
HETATM   22  C   UNK N   1       3.110  -5.247  -0.538  0.00  0.00     0.001 A 
HETATM   23  C   UNK N   1       1.789  -5.671  -0.374  0.00  0.00     0.000 A 
HETATM   24  C   UNK N   1       0.883  -4.876   0.335  0.00  0.00     0.001 A 
HETATM   25  C   UNK N   1       1.297  -3.655   0.876  0.00  0.00     0.007 A 
ENDBRANCH  19  20
ENDBRANCH  17  19
ENDBRANCH   1  17
TORSDOF 5
