REMARK  8 active torsions:
REMARK  status: ('A' for Active; 'I' for Inactive)
REMARK    1  A    between atoms: O_1  and  C_12 
REMARK    2  A    between atoms: N_4  and  C_11 
REMARK    3  A    between atoms: N_5  and  C_6 
REMARK    4  A    between atoms: N_5  and  C_13 
REMARK       I    between atoms: N_5  and  C_15 
REMARK    5  A    between atoms: C_6  and  C_12 
REMARK    6  A    between atoms: C_11  and  C_14 
REMARK    7  A    between atoms: C_14  and  C_17 
REMARK    8  A    between atoms: C_15  and  C_16 
ROOT
HETATM    1  N   UNK N   1       2.782  -0.929  -1.352  0.00  0.00     0.088 N 
HETATM    2  C   UNK N   1       3.757   1.682  -0.659  0.00  0.00     0.131 C 
HETATM    3  C   UNK N   1       4.736   0.498  -1.003  0.00  0.00     0.072 C 
HETATM    4  C   UNK N   1       2.768   1.619  -1.841  0.00  0.00     0.072 C 
HETATM    5  C   UNK N   1       4.163  -0.718  -1.743  0.00  0.00     0.275 C 
HETATM    6  C   UNK N   1       1.980   0.250  -1.782  0.00  0.00     0.275 C 
ENDROOT
BRANCH   2   7
HETATM    7  N   UNK N   1       4.586   2.911  -0.518  0.00  0.00    -0.298 N 
HETATM    8  C   UNK N   1       4.029   4.156  -0.755  0.00  0.00     0.225 C 
HETATM    9  O   UNK N   1       2.905   4.264  -1.211  0.00  0.00    -0.273 OA
BRANCH   7  10
HETATM   10  C   UNK N   1       5.903   2.782   0.087  0.00  0.00     0.038 A 
HETATM   11  C   UNK N   1       6.945   3.678  -0.212  0.00  0.00     0.030 A 
HETATM   12  C   UNK N   1       8.230   3.478   0.306  0.00  0.00     0.002 A 
HETATM   13  C   UNK N   1       8.499   2.382   1.129  0.00  0.00     0.000 A 
HETATM   14  C   UNK N   1       7.481   1.491   1.452  0.00  0.00     0.002 A 
HETATM   15  C   UNK N   1       6.205   1.692   0.937  0.00  0.00     0.030 A 
ENDBRANCH   7  10
BRANCH   8  16
HETATM   16  C   UNK N   1       4.743   5.423  -0.353  0.00  0.00     0.099 C 
HETATM   17  C   UNK N   1       5.085   6.274  -1.555  0.00  0.00     0.014 C 
ENDBRANCH   8  16
ENDBRANCH   2   7
BRANCH   2  18
HETATM   18  C   UNK N   1       2.916   1.618   0.626  0.00  0.00     0.287 C 
HETATM   19  O   UNK N   1       3.460   1.498   1.713  0.00  0.00    -0.262 OA
BRANCH  18  20
HETATM   20  O   UNK N   1       1.562   1.764   0.554  0.00  0.00    -0.325 OA
HETATM   21  C   UNK N   1       0.747   1.796   1.660  0.00  0.00     0.213 C 
ENDBRANCH  18  20
ENDBRANCH   2  18
BRANCH   1  22
HETATM   22  C   UNK N   1       2.798  -1.116   0.108  0.00  0.00     0.277 C 
BRANCH  22  23
HETATM   23  C   UNK N   1       1.804  -2.130   0.606  0.00  0.00     0.068 C 
BRANCH  23  24
HETATM   24  C   UNK N   1       2.253  -3.543   0.430  0.00  0.00    -0.057 A 
HETATM   25  C   UNK N   1       3.544  -3.885  -0.013  0.00  0.00     0.007 A 
HETATM   26  C   UNK N   1       3.878  -5.227  -0.223  0.00  0.00     0.001 A 
HETATM   27  C   UNK N   1       2.926  -6.225   0.003  0.00  0.00     0.000 A 
HETATM   28  C   UNK N   1       1.649  -5.884   0.458  0.00  0.00     0.001 A 
HETATM   29  C   UNK N   1       1.318  -4.547   0.672  0.00  0.00     0.007 A 
ENDBRANCH  23  24
ENDBRANCH  22  23
ENDBRANCH   1  22
TORSDOF 8
