REMARK  5 active torsions:
REMARK  status: ('A' for Active; 'I' for Inactive)
REMARK    1  A    between atoms: O_2  and  C_7 
REMARK    2  A    between atoms: O_3  and  C_10 
REMARK    3  A    between atoms: N_4  and  C_8 
REMARK    4  A    between atoms: C_5  and  C_6 
REMARK    5  A    between atoms: C_6  and  C_8 
ROOT
HETATM    1 Br   UNK N   1       3.734  -4.393  -0.013  0.00  0.00    -0.048 Br
HETATM    2  C   UNK N   1       3.765   0.336   0.004  0.00  0.00    -0.021 A 
HETATM    3  C   UNK N   1       2.530  -0.382   0.005  0.00  0.00     0.076 A 
HETATM    4  C   UNK N   1       4.967  -0.391  -0.001  0.00  0.00     0.048 A 
HETATM    5  C   UNK N   1       4.982  -1.789  -0.006  0.00  0.00     0.086 A 
HETATM    6  C   UNK N   1       2.563  -1.781   0.000  0.00  0.00     0.059 A 
HETATM    7  C   UNK N   1       3.769  -2.483  -0.006  0.00  0.00     0.047 A 
ENDROOT
BRANCH   2   8
HETATM    8  C   UNK N   1       3.835   1.847   0.008  0.00  0.00     0.060 C 
BRANCH   8   9
HETATM    9  C   UNK N   1       5.264   2.391   0.002  0.00  0.00     0.115 C 
BRANCH   9  10
HETATM   10  N   UNK N   1       5.253   3.841   0.002  0.00  0.00    -0.430 N 
HETATM   11  H   UNK N   1       6.132   4.359   0.002  0.00  0.00     0.149 HD
HETATM   12  H   UNK N   1       4.365   4.344   0.002  0.00  0.00     0.149 HD
ENDBRANCH   9  10
ENDBRANCH   8   9
ENDBRANCH   2   8
BRANCH   3  13
HETATM   13  O   UNK N   1       1.298   0.200   0.010  0.00  0.00    -0.355 OA
HETATM   14  C   UNK N   1       1.028   1.546   0.004  0.00  0.00     0.210 C 
ENDBRANCH   3  13
BRANCH   5  15
HETATM   15  O   UNK N   1       6.150  -2.478  -0.009  0.00  0.00    -0.355 OA
HETATM   16  C   UNK N   1       7.385  -1.868   0.001  0.00  0.00     0.210 C 
ENDBRANCH   5  15
TORSDOF 5
