REMARK  1 active torsions:
REMARK  status: ('A' for Active; 'I' for Inactive)
REMARK    1  A    between atoms: C_8  and  O_1 
ROOT
HETATM    1  O   UNK N   1      -0.006  -3.583  -0.004  0.00  0.00    -0.289 OA
HETATM    2  C   UNK N   1       6.933  -0.061  -0.281  0.00  0.00     0.001 C 
HETATM    3  C   UNK N   1       6.800   1.333   0.326  0.00  0.00    -0.014 C 
HETATM    4  C   UNK N   1       5.763  -0.962   0.141  0.00  0.00    -0.004 C 
HETATM    5  C   UNK N   1       4.415  -0.318  -0.310  0.00  0.00     0.006 C 
HETATM    6  C   UNK N   1       5.540   2.001  -0.228  0.00  0.00     0.012 C 
HETATM    7  C   UNK N   1       8.132   1.969  -0.053  0.00  0.00     0.126 C 
HETATM    8  C   UNK N   1       4.307   1.161   0.147  0.00  0.00     0.007 C 
HETATM    9  C   UNK N   1       8.324  -0.488   0.156  0.00  0.00     0.008 C 
HETATM   10  C   UNK N   1       3.230  -1.155   0.249  0.00  0.00     0.001 C 
HETATM   11  C   UNK N   1       5.877  -2.358  -0.481  0.00  0.00     0.010 C 
HETATM   12  C   UNK N   1       9.133   0.821   0.169  0.00  0.00     0.033 C 
HETATM   13  C   UNK N   1       6.720   1.318   1.863  0.00  0.00     0.018 C 
HETATM   14  C   UNK N   1       4.761  -3.278   0.020  0.00  0.00     0.036 C 
HETATM   15  C   UNK N   1       3.404  -2.637  -0.097  0.00  0.00    -0.064 C 
HETATM   16  C   UNK N   1       3.202  -1.062   1.776  0.00  0.00     0.025 C 
HETATM   17  C   UNK N   1       1.892  -0.617  -0.231  0.00  0.00    -0.009 C 
HETATM   18  C   UNK N   1       2.329  -3.443  -0.140  0.00  0.00     0.058 C 
HETATM   19  C   UNK N   1       0.815  -1.411  -0.311  0.00  0.00     0.052 C 
HETATM   20  C   UNK N   1       0.971  -2.864  -0.117  0.00  0.00     0.171 C 
ENDROOT
BRANCH   7  21
HETATM   21  O   UNK N   1       8.153   2.318  -1.406  0.00  0.00    -0.395 OA
HETATM   22  H   UNK N   1       8.370   2.426  -2.346  0.00  0.00     0.210 HD
ENDBRANCH   7  21
TORSDOF 1
