REMARK  5 active torsions:
REMARK  status: ('A' for Active; 'I' for Inactive)
REMARK    1  A    between atoms: N_1  and  C_3 
REMARK    2  A    between atoms: N_1  and  C_7 
REMARK    3  A    between atoms: C_3  and  C_4 
REMARK    4  A    between atoms: C_4  and  C_5 
REMARK    5  A    between atoms: C_7  and  C_10 
ROOT
HETATM    1  N   UNK N   1       6.093   4.190  -0.004  0.00  0.00    -0.197 NA
HETATM    2  C   UNK N   1       3.488   4.066   0.019  0.00  0.00     0.143 C 
HETATM    3  C   UNK N   1       4.938   4.157   0.001  0.00  0.00     0.060 C 
ENDROOT
BRANCH   2   4
HETATM    4  C   UNK N   1       3.166   2.648   0.379  0.00  0.00     0.128 C 
BRANCH   4   5
HETATM    5  N   UNK N   1       3.159   1.863  -0.842  0.00  0.00    -0.416 N 
HETATM    6  H   UNK N   1       3.059   2.245  -1.783  0.00  0.00     0.153 HD
BRANCH   5   7
HETATM    7  C   UNK N   1       3.314   0.457  -0.528  0.00  0.00     0.076 C 
HETATM    8  C   UNK N   1       4.781   0.086  -0.287  0.00  0.00     0.032 C 
BRANCH   7   9
HETATM    9  C   UNK N   1       2.321  -0.042   0.532  0.00  0.00     0.062 C 
BRANCH   9  10
HETATM   10  C   UNK N   1       2.090  -1.491   0.323  0.00  0.00    -0.056 A 
HETATM   11  C   UNK N   1       3.188  -2.318   0.071  0.00  0.00     0.007 A 
HETATM   12  C   UNK N   1       3.022  -3.676  -0.136  0.00  0.00     0.001 A 
HETATM   13  C   UNK N   1       1.745  -4.229  -0.066  0.00  0.00     0.000 A 
HETATM   14  C   UNK N   1       0.635  -3.413   0.190  0.00  0.00     0.001 A 
HETATM   15  C   UNK N   1       0.803  -2.036   0.376  0.00  0.00     0.007 A 
ENDBRANCH   9  10
ENDBRANCH   7   9
ENDBRANCH   5   7
ENDBRANCH   4   5
ENDBRANCH   2   4
TORSDOF 5
