REMARK  6 active torsions:
REMARK  status: ('A' for Active; 'I' for Inactive)
REMARK    1  A    between atoms: N_2  and  C_9 
REMARK    2  A    between atoms: N_3  and  C_4 
REMARK    3  A    between atoms: N_3  and  C_12 
REMARK       I    between atoms: N_3  and  C_13 
REMARK    4  A    between atoms: C_9  and  C_10 
REMARK    5  A    between atoms: C_10  and  C_14 
REMARK    6  A    between atoms: C_13  and  C_15 
ROOT
HETATM    1  N   UNK N   1       2.929  -1.015  -0.727  0.00  0.00     0.093 N 
HETATM    2  C   UNK N   1       2.832   1.681  -0.188  0.00  0.00     0.096 C 
HETATM    3  C   UNK N   1       1.632   0.867   0.310  0.00  0.00     0.056 C 
HETATM    4  C   UNK N   1       3.232   1.344  -1.612  0.00  0.00     0.056 C 
HETATM    5  C   UNK N   1       1.590  -0.515  -0.366  0.00  0.00     0.275 C 
HETATM    6  C   UNK N   1       3.592  -0.143  -1.722  0.00  0.00     0.275 C 
ENDROOT
BRANCH   2   7
HETATM    7  N   UNK N   1       2.797   3.128   0.033  0.00  0.00    -0.313 N 
HETATM    8  C   UNK N   1       1.617   3.831  -0.143  0.00  0.00     0.224 C 
HETATM    9  O   UNK N   1       0.596   3.247  -0.474  0.00  0.00    -0.273 OA
BRANCH   7  10
HETATM   10  C   UNK N   1       4.069   3.754   0.313  0.00  0.00     0.037 A 
HETATM   11  C   UNK N   1       4.281   5.135   0.144  0.00  0.00     0.030 A 
HETATM   12  C   UNK N   1       5.547   5.697   0.330  0.00  0.00     0.002 A 
HETATM   13  C   UNK N   1       6.625   4.890   0.694  0.00  0.00     0.000 A 
HETATM   14  C   UNK N   1       6.438   3.519   0.872  0.00  0.00     0.002 A 
HETATM   15  C   UNK N   1       5.176   2.956   0.673  0.00  0.00     0.030 A 
ENDBRANCH   7  10
BRANCH   8  16
HETATM   16  C   UNK N   1       1.519   5.318   0.065  0.00  0.00     0.099 C 
HETATM   17  C   UNK N   1       0.527   5.644   1.167  0.00  0.00     0.014 C 
ENDBRANCH   8  16
ENDBRANCH   2   7
BRANCH   1  18
HETATM   18  C   UNK N   1       3.757  -1.233   0.477  0.00  0.00     0.223 C 
HETATM   19  C   UNK N   1       5.200  -1.595   0.140  0.00  0.00     0.043 C 
BRANCH  18  20
HETATM   20  C   UNK N   1       3.160  -2.324   1.381  0.00  0.00     0.074 C 
BRANCH  20  21
HETATM   21  C   UNK N   1       2.720  -3.550   0.634  0.00  0.00    -0.056 A 
HETATM   22  C   UNK N   1       3.621  -4.272  -0.160  0.00  0.00     0.007 A 
HETATM   23  C   UNK N   1       3.191  -5.403  -0.860  0.00  0.00     0.001 A 
HETATM   24  C   UNK N   1       1.861  -5.821  -0.761  0.00  0.00     0.000 A 
HETATM   25  C   UNK N   1       0.961  -5.107   0.036  0.00  0.00     0.001 A 
HETATM   26  C   UNK N   1       1.390  -3.972   0.731  0.00  0.00     0.007 A 
ENDBRANCH  20  21
ENDBRANCH  18  20
ENDBRANCH   1  18
TORSDOF 6
