REMARK  3 active torsions:
REMARK  status: ('A' for Active; 'I' for Inactive)
REMARK    1  A    between atoms: C_3  and  N_2 
REMARK    2  A    between atoms: C_3  and  C_4 
REMARK    3  A    between atoms: C_4  and  C_5 
ROOT
HETATM    1  O   UNK N   1       1.353   1.872   0.000  0.00  0.00    -0.290 OA
HETATM    2  C   UNK N   1       2.336   1.142   0.000  0.00  0.00     0.181 C 
ENDROOT
BRANCH   2   3
HETATM    3  C   UNK N   1       3.709   1.781   0.000  0.00  0.00     0.145 C 
HETATM    4  C   UNK N   1       5.036   1.043   0.000  0.00  0.00     0.040 C 
BRANCH   3   5
HETATM    5  N   UNK N   1       3.780   3.232   0.000  0.00  0.00    -0.420 N 
HETATM    6  H   UNK N   1       4.687   3.698  -0.000  0.00  0.00     0.150 HD
HETATM    7  H   UNK N   1       2.923   3.785   0.000  0.00  0.00     0.150 HD
ENDBRANCH   3   5
ENDBRANCH   2   3
BRANCH   2   8
HETATM    8  C   UNK N   1       2.139  -0.334  -0.000  0.00  0.00     0.012 A 
HETATM    9  C   UNK N   1       3.233  -1.211  -0.000  0.00  0.00     0.015 A 
HETATM   10  C   UNK N   1       3.042  -2.593  -0.000  0.00  0.00     0.001 A 
HETATM   11  C   UNK N   1       1.749  -3.117  -0.000  0.00  0.00     0.000 A 
HETATM   12  C   UNK N   1       0.648  -2.257   0.000  0.00  0.00     0.001 A 
HETATM   13  C   UNK N   1       0.841  -0.871   0.000  0.00  0.00     0.015 A 
ENDBRANCH   2   8
TORSDOF 3
