REMARK  5 active torsions:
REMARK  status: ('A' for Active; 'I' for Inactive)
REMARK    1  A    between atoms: O_1  and  C_9 
REMARK    2  A    between atoms: C_5  and  N_3 
REMARK    3  A    between atoms: C_4  and  C_5 
REMARK    4  A    between atoms: C_4  and  C_6 
REMARK    5  A    between atoms: C_5  and  C_9 
ROOT
HETATM    1  C   UNK N   1       3.619   1.187   0.264  0.00  0.00     0.177 C 
ENDROOT
BRANCH   1   2
HETATM    2  N   UNK N   1       4.637   0.594  -0.587  0.00  0.00    -0.417 N 
HETATM    3  H   UNK N   1       4.634  -0.233  -1.184  0.00  0.00     0.150 HD
HETATM    4  H   UNK N   1       5.523   1.101  -0.587  0.00  0.00     0.150 HD
ENDBRANCH   1   2
BRANCH   1   5
HETATM    5  C   UNK N   1       2.239   0.561  -0.003  0.00  0.00     0.074 C 
BRANCH   5   6
HETATM    6  C   UNK N   1       2.123  -0.940   0.025  0.00  0.00    -0.056 A 
HETATM    7  C   UNK N   1       3.236  -1.782   0.181  0.00  0.00     0.007 A 
HETATM    8  C   UNK N   1       3.079  -3.172   0.147  0.00  0.00     0.001 A 
HETATM    9  C   UNK N   1       1.810  -3.727  -0.038  0.00  0.00     0.000 A 
HETATM   10  C   UNK N   1       0.698  -2.894  -0.184  0.00  0.00     0.001 A 
HETATM   11  C   UNK N   1       0.856  -1.506  -0.157  0.00  0.00     0.007 A 
ENDBRANCH   5   6
ENDBRANCH   1   5
BRANCH   1  12
HETATM   12  C   UNK N   1       3.594   2.673   0.010  0.00  0.00     0.163 C 
HETATM   13  O   UNK N   1       2.590   3.221  -0.419  0.00  0.00    -0.648 OA
BRANCH  12  14
HETATM   14  O   UNK N   1       4.703   3.404   0.232  0.00  0.00    -0.775 OA
HETATM   15  H   UNK N   1       5.529   2.990   0.387  0.00  0.00     0.167 HD
ENDBRANCH  12  14
ENDBRANCH   1  12
TORSDOF 5
