REMARK  5 active torsions:
REMARK  status: ('A' for Active; 'I' for Inactive)
REMARK    1  A    between atoms: C_15  and  C_17 
REMARK    2  A    between atoms: C_24  and  C_28 
REMARK    3  A    between atoms: C_30  and  C_35 
REMARK    4  A    between atoms: C_31  and  C_36 
REMARK    5  A    between atoms: C_33  and  C_37 
ROOT
HETATM    1  O   UNK N   1       4.538  -0.976   0.000  0.00  0.00    -0.350 OA
HETATM    2  O   UNK N   1       4.538   0.453   0.000  0.00  0.00    -0.355 OA
HETATM    3  O   UNK N   1       5.989  -2.487   0.000  0.00  0.00    -0.388 OA
HETATM    4  O   UNK N   1       4.538  -2.405   0.000  0.00  0.00    -0.354 OA
HETATM    5  O   UNK N   1       3.300   1.167   0.000  0.00  0.00    -0.354 OA
HETATM    6  O   UNK N   1       7.013   1.882   0.000  0.00  0.00    -0.312 OA
HETATM    7  O   UNK N   1       4.125   3.421   0.000  0.00  0.00    -0.383 OA
HETATM    8  O   UNK N   1       2.888  -0.976   0.000  0.00  0.00    -0.389 OA
HETATM    9  O   UNK N   1       2.888   3.311   0.000  0.00  0.00    -0.390 OA
HETATM   10  O   UNK N   1       9.047   1.381   0.000  0.00  0.00    -0.385 OA
HETATM   11  O   UNK N   1       7.206   0.983   0.000  0.00  0.00    -0.392 OA
HETATM   12  O   UNK N   1       8.250  -1.690   0.000  0.00  0.00    -0.297 OA
HETATM   13  O   UNK N   1       7.013   0.453   0.000  0.00  0.00    -0.265 OA
HETATM   14  N   UNK N   1       2.062  -2.405   0.000  0.00  0.00    -0.414 N 
HETATM   15  C   UNK N   1       5.363  -0.976   0.000  0.00  0.00     0.165 A 
HETATM   16  C   UNK N   1       5.775  -0.262   0.000  0.00  0.00     0.043 A 
HETATM   17  C   UNK N   1       5.775  -1.690   0.000  0.00  0.00     0.081 A 
HETATM   18  C   UNK N   1       5.363   0.453   0.000  0.00  0.00     0.144 A 
HETATM   19  C   UNK N   1       6.600  -1.690   0.000  0.00  0.00     0.051 A 
HETATM   20  C   UNK N   1       5.775   1.167   0.000  0.00  0.00     0.111 A 
HETATM   21  C   UNK N   1       7.013  -0.976   0.000  0.00  0.00     0.054 A 
HETATM   22  C   UNK N   1       4.125  -1.690   0.000  0.00  0.00     0.291 A 
HETATM   23  C   UNK N   1       4.125   1.167   0.000  0.00  0.00     0.263 A 
HETATM   24  C   UNK N   1       4.125   2.596   0.000  0.00  0.00     0.089 A 
HETATM   25  C   UNK N   1       6.600  -0.262   0.000  0.00  0.00     0.015 A 
HETATM   26  C   UNK N   1       3.300  -1.690   0.000  0.00  0.00     0.195 A 
HETATM   27  C   UNK N   1       2.888  -2.405   0.000  0.00  0.00     0.114 A 
HETATM   28  C   UNK N   1       4.538   1.882   0.000  0.00  0.00     0.101 A 
HETATM   29  C   UNK N   1       5.192  -2.274   0.000  0.00  0.00     0.049 A 
HETATM   30  C   UNK N   1       3.300   2.596   0.000  0.00  0.00     0.181 A 
HETATM   31  C   UNK N   1       8.250  -0.262   0.000  0.00  0.00     0.083 A 
HETATM   32  C   UNK N   1       8.250   1.167   0.000  0.00  0.00     0.107 A 
HETATM   33  C   UNK N   1       3.300  -3.119   0.000  0.00  0.00     0.059 A 
HETATM   34  C   UNK N   1       7.838   0.453   0.000  0.00  0.00     0.165 A 
HETATM   35  C   UNK N   1       2.888   1.882   0.000  0.00  0.00     0.152 A 
HETATM   36  C   UNK N   1       7.838  -0.976   0.000  0.00  0.00     0.137 A 
HETATM   37  C   UNK N   1       4.125  -3.119   0.000  0.00  0.00     0.122 A 
HETATM   38  C   UNK N   1       7.838   1.882   0.000  0.00  0.00     0.168 A 
HETATM   39  C   UNK N   1       6.600   1.167   0.000  0.00  0.00     0.265 A 
HETATM   40  C   UNK N   1       5.363   1.882   0.000  0.00  0.00     0.023 A 
HETATM   41  C   UNK N   1       6.188  -0.976   0.000  0.00  0.00     0.018 A 
HETATM   42  C   UNK N   1       4.840   3.009   0.000  0.00  0.00     0.049 A 
HETATM   43  C   UNK N   1       9.075  -0.262   0.000  0.00  0.00     0.020 A 
HETATM   44  C   UNK N   1       8.926   0.694   0.000  0.00  0.00     0.051 A 
HETATM   45  C   UNK N   1       8.250   2.596   0.000  0.00  0.00     0.031 A 
HETATM   46  C   UNK N   1       2.062   1.882   0.000  0.00  0.00     0.042 A 
HETATM   47  C   UNK N   1       4.538  -3.834   0.000  0.00  0.00     0.040 A 
HETATM   48  C   UNK N   1       1.650  -3.119   0.000  0.00  0.00     0.143 A 
HETATM   49  C   UNK N   1       1.650  -1.690   0.000  0.00  0.00     0.143 A 
HETATM   50  C   UNK N   1       7.838   3.311   0.000  0.00  0.00     0.007 A 
HETATM   51  C   UNK N   1       4.840   3.834   0.000  0.00  0.00     0.202 A 
HETATM   52  H   UNK N   1       5.303  -3.173   0.000  0.00  0.00     0.210 HD
HETATM   53  H   UNK N   1       3.373  -0.136   0.000  0.00  0.00     0.210 HD
HETATM   54  H   UNK N   1       3.373   4.151   0.000  0.00  0.00     0.210 HD
HETATM   55  H   UNK N   1       9.733   0.695   0.000  0.00  0.00     0.210 HD
HETATM   56  H   UNK N   1       7.374   1.939   0.000  0.00  0.00     0.210 HD
ENDROOT
TORSDOF 5
