REMARK  14 active torsions:
REMARK  status: ('A' for Active; 'I' for Inactive)
REMARK    1  A    between atoms: O_1  and  C_11 
REMARK    2  A    between atoms: C_3  and  C_4 
REMARK    3  A    between atoms: C_3  and  C_5 
REMARK    4  A    between atoms: C_4  and  C_6 
REMARK    5  A    between atoms: C_5  and  C_7 
REMARK    6  A    between atoms: C_6  and  C_8 
REMARK    7  A    between atoms: C_7  and  C_9 
REMARK    8  A    between atoms: C_8  and  C_10 
REMARK    9  A    between atoms: C_9  and  C_11 
REMARK   10  A    between atoms: C_12  and  C_13 
REMARK   11  A    between atoms: C_13  and  C_14 
REMARK   12  A    between atoms: C_15  and  C_16 
REMARK   13  A    between atoms: C_16  and  C_17 
REMARK   14  A    between atoms: C_18  and  C_19 
ROOT
HETATM    1  C   UNK N   1       4.738  -3.281  -0.521  0.00  0.00     0.027 C 
ENDROOT
BRANCH   1   2
HETATM    2  C   UNK N   1       4.123  -2.194   0.336  0.00  0.00     0.004 C 
BRANCH   2   3
HETATM    3  C   UNK N   1       4.550  -0.849  -0.210  0.00  0.00     0.000 C 
BRANCH   3   4
HETATM    4  C   UNK N   1       3.670   0.255   0.337  0.00  0.00     0.000 C 
BRANCH   4   5
HETATM    5  C   UNK N   1       4.207   1.585  -0.158  0.00  0.00     0.001 C 
BRANCH   5   6
HETATM    6  C   UNK N   1       3.067   2.458  -0.640  0.00  0.00     0.010 C 
BRANCH   6   7
HETATM    7  C   UNK N   1       2.606   3.389   0.466  0.00  0.00     0.110 C 
BRANCH   7   8
HETATM    8  C   UNK N   1       1.263   3.946   0.129  0.00  0.00     0.139 C 
HETATM    9  O   UNK N   1       0.295   3.205   0.056  0.00  0.00    -0.650 OA
BRANCH   8  10
HETATM   10  O   UNK N   1       1.114   5.266  -0.082  0.00  0.00    -0.776 OA
HETATM   11  H   UNK N   1       1.859   5.816  -0.229  0.00  0.00     0.167 HD
ENDBRANCH   8  10
ENDBRANCH   7   8
ENDBRANCH   6   7
ENDBRANCH   5   6
ENDBRANCH   4   5
ENDBRANCH   3   4
ENDBRANCH   2   3
ENDBRANCH   1   2
BRANCH   1  12
HETATM   12  C   UNK N   1       4.986  -4.506   0.298  0.00  0.00    -0.030 C 
HETATM   13  C   UNK N   1       6.144  -5.176   0.250  0.00  0.00    -0.027 C 
BRANCH  13  14
HETATM   14  C   UNK N   1       7.280  -4.758  -0.633  0.00  0.00     0.053 C 
BRANCH  14  15
HETATM   15  C   UNK N   1       8.557  -4.733   0.148  0.00  0.00    -0.027 C 
HETATM   16  C   UNK N   1       9.280  -3.620   0.310  0.00  0.00    -0.027 C 
BRANCH  16  17
HETATM   17  C   UNK N   1       8.859  -2.308  -0.266  0.00  0.00     0.053 C 
BRANCH  17  18
HETATM   18  C   UNK N   1       9.835  -1.246   0.127  0.00  0.00    -0.027 C 
HETATM   19  C   UNK N   1       9.493   0.046   0.176  0.00  0.00    -0.031 C 
BRANCH  19  20
HETATM   20  C   UNK N   1       8.111   0.516  -0.148  0.00  0.00     0.022 C 
HETATM   21  C   UNK N   1       8.030   2.018   0.025  0.00  0.00     0.009 C 
ENDBRANCH  19  20
ENDBRANCH  17  18
ENDBRANCH  16  17
ENDBRANCH  14  15
ENDBRANCH  13  14
ENDBRANCH   1  12
TORSDOF 14
