REMARK  5 active torsions:
REMARK  status: ('A' for Active; 'I' for Inactive)
REMARK    1  A    between atoms: O_1  and  C_7 
REMARK    2  A    between atoms: O_2  and  C_8 
REMARK    3  A    between atoms: C_5  and  C_6 
REMARK    4  A    between atoms: C_5  and  C_7 
REMARK    5  A    between atoms: C_6  and  C_8 
ROOT
HETATM    1  C   UNK N   1       3.275   0.464   0.000  0.00  0.00     0.120 C 
ENDROOT
BRANCH   1   2
HETATM    2  C   UNK N   1       4.482  -0.465   0.000  0.00  0.00     0.120 C 
BRANCH   2   3
HETATM    3  C   UNK N   1       5.776   0.286   0.000  0.00  0.00     0.139 C 
HETATM    4  O   UNK N   1       5.794   1.509  -0.000  0.00  0.00    -0.650 OA
BRANCH   3   5
HETATM    5  O   UNK N   1       6.933  -0.396  -0.000  0.00  0.00    -0.776 OA
HETATM    6  H   UNK N   1       6.925  -1.333  -0.000  0.00  0.00     0.167 HD
ENDBRANCH   3   5
ENDBRANCH   2   3
ENDBRANCH   1   2
BRANCH   1   7
HETATM    7  C   UNK N   1       1.982  -0.286   0.000  0.00  0.00     0.139 C 
HETATM    8  O   UNK N   1       1.964  -1.509  -0.000  0.00  0.00    -0.650 OA
BRANCH   7   9
HETATM    9  O   UNK N   1       0.824   0.396  -0.000  0.00  0.00    -0.776 OA
HETATM   10  H   UNK N   1       0.833   1.333  -0.000  0.00  0.00     0.167 HD
ENDBRANCH   7   9
ENDBRANCH   1   7
TORSDOF 5
