REMARK  13 active torsions:
REMARK  status: ('A' for Active; 'I' for Inactive)
REMARK    1  A    between atoms: S_1  and  C_16 
REMARK    2  A    between atoms: O_4  and  C_18 
REMARK    3  A    between atoms: O_6  and  C_20 
REMARK    4  A    between atoms: C_13  and  N_8 
REMARK       I    between atoms: N_8  and  C_15 
REMARK    5  A    between atoms: C_14  and  N_9 
REMARK       I    between atoms: N_10  and  C_17 
REMARK    6  A    between atoms: N_10  and  C_19 
REMARK    7  A    between atoms: C_11  and  C_12 
REMARK    8  A    between atoms: C_11  and  C_14 
REMARK    9  A    between atoms: C_12  and  C_15 
REMARK   10  A    between atoms: C_13  and  C_16 
REMARK   11  A    between atoms: C_13  and  C_17 
REMARK   12  A    between atoms: C_14  and  C_18 
REMARK   13  A    between atoms: C_19  and  C_20 
ROOT
HETATM    1  O   UNK N   1       5.108  -1.053  -0.466  0.00  0.00    -0.274 OA
HETATM    2  N   UNK N   1       6.285   0.676   0.346  0.00  0.00    -0.347 N 
HETATM    3  C   UNK N   1       5.127  -0.001   0.154  0.00  0.00     0.218 C 
HETATM    4  H   UNK N   1       6.240   1.556   0.785  0.00  0.00     0.163 HD
ENDROOT
BRANCH   2   5
HETATM    5  C   UNK N   1       7.587   0.181  -0.059  0.00  0.00     0.185 C 
BRANCH   5   6
HETATM    6  C   UNK N   1       7.974  -0.965   0.869  0.00  0.00     0.105 C 
BRANCH   6   7
HETATM    7  S   UNK N   1       7.877  -2.543  -0.026  0.00  0.00    -0.180 SA
HETATM    8  H   UNK N   1       6.817  -3.071  -0.695  0.00  0.00     0.101 HD
ENDBRANCH   6   7
ENDBRANCH   5   6
BRANCH   5   9
HETATM    9  C   UNK N   1       8.608   1.307   0.022  0.00  0.00     0.241 C 
HETATM   10  O   UNK N   1       8.232   2.438   0.280  0.00  0.00    -0.271 OA
HETATM   11  N   UNK N   1       9.934   1.094  -0.189  0.00  0.00    -0.349 N 
HETATM   12  H   UNK N   1      10.541   1.869  -0.147  0.00  0.00     0.163 HD
BRANCH  11  13
HETATM   13  C   UNK N   1      10.503  -0.201  -0.470  0.00  0.00     0.232 C 
BRANCH  13  14
HETATM   14  C   UNK N   1      11.974  -0.211  -0.184  0.00  0.00     0.158 C 
HETATM   15  O   UNK N   1      12.597  -1.255  -0.271  0.00  0.00    -0.649 OA
BRANCH  14  16
HETATM   16  O   UNK N   1      12.613   0.920   0.179  0.00  0.00    -0.775 OA
HETATM   17  H   UNK N   1      13.515   0.927   0.431  0.00  0.00     0.167 HD
ENDBRANCH  14  16
ENDBRANCH  13  14
ENDBRANCH  11  13
ENDBRANCH   5   9
ENDBRANCH   2   5
BRANCH   3  18
HETATM   18  C   UNK N   1       3.867   0.533   0.749  0.00  0.00     0.105 C 
BRANCH  18  19
HETATM   19  C   UNK N   1       3.026   1.234  -0.300  0.00  0.00     0.044 C 
BRANCH  19  20
HETATM   20  C   UNK N   1       1.570   1.291   0.146  0.00  0.00     0.173 C 
BRANCH  20  21
HETATM   21  N   UNK N   1       0.878   2.311  -0.622  0.00  0.00    -0.418 N 
HETATM   22  H   UNK N   1       1.254   3.090  -1.161  0.00  0.00     0.150 HD
HETATM   23  H   UNK N   1      -0.140   2.236  -0.622  0.00  0.00     0.150 HD
ENDBRANCH  20  21
BRANCH  20  24
HETATM   24  C   UNK N   1       0.862  -0.029  -0.019  0.00  0.00     0.163 C 
HETATM   25  O   UNK N   1       1.445  -1.003  -0.472  0.00  0.00    -0.648 OA
BRANCH  24  26
HETATM   26  O   UNK N   1      -0.433  -0.138   0.333  0.00  0.00    -0.775 OA
HETATM   27  H   UNK N   1      -0.949   0.605   0.578  0.00  0.00     0.167 HD
ENDBRANCH  24  26
ENDBRANCH  20  24
ENDBRANCH  19  20
ENDBRANCH  18  19
ENDBRANCH   3  18
TORSDOF 13
