REMARK  7 active torsions:
REMARK  status: ('A' for Active; 'I' for Inactive)
REMARK    1  A    between atoms: O_1  and  C_11 
REMARK    2  A    between atoms: N_4  and  C_10 
REMARK       I    between atoms: N_4  and  C_12 
REMARK    3  A    between atoms: C_9  and  N_5 
REMARK       I    between atoms: N_6  and  C_12 
REMARK    4  A    between atoms: C_7  and  C_8 
REMARK    5  A    between atoms: C_7  and  C_9 
REMARK    6  A    between atoms: C_8  and  C_10 
REMARK    7  A    between atoms: C_9  and  C_11 
ROOT
HETATM    1  C   UNK N   1       4.382   1.154   0.254  0.00  0.00     0.037 C 
ENDROOT
BRANCH   1   2
HETATM    2  C   UNK N   1       3.068   0.474  -0.097  0.00  0.00     0.022 C 
BRANCH   2   3
HETATM    3  C   UNK N   1       3.271  -1.022   0.028  0.00  0.00     0.124 C 
BRANCH   3   4
HETATM    4  N   UNK N   1       2.009  -1.720  -0.017  0.00  0.00    -0.343 N 
HETATM    5  C   UNK N   1       1.961  -3.075  -0.004  0.00  0.00     0.313 C 
HETATM    6  O   UNK N   1       2.987  -3.735   0.023  0.00  0.00    -0.248 OA
HETATM    7  N   UNK N   1       0.767  -3.700  -0.021  0.00  0.00    -0.352 N 
HETATM    8  H   UNK N   1      -0.065  -3.173  -0.033  0.00  0.00     0.160 HD
HETATM    9  H   UNK N   1       0.726  -4.684  -0.021  0.00  0.00     0.160 HD
HETATM   10  H   UNK N   1       1.171  -1.205  -0.059  0.00  0.00     0.164 HD
ENDBRANCH   3   4
ENDBRANCH   2   3
ENDBRANCH   1   2
BRANCH   1  11
HETATM   11  C   UNK N   1       4.490   2.550  -0.348  0.00  0.00     0.173 C 
BRANCH  11  12
HETATM   12  N   UNK N   1       3.431   3.404   0.172  0.00  0.00    -0.418 N 
HETATM   13  H   UNK N   1       3.579   4.345   0.536  0.00  0.00     0.150 HD
HETATM   14  H   UNK N   1       2.480   3.036   0.172  0.00  0.00     0.150 HD
ENDBRANCH  11  12
BRANCH  11  15
HETATM   15  C   UNK N   1       5.841   3.153  -0.059  0.00  0.00     0.163 C 
HETATM   16  O   UNK N   1       5.964   4.363   0.056  0.00  0.00    -0.648 OA
BRANCH  15  17
HETATM   17  O   UNK N   1       6.935   2.368   0.012  0.00  0.00    -0.775 OA
HETATM   18  H   UNK N   1       6.842   1.437   0.061  0.00  0.00     0.167 HD
ENDBRANCH  15  17
ENDBRANCH  11  15
ENDBRANCH   1  11
TORSDOF 7
