REMARK  5 active torsions:
REMARK  status: ('A' for Active; 'I' for Inactive)
REMARK    1  A    between atoms: O_1  and  C_9 
REMARK    2  A    between atoms: C_5  and  N_3 
REMARK    3  A    between atoms: C_4  and  C_5 
REMARK    4  A    between atoms: C_4  and  C_6 
REMARK    5  A    between atoms: C_5  and  C_9 
ROOT
HETATM    1  C   UNK N   1       3.700  -0.075  -0.441  0.00  0.00     0.177 C 
ENDROOT
BRANCH   1   2
HETATM    2  N   UNK N   1       3.565  -1.511  -0.240  0.00  0.00    -0.417 N 
HETATM    3  H   UNK N   1       2.647  -1.933  -0.099  0.00  0.00     0.150 HD
HETATM    4  H   UNK N   1       4.397  -2.102  -0.240  0.00  0.00     0.150 HD
ENDBRANCH   1   2
BRANCH   1   5
HETATM    5  C   UNK N   1       2.573   0.675   0.304  0.00  0.00     0.014 C 
HETATM    6  C   UNK N   1       2.695   2.177   0.109  0.00  0.00     0.012 C 
BRANCH   5   7
HETATM    7  C   UNK N   1       1.192   0.287  -0.223  0.00  0.00     0.002 C 
HETATM    8  C   UNK N   1       0.741  -1.072   0.279  0.00  0.00     0.005 C 
ENDBRANCH   5   7
ENDBRANCH   1   5
BRANCH   1   9
HETATM    9  C   UNK N   1       5.092   0.357  -0.038  0.00  0.00     0.163 C 
HETATM   10  O   UNK N   1       5.439   1.519  -0.176  0.00  0.00    -0.648 OA
BRANCH   9  11
HETATM   11  O   UNK N   1       5.981  -0.545   0.425  0.00  0.00    -0.775 OA
HETATM   12  H   UNK N   1       5.747  -1.393   0.747  0.00  0.00     0.167 HD
ENDBRANCH   9  11
ENDBRANCH   1   9
TORSDOF 5
