REMARK  1 active torsions:
REMARK  status: ('A' for Active; 'I' for Inactive)
REMARK    1  A    between atoms: N_8  and  C_11 
ROOT
HETATM    1  N   UNK N   1       4.514   0.408   0.000  0.00  0.00    -0.346 N 
HETATM    2  N   UNK N   1       4.405  -1.849  -0.000  0.00  0.00    -0.337 N 
ATOM      3  HN  UNK N   1       4.673  -2.833  -0.000  1.00  0.00     0.168 HD
HETATM    4  N   UNK N   1       2.000  -2.006  -0.000  0.00  0.00    -0.337 N 
ATOM      5  HN  UNK N   1       1.983  -3.026  -0.000  1.00  0.00     0.168 HD
HETATM    6  N   UNK N   1       0.874   0.092  -0.000  0.00  0.00    -0.337 N 
ATOM      7  HN  UNK N   1      -0.001   0.617  -0.000  1.00  0.00     0.168 HD
HETATM    8  C   UNK N   1       3.232   0.015   0.000  0.00  0.00     0.121 A 
HETATM    9  C   UNK N   1       3.172  -1.329  -0.000  0.00  0.00     0.138 A 
HETATM   10  C   UNK N   1       2.063   0.764   0.000  0.00  0.00     0.131 A 
HETATM   11  C   UNK N   1       5.219  -0.758   0.000  0.00  0.00     0.182 A 
HETATM   12  C   UNK N   1       0.838  -1.282  -0.000  0.00  0.00     0.183 A 
HETATM   13  H   UNK N   1       4.865   1.328   0.000  0.00  0.00     0.167 HD
ENDROOT
BRANCH  10  14
HETATM   14  N   UNK N   1       2.090   2.174   0.000  0.00  0.00    -0.383 N 
HETATM   15  H   UNK N   1       2.951   2.650   0.000  0.00  0.00     0.157 HD
HETATM   16  H   UNK N   1       1.246   2.682   0.000  0.00  0.00     0.157 HD
ENDBRANCH  10  14
TORSDOF 1
