REMARK  15 active torsions:
REMARK  status: ('A' for Active; 'I' for Inactive)
REMARK    1  A    between atoms: C_10  and  O_1 
REMARK    2  A    between atoms: O_1  and  C_23 
REMARK    3  A    between atoms: C_15  and  O_2 
REMARK    4  A    between atoms: C_21  and  O_3 
REMARK    5  A    between atoms: C_24  and  O_5 
REMARK    6  A    between atoms: O_6  and  C_30 
REMARK    7  A    between atoms: C_9  and  C_12 
REMARK    8  A    between atoms: C_12  and  C_17 
REMARK    9  A    between atoms: C_17  and  C_21 
REMARK   10  A    between atoms: C_21  and  C_22 
REMARK   11  A    between atoms: C_22  and  C_24 
REMARK   12  A    between atoms: C_23  and  C_25 
REMARK   13  A    between atoms: C_24  and  C_26 
REMARK   14  A    between atoms: C_25  and  C_27 
REMARK   15  A    between atoms: C_26  and  C_30 
ROOT
HETATM    1  C   UNK N   1       3.896   3.052   0.317  0.00  0.00     0.053 C 
HETATM    2  C   UNK N   1       4.925   2.754  -0.798  0.00  0.00     0.004 C 
HETATM    3  C   UNK N   1       2.498   2.362   0.192  0.00  0.00     0.143 C 
HETATM    4  C   UNK N   1       6.278   3.523  -0.572  0.00  0.00     0.009 C 
HETATM    5  C   UNK N   1       3.735   4.581   0.345  0.00  0.00    -0.053 C 
HETATM    6  C   UNK N   1       1.528   3.151  -0.675  0.00  0.00     0.069 C 
HETATM    7  C   UNK N   1       1.262   4.433   0.089  0.00  0.00     0.144 C 
HETATM    8  C   UNK N   1       6.103   4.946  -0.103  0.00  0.00    -0.022 C 
HETATM    9  C   UNK N   1       2.543   5.195   0.229  0.00  0.00     0.012 C 
HETATM   10  C   UNK N   1       4.929   5.435   0.306  0.00  0.00     0.004 C 
HETATM   11  C   UNK N   1       7.236   2.880   0.418  0.00  0.00     0.014 C 
ENDROOT
BRANCH   2  12
HETATM   12  C   UNK N   1       5.126   1.256  -1.098  0.00  0.00     0.009 C 
BRANCH  12  13
HETATM   13  C   UNK N   1       5.734   0.493   0.073  0.00  0.00     0.032 C 
BRANCH  13  14
HETATM   14  C   UNK N   1       5.496  -0.992  -0.050  0.00  0.00     0.120 C 
BRANCH  14  15
HETATM   15  O   UNK N   1       4.491  -1.349   0.849  0.00  0.00    -0.395 OA
HETATM   16  H   UNK N   1       3.927  -0.867   1.475  0.00  0.00     0.210 HD
ENDBRANCH  14  15
BRANCH  14  17
HETATM   17  C   UNK N   1       6.780  -1.726   0.301  0.00  0.00     0.064 C 
BRANCH  17  18
HETATM   18  C   UNK N   1       6.700  -3.208  -0.040  0.00  0.00     0.130 C 
BRANCH  18  19
HETATM   19  O   UNK N   1       5.716  -3.826   0.737  0.00  0.00    -0.395 OA
HETATM   20  H   UNK N   1       5.003  -3.449   1.276  0.00  0.00     0.210 HD
ENDBRANCH  18  19
BRANCH  18  21
HETATM   21  C   UNK N   1       8.055  -3.845   0.245  0.00  0.00     0.141 C 
BRANCH  21  22
HETATM   22  C   UNK N   1       8.137  -5.302  -0.114  0.00  0.00     0.141 C 
HETATM   23  O   UNK N   1       7.176  -5.893  -0.581  0.00  0.00    -0.650 OA
BRANCH  22  24
HETATM   24  O   UNK N   1       9.290  -5.966   0.087  0.00  0.00    -0.776 OA
HETATM   25  H   UNK N   1       9.292  -6.892   0.227  0.00  0.00     0.167 HD
ENDBRANCH  22  24
ENDBRANCH  21  22
ENDBRANCH  18  21
ENDBRANCH  17  18
ENDBRANCH  14  17
ENDBRANCH  13  14
ENDBRANCH  12  13
ENDBRANCH   2  12
BRANCH   3  26
HETATM   26  O   UNK N   1       2.483   1.013  -0.124  0.00  0.00    -0.315 OA
BRANCH  26  27
HETATM   27  C   UNK N   1       1.344   0.272   0.003  0.00  0.00     0.263 C 
HETATM   28  O   UNK N   1       0.352   0.760   0.541  0.00  0.00    -0.265 OA
BRANCH  27  29
HETATM   29  C   UNK N   1       1.234  -1.125  -0.540  0.00  0.00     0.081 C 
HETATM   30  C   UNK N   1       2.484  -1.582  -1.275  0.00  0.00     0.020 C 
BRANCH  29  31
HETATM   31  C   UNK N   1       0.871  -2.099   0.571  0.00  0.00     0.010 C 
HETATM   32  C   UNK N   1       0.215  -3.340  -0.005  0.00  0.00     0.006 C 
ENDBRANCH  29  31
ENDBRANCH  27  29
ENDBRANCH  26  27
ENDBRANCH   3  26
BRANCH   7  33
HETATM   33  O   UNK N   1       0.327   5.206  -0.596  0.00  0.00    -0.392 OA
HETATM   34  H   UNK N   1       0.467   6.038  -1.074  0.00  0.00     0.210 HD
ENDBRANCH   7  33
TORSDOF 15
