REMARK  11 active torsions:
REMARK  status: ('A' for Active; 'I' for Inactive)
REMARK    1  A    between atoms: O_4  and  C_14 
REMARK    2  A    between atoms: O_5  and  N_6 
REMARK    3  A    between atoms: O_5  and  C_21 
REMARK    4  A    between atoms: N_8  and  C_23 
REMARK    5  A    between atoms: C_9  and  C_10 
REMARK    6  A    between atoms: C_9  and  C_11 
REMARK    7  A    between atoms: C_10  and  C_12 
REMARK    8  A    between atoms: C_11  and  C_14 
REMARK    9  A    between atoms: C_12  and  C_13 
REMARK   10  A    between atoms: C_17  and  C_20 
REMARK   11  A    between atoms: C_21  and  C_23 
ROOT
HETATM    1  N   UNK N   1       3.148  -1.668  -0.399  0.00  0.00    -0.270 N 
ATOM      2  HN  UNK N   1       3.308  -2.649  -0.627  1.00  0.00     0.194 HD
HETATM    3  C   UNK N   1       4.131  -0.842  -0.535  0.00  0.00     0.042 C 
ENDROOT
BRANCH   3   4
HETATM    4  C   UNK N   1       5.441  -1.383  -1.024  0.00  0.00     0.060 C 
BRANCH   4   5
HETATM    5  C   UNK N   1       6.066  -2.364  -0.057  0.00  0.00     0.008 C 
BRANCH   5   6
HETATM    6  C   UNK N   1       7.519  -2.527  -0.454  0.00  0.00     0.027 C 
BRANCH   6   7
HETATM    7  C   UNK N   1       7.837  -3.977  -0.757  0.00  0.00     0.167 C 
BRANCH   7   8
HETATM    8  O   UNK N   1       8.542  -4.532   0.310  0.00  0.00    -0.396 OA
HETATM    9  C   UNK N   1       7.892  -5.737   0.574  0.00  0.00     0.201 C 
ENDBRANCH   7   8
ENDBRANCH   6   7
ENDBRANCH   5   6
ENDBRANCH   4   5
ENDBRANCH   3   4
BRANCH   3  10
HETATM   10  C   UNK N   1       4.030   0.632  -0.294  0.00  0.00    -0.012 A 
HETATM   11  C   UNK N   1       2.800   1.297  -0.151  0.00  0.00     0.014 A 
HETATM   12  C   UNK N   1       2.761   2.693  -0.014  0.00  0.00     0.017 A 
HETATM   13  C   UNK N   1       3.953   3.436   0.007  0.00  0.00     0.048 A 
HETATM   14  C   UNK N   1       5.176   2.772  -0.102  0.00  0.00     0.017 A 
HETATM   15  C   UNK N   1       5.212   1.389  -0.267  0.00  0.00     0.014 A 
BRANCH  13  16
HETATM   16  C   UNK N   1       3.941   4.934   0.118  0.00  0.00     0.417 C 
HETATM   17  F   UNK N   1       2.650   5.430   0.093  0.00  0.00    -0.166 F 
HETATM   18  F   UNK N   1       4.645   5.478  -0.943  0.00  0.00    -0.166 F 
HETATM   19  F   UNK N   1       4.547   5.317   1.301  0.00  0.00    -0.166 F 
ENDBRANCH  13  16
ENDBRANCH   3  10
BRANCH   1  20
HETATM   20  O   UNK N   1       1.947  -1.309   0.018  0.00  0.00    -0.279 OA
BRANCH  20  21
HETATM   21  C   UNK N   1       0.937  -2.237   0.212  0.00  0.00     0.220 C 
BRANCH  21  22
HETATM   22  C   UNK N   1       1.373  -3.675  -0.073  0.00  0.00     0.139 C 
BRANCH  22  23
HETATM   23  N   UNK N   1       0.265  -4.583   0.156  0.00  0.00    -0.428 N 
HETATM   24  H   UNK N   1      -0.677  -4.228   0.317  0.00  0.00     0.150 HD
HETATM   25  H   UNK N   1       0.431  -5.590   0.156  0.00  0.00     0.150 HD
ENDBRANCH  22  23
ENDBRANCH  21  22
ENDBRANCH  20  21
ENDBRANCH   1  20
TORSDOF 11
