REMARK  2 active torsions:
REMARK  status: ('A' for Active; 'I' for Inactive)
REMARK    1  A    between atoms: C_5  and  C_6 
REMARK    2  A    between atoms: C_5  and  C_7 
ROOT
HETATM    1  O   UNK N   1       4.951   1.653   2.063  0.00  0.00    -0.269 OA
HETATM    2  O   UNK N   1       7.379   2.173  -1.612  0.00  0.00    -0.247 OA
HETATM    3  N   UNK N   1       5.556   0.887  -1.251  0.00  0.00    -0.317 N 
HETATM    4  N   UNK N   1       6.385   2.158   0.404  0.00  0.00    -0.277 N 
HETATM    5  C   UNK N   1       4.674   0.608  -0.125  0.00  0.00     0.171 A 
HETATM    6  C   UNK N   1       5.324   1.513   0.908  0.00  0.00     0.263 A 
HETATM    7  C   UNK N   1       6.499   1.770  -0.868  0.00  0.00     0.324 A 
HETATM    8  H   UNK N   1       5.476   0.492  -2.150  0.00  0.00     0.166 HD
HETATM    9  H   UNK N   1       6.967   2.794   0.879  0.00  0.00     0.173 HD
ENDROOT
BRANCH   5  10
HETATM   10  C   UNK N   1       4.744  -0.848   0.297  0.00  0.00    -0.016 A 
HETATM   11  C   UNK N   1       4.013  -1.294   1.410  0.00  0.00     0.010 A 
HETATM   12  C   UNK N   1       4.036  -2.642   1.776  0.00  0.00     0.001 A 
HETATM   13  C   UNK N   1       4.788  -3.556   1.033  0.00  0.00     0.000 A 
HETATM   14  C   UNK N   1       5.520  -3.122  -0.074  0.00  0.00     0.001 A 
HETATM   15  C   UNK N   1       5.497  -1.775  -0.443  0.00  0.00     0.010 A 
ENDBRANCH   5  10
BRANCH   5  16
HETATM   16  C   UNK N   1       3.240   0.979  -0.468  0.00  0.00    -0.016 A 
HETATM   17  C   UNK N   1       2.585   2.050   0.164  0.00  0.00     0.010 A 
HETATM   18  C   UNK N   1       1.254   2.345  -0.142  0.00  0.00     0.001 A 
HETATM   19  C   UNK N   1       0.559   1.565  -1.070  0.00  0.00     0.000 A 
HETATM   20  C   UNK N   1       1.200   0.499  -1.704  0.00  0.00     0.001 A 
HETATM   21  C   UNK N   1       2.535   0.210  -1.410  0.00  0.00     0.010 A 
ENDBRANCH   5  16
TORSDOF 2
