REMARK  11 active torsions:
REMARK  status: ('A' for Active; 'I' for Inactive)
REMARK    1  A    between atoms: O_2  and  C_16 
REMARK    2  A    between atoms: O_4  and  C_21 
REMARK    3  A    between atoms: O_4  and  C_26 
REMARK       I    between atoms: N_6  and  C_15 
REMARK    4  A    between atoms: C_17  and  N_7 
REMARK    5  A    between atoms: C_19  and  N_7 
REMARK    6  A    between atoms: C_13  and  C_16 
REMARK    7  A    between atoms: C_15  and  C_17 
REMARK    8  A    between atoms: C_19  and  C_20 
REMARK    9  A    between atoms: C_19  and  C_21 
REMARK   10  A    between atoms: C_20  and  C_22 
REMARK   11  A    between atoms: C_22  and  C_23 
ROOT
HETATM    1  N   UNK N   1       3.808   0.130  -0.767  0.00  0.00    -0.397 N 
HETATM    2  H   UNK N   1       3.784  -0.507  -1.563  0.00  0.00     0.154 HD
ENDROOT
BRANCH   1   3
HETATM    3  C   UNK N   1       3.635  -0.299   0.629  0.00  0.00     0.166 C 
HETATM    4  C   UNK N   1       4.889  -0.204   1.485  0.00  0.00     0.042 C 
BRANCH   3   5
HETATM    5  C   UNK N   1       2.896  -1.604   0.754  0.00  0.00     0.243 C 
HETATM    6  O   UNK N   1       1.783  -1.557   1.259  0.00  0.00    -0.271 OA
HETATM    7  N   UNK N   1       3.391  -2.821   0.342  0.00  0.00    -0.331 N 
HETATM    8  C   UNK N   1       4.678  -3.083  -0.261  0.00  0.00     0.092 C 
HETATM    9  C   UNK N   1       2.615  -4.055   0.448  0.00  0.00     0.186 C 
HETATM   10  C   UNK N   1       4.886  -4.501   0.173  0.00  0.00     0.011 C 
HETATM   11  C   UNK N   1       5.989  -2.512   0.227  0.00  0.00     0.026 C 
HETATM   12  C   UNK N   1       3.554  -5.147  -0.107  0.00  0.00     0.043 C 
HETATM   13  C   UNK N   1       6.188  -4.870  -0.477  0.00  0.00     0.007 C 
HETATM   14  C   UNK N   1       7.005  -3.590  -0.216  0.00  0.00     0.002 C 
BRANCH   9  15
HETATM   15  C   UNK N   1       1.347  -4.050  -0.369  0.00  0.00     0.163 C 
HETATM   16  O   UNK N   1       1.050  -3.090  -1.063  0.00  0.00    -0.648 OA
BRANCH  15  17
HETATM   17  O   UNK N   1       0.538  -5.126  -0.343  0.00  0.00    -0.775 OA
HETATM   18  H   UNK N   1      -0.392  -5.012  -0.325  0.00  0.00     0.167 HD
ENDBRANCH  15  17
ENDBRANCH   9  15
ENDBRANCH   3   5
ENDBRANCH   1   3
BRANCH   1  19
HETATM   19  C   UNK N   1       4.021   1.591  -0.890  0.00  0.00     0.178 C 
BRANCH  19  20
HETATM   20  C   UNK N   1       5.439   1.955  -0.480  0.00  0.00     0.039 C 
BRANCH  20  21
HETATM   21  C   UNK N   1       6.450   1.341  -1.430  0.00  0.00     0.041 C 
BRANCH  21  22
HETATM   22  C   UNK N   1       7.715   1.101  -0.690  0.00  0.00    -0.058 A 
HETATM   23  C   UNK N   1       8.154  -0.209  -0.487  0.00  0.00     0.007 A 
HETATM   24  C   UNK N   1       9.316  -0.453   0.248  0.00  0.00     0.001 A 
HETATM   25  C   UNK N   1      10.042   0.617   0.780  0.00  0.00     0.000 A 
HETATM   26  C   UNK N   1       9.609   1.930   0.572  0.00  0.00     0.001 A 
HETATM   27  C   UNK N   1       8.445   2.173  -0.161  0.00  0.00     0.007 A 
ENDBRANCH  21  22
ENDBRANCH  20  21
ENDBRANCH  19  20
BRANCH  19  28
HETATM   28  C   UNK N   1       2.972   2.444  -0.171  0.00  0.00     0.281 C 
HETATM   29  O   UNK N   1       2.018   1.904   0.368  0.00  0.00    -0.263 OA
BRANCH  28  30
HETATM   30  O   UNK N   1       3.059   3.800  -0.113  0.00  0.00    -0.320 OA
BRANCH  30  31
HETATM   31  C   UNK N   1       4.076   4.535  -0.676  0.00  0.00     0.174 C 
HETATM   32  C   UNK N   1       4.907   5.172   0.423  0.00  0.00     0.034 C 
ENDBRANCH  30  31
ENDBRANCH  28  30
ENDBRANCH  19  28
ENDBRANCH   1  19
TORSDOF 11
