REMARK  9 active torsions:
REMARK  status: ('A' for Active; 'I' for Inactive)
REMARK    1  A    between atoms: O_1  and  C_17 
REMARK    2  A    between atoms: O_2  and  C_18 
REMARK    3  A    between atoms: O_3  and  C_21 
REMARK    4  A    between atoms: O_4  and  C_22 
REMARK    5  A    between atoms: C_5  and  C_6 
REMARK    6  A    between atoms: C_5  and  C_7 
REMARK    7  A    between atoms: C_6  and  C_8 
REMARK    8  A    between atoms: C_7  and  C_11 
REMARK    9  A    between atoms: C_8  and  C_12 
ROOT
HETATM    1  C   UNK N   1       6.005  -0.298   0.147  0.00  0.00    -0.011 C 
HETATM    2  C   UNK N   1       7.062   0.637  -0.428  0.00  0.00     0.010 C 
ENDROOT
BRANCH   1   3
HETATM    3  C   UNK N   1       4.605   0.291  -0.129  0.00  0.00    -0.011 C 
HETATM    4  C   UNK N   1       3.547  -0.640   0.451  0.00  0.00     0.010 C 
BRANCH   3   5
HETATM    5  C   UNK N   1       4.473   1.688   0.505  0.00  0.00     0.043 C 
BRANCH   5   6
HETATM    6  C   UNK N   1       3.221   2.474   0.199  0.00  0.00    -0.055 A 
HETATM    7  C   UNK N   1       3.291   3.873   0.157  0.00  0.00     0.046 A 
HETATM    8  C   UNK N   1       2.128   4.639  -0.000  0.00  0.00     0.099 A 
HETATM    9  C   UNK N   1       0.883   4.004  -0.113  0.00  0.00     0.098 A 
HETATM   10  C   UNK N   1       0.808   2.610  -0.076  0.00  0.00     0.040 A 
HETATM   11  C   UNK N   1       1.969   1.849   0.090  0.00  0.00     0.010 A 
BRANCH   8  12
HETATM   12  O   UNK N   1       2.209   5.981  -0.027  0.00  0.00    -0.358 OA
HETATM   13  H   UNK N   1       3.047   6.399  -0.046  0.00  0.00     0.217 HD
ENDBRANCH   8  12
BRANCH   9  14
HETATM   14  O   UNK N   1      -0.241   4.729  -0.247  0.00  0.00    -0.358 OA
HETATM   15  H   UNK N   1      -0.195   5.661  -0.340  0.00  0.00     0.217 HD
ENDBRANCH   9  14
ENDBRANCH   5   6
ENDBRANCH   3   5
ENDBRANCH   1   3
BRANCH   1  16
HETATM   16  C   UNK N   1       6.138  -1.691  -0.496  0.00  0.00     0.043 C 
BRANCH  16  17
HETATM   17  C   UNK N   1       7.394  -2.475  -0.196  0.00  0.00    -0.055 A 
HETATM   18  C   UNK N   1       7.325  -3.874  -0.137  0.00  0.00     0.046 A 
HETATM   19  C   UNK N   1       8.492  -4.638   0.010  0.00  0.00     0.099 A 
HETATM   20  C   UNK N   1       9.737  -4.001   0.095  0.00  0.00     0.098 A 
HETATM   21  C   UNK N   1       9.811  -2.608   0.041  0.00  0.00     0.040 A 
HETATM   22  C   UNK N   1       8.647  -1.849  -0.115  0.00  0.00     0.010 A 
BRANCH  19  23
HETATM   23  O   UNK N   1       8.411  -5.979   0.052  0.00  0.00    -0.358 OA
HETATM   24  H   UNK N   1       7.574  -6.398   0.082  0.00  0.00     0.217 HD
ENDBRANCH  19  23
BRANCH  20  25
HETATM   25  O   UNK N   1      10.864  -4.724   0.219  0.00  0.00    -0.358 OA
HETATM   26  H   UNK N   1      10.821  -5.656   0.305  0.00  0.00     0.217 HD
ENDBRANCH  20  25
ENDBRANCH  16  17
ENDBRANCH   1  16
TORSDOF 9
