REMARK  6 active torsions:
REMARK  status: ('A' for Active; 'I' for Inactive)
REMARK    1  A    between atoms: O_2  and  C_11 
REMARK    2  A    between atoms: N_4  and  C_8 
REMARK    3  A    between atoms: C_5  and  C_6 
REMARK    4  A    between atoms: C_5  and  C_7 
REMARK    5  A    between atoms: C_5  and  C_8 
REMARK    6  A    between atoms: C_7  and  C_11 
ROOT
HETATM    1  C   UNK N   1       3.443   0.938  -0.196  0.00  0.00     0.045 C 
ENDROOT
BRANCH   1   2
HETATM    2  C   UNK N   1       3.718  -0.549  -0.105  0.00  0.00    -0.052 A 
HETATM    3  C   UNK N   1       5.018  -1.030  -0.328  0.00  0.00     0.009 A 
HETATM    4  C   UNK N   1       5.286  -2.402  -0.268  0.00  0.00     0.024 A 
HETATM    5  C   UNK N   1       4.254  -3.306  -0.002  0.00  0.00     0.034 A 
HETATM    6 Cl   UNK N   1       4.585  -5.024   0.062  0.00  0.00    -0.084 Cl
HETATM    7  C   UNK N   1       2.955  -2.841   0.211  0.00  0.00     0.024 A 
HETATM    8  C   UNK N   1       2.688  -1.470   0.163  0.00  0.00     0.009 A 
ENDBRANCH   1   2
BRANCH   1   9
HETATM    9  C   UNK N   1       4.387   1.716   0.726  0.00  0.00     0.120 C 
BRANCH   9  10
HETATM   10  C   UNK N   1       4.770   3.050   0.156  0.00  0.00     0.140 C 
HETATM   11  O   UNK N   1       3.943   3.938   0.041  0.00  0.00    -0.650 OA
BRANCH  10  12
HETATM   12  O   UNK N   1       6.047   3.280  -0.202  0.00  0.00    -0.776 OA
HETATM   13  H   UNK N   1       6.631   2.590  -0.450  0.00  0.00     0.167 HD
ENDBRANCH  10  12
ENDBRANCH   9  10
ENDBRANCH   1   9
BRANCH   1  14
HETATM   14  C   UNK N   1       1.978   1.266   0.123  0.00  0.00     0.120 C 
BRANCH  14  15
HETATM   15  N   UNK N   1       1.603   2.574  -0.382  0.00  0.00    -0.429 N 
HETATM   16  H   UNK N   1       2.268   3.262  -0.737  0.00  0.00     0.149 HD
HETATM   17  H   UNK N   1       0.614   2.820  -0.382  0.00  0.00     0.149 HD
ENDBRANCH  14  15
ENDBRANCH   1  14
TORSDOF 6
