REMARK  3 active torsions:
REMARK  status: ('A' for Active; 'I' for Inactive)
REMARK    1  A    between atoms: N_1  and  C_2 
REMARK    2  A    between atoms: C_2  and  C_3 
REMARK    3  A    between atoms: C_3  and  C_6 
ROOT
HETATM    1  C   UNK N   1       2.738   0.833  -0.944  0.00  0.00     0.068 C 
ENDROOT
BRANCH   1   2
HETATM    2  C   UNK N   1       3.524   1.693   0.055  0.00  0.00     0.019 C 
HETATM    3  C   UNK N   1       2.602   2.204   1.146  0.00  0.00     0.037 C 
HETATM    4  C   UNK N   1       4.676   0.935   0.691  0.00  0.00     0.037 C 
BRANCH   2   5
HETATM    5  N   UNK N   1       4.069   2.832  -0.660  0.00  0.00    -0.422 N 
HETATM    6  H   UNK N   1       4.954   2.900  -1.162  0.00  0.00     0.150 HD
HETATM    7  H   UNK N   1       3.493   3.673  -0.660  0.00  0.00     0.150 HD
ENDBRANCH   2   5
ENDBRANCH   1   2
BRANCH   1   8
HETATM    8  C   UNK N   1       2.264  -0.505  -0.444  0.00  0.00    -0.056 A 
HETATM    9  C   UNK N   1       3.178  -1.547  -0.248  0.00  0.00     0.007 A 
HETATM   10  C   UNK N   1       2.731  -2.809   0.155  0.00  0.00     0.001 A 
HETATM   11  C   UNK N   1       1.367  -3.034   0.354  0.00  0.00     0.000 A 
HETATM   12  C   UNK N   1       0.449  -1.999   0.151  0.00  0.00     0.001 A 
HETATM   13  C   UNK N   1       0.897  -0.735  -0.255  0.00  0.00     0.007 A 
ENDBRANCH   1   8
TORSDOF 3
