REMARK  6 active torsions:
REMARK  status: ('A' for Active; 'I' for Inactive)
REMARK    1  A    between atoms: N_2  and  C_12 
REMARK    2  A    between atoms: N_2  and  C_21 
REMARK       I    between atoms: N_3  and  C_11 
REMARK    3  A    between atoms: C_4  and  C_5 
REMARK    4  A    between atoms: C_4  and  C_11 
REMARK    5  A    between atoms: C_5  and  C_10 
REMARK    6  A    between atoms: C_10  and  C_12 
ROOT
HETATM    1  C   UNK N   1       5.865  -0.195  -0.071  0.00  0.00     0.096 A 
HETATM    2  C   UNK N   1       6.950  -1.189   0.318  0.00  0.00    -0.025 A 
HETATM    3  C   UNK N   1       4.753  -1.182  -0.414  0.00  0.00    -0.025 A 
HETATM    4  C   UNK N   1       6.524  -2.496   0.182  0.00  0.00    -0.018 A 
HETATM    5  C   UNK N   1       5.161  -2.491  -0.257  0.00  0.00    -0.018 A 
HETATM    6  C   UNK N   1       8.255  -0.910   0.736  0.00  0.00     0.009 A 
HETATM    7  C   UNK N   1       3.449  -0.893  -0.831  0.00  0.00     0.009 A 
HETATM    8  C   UNK N   1       7.362  -3.578   0.446  0.00  0.00     0.013 A 
HETATM    9  C   UNK N   1       4.310  -3.566  -0.504  0.00  0.00     0.013 A 
HETATM   10  C   UNK N   1       9.121  -1.984   1.007  0.00  0.00     0.001 A 
HETATM   11  C   UNK N   1       2.569  -1.958  -1.082  0.00  0.00     0.001 A 
HETATM   12  C   UNK N   1       8.677  -3.313   0.860  0.00  0.00     0.001 A 
HETATM   13  C   UNK N   1       2.998  -3.290  -0.920  0.00  0.00     0.001 A 
ENDROOT
BRANCH   1  14
HETATM   14  C   UNK N   1       5.433   0.695   1.108  0.00  0.00     0.031 C 
BRANCH  14  15
HETATM   15  C   UNK N   1       4.437   1.760   0.648  0.00  0.00     0.021 C 
BRANCH  15  16
HETATM   16  C   UNK N   1       3.417   2.113   1.718  0.00  0.00     0.114 C 
BRANCH  16  17
HETATM   17  N   UNK N   1       2.107   1.545   1.399  0.00  0.00    -0.418 N 
HETATM   18  H   UNK N   1       1.648   0.805   1.930  0.00  0.00     0.153 HD
BRANCH  17  19
HETATM   19  C   UNK N   1       1.549   2.191   0.211  0.00  0.00     0.068 C 
HETATM   20  C   UNK N   1       0.345   1.406  -0.267  0.00  0.00     0.031 C 
HETATM   21  C   UNK N   1       1.117   3.616   0.514  0.00  0.00     0.031 C 
ENDBRANCH  17  19
ENDBRANCH  16  17
ENDBRANCH  15  16
ENDBRANCH  14  15
ENDBRANCH   1  14
BRANCH   1  22
HETATM   22  C   UNK N   1       6.337   0.642  -1.248  0.00  0.00     0.233 C 
HETATM   23  O   UNK N   1       7.282   1.406  -1.108  0.00  0.00    -0.272 OA
HETATM   24  N   UNK N   1       5.724   0.563  -2.446  0.00  0.00    -0.369 N 
HETATM   25  H   UNK N   1       5.450   0.922  -3.321  0.00  0.00     0.159 HD
HETATM   26  H   UNK N   1       5.344  -0.346  -2.446  0.00  0.00     0.159 HD
ENDBRANCH   1  22
TORSDOF 6
