REMARK  12 active torsions:
REMARK  status: ('A' for Active; 'I' for Inactive)
REMARK    1  A    between atoms: O_1  and  C_8 
REMARK    2  A    between atoms: O_1  and  C_9 
REMARK    3  A    between atoms: O_2  and  C_15 
REMARK    4  A    between atoms: O_2  and  C_18 
REMARK    5  A    between atoms: O_3  and  C_12 
REMARK    6  A    between atoms: N_4  and  C_13 
REMARK    7  A    between atoms: N_4  and  C_14 
REMARK    8  A    between atoms: C_5  and  C_8 
REMARK    9  A    between atoms: C_9  and  C_10 
REMARK   10  A    between atoms: C_10  and  C_11 
REMARK   11  A    between atoms: C_12  and  C_13 
REMARK   12  A    between atoms: C_12  and  C_15 
ROOT
HETATM    1  C   UNK N   1       4.178  -1.941  -0.006  0.00  0.00    -0.056 A 
HETATM    2  C   UNK N   1       2.825  -1.589  -0.144  0.00  0.00     0.010 A 
HETATM    3  C   UNK N   1       5.143  -0.937   0.097  0.00  0.00     0.010 A 
HETATM    4  C   UNK N   1       3.413   0.764  -0.059  0.00  0.00     0.068 A 
HETATM    5  C   UNK N   1       2.447  -0.242  -0.172  0.00  0.00     0.037 A 
HETATM    6  C   UNK N   1       4.766   0.406   0.074  0.00  0.00     0.037 A 
ENDROOT
BRANCH   4   7
HETATM    7  O   UNK N   1       3.028   2.062  -0.085  0.00  0.00    -0.349 OA
BRANCH   7   8
HETATM    8  C   UNK N   1       3.905   3.099   0.153  0.00  0.00     0.209 C 
BRANCH   8   9
HETATM    9  C   UNK N   1       3.266   4.440  -0.168  0.00  0.00     0.159 C 
BRANCH   9  10
HETATM   10  O   UNK N   1       2.079   4.586   0.550  0.00  0.00    -0.392 OA
HETATM   11  H   UNK N   1       1.754   5.351   1.050  0.00  0.00     0.210 HD
ENDBRANCH   9  10
BRANCH   9  12
HETATM   12  C   UNK N   1       4.218   5.563   0.213  0.00  0.00     0.147 C 
BRANCH  12  13
HETATM   13  N   UNK N   1       5.399   5.537  -0.637  0.00  0.00    -0.415 N 
HETATM   14  H   UNK N   1       5.413   5.416  -1.650  0.00  0.00     0.153 HD
BRANCH  13  15
HETATM   15  C   UNK N   1       6.553   5.717   0.227  0.00  0.00     0.068 C 
HETATM   16  C   UNK N   1       7.519   4.568   0.020  0.00  0.00     0.031 C 
HETATM   17  C   UNK N   1       7.247   7.021  -0.113  0.00  0.00     0.031 C 
ENDBRANCH  13  15
ENDBRANCH  12  13
ENDBRANCH   9  12
ENDBRANCH   8   9
ENDBRANCH   7   8
ENDBRANCH   4   7
BRANCH   1  18
HETATM   18  C   UNK N   1       4.630  -3.369   0.022  0.00  0.00     0.064 C 
BRANCH  18  19
HETATM   19  C   UNK N   1       3.571  -4.340   0.521  0.00  0.00     0.172 C 
BRANCH  19  20
HETATM   20  O   UNK N   1       2.860  -4.864  -0.561  0.00  0.00    -0.390 OA
BRANCH  20  21
HETATM   21  C   UNK N   1       1.506  -4.735  -0.223  0.00  0.00     0.172 C 
BRANCH  21  22
HETATM   22  C   UNK N   1       0.978  -5.949   0.549  0.00  0.00     0.009 A 
HETATM   23  C   UNK N   1       1.709  -7.235   0.189  0.00  0.00     0.007 A 
HETATM   24  C   UNK N   1       0.376  -6.925  -0.445  0.00  0.00     0.007 A 
ENDBRANCH  21  22
ENDBRANCH  20  21
ENDBRANCH  19  20
ENDBRANCH  18  19
ENDBRANCH   1  18
TORSDOF 12
