REMARK  11 active torsions:
REMARK  status: ('A' for Active; 'I' for Inactive)
REMARK    1  A    between atoms: O_1  and  C_15 
REMARK    2  A    between atoms: O_1  and  C_19 
REMARK    3  A    between atoms: O_2  and  C_16 
REMARK    4  A    between atoms: O_2  and  C_20 
REMARK    5  A    between atoms: N_5  and  C_7 
REMARK    6  A    between atoms: N_6  and  C_8 
REMARK    7  A    between atoms: C_7  and  C_15 
REMARK    8  A    between atoms: C_8  and  C_16 
REMARK    9  A    between atoms: C_17  and  C_18 
REMARK   10  A    between atoms: C_17  and  C_19 
REMARK   11  A    between atoms: C_18  and  C_20 
ROOT
HETATM    1  C   UNK N   1       6.178  -0.747  -0.146  0.00  0.00     0.121 C 
ENDROOT
BRANCH   1   2
HETATM    2  C   UNK N   1       6.387   0.762  -0.130  0.00  0.00     0.121 C 
BRANCH   2   3
HETATM    3  C   UNK N   1       7.822   1.164   0.077  0.00  0.00     0.259 C 
HETATM    4  O   UNK N   1       8.111   2.349   0.019  0.00  0.00    -0.265 OA
BRANCH   3   5
HETATM    5  O   UNK N   1       8.775   0.237   0.364  0.00  0.00    -0.320 OA
BRANCH   5   6
HETATM    6  C   UNK N   1      10.085   0.592   0.614  0.00  0.00     0.206 C 
BRANCH   6   7
HETATM    7  C   UNK N   1      11.043  -0.380  -0.076  0.00  0.00     0.262 C 
BRANCH   7   8
HETATM    8  N   UNK N   1      12.411   0.138  -0.184  0.00  0.00    -0.077 N 
HETATM    9  C   UNK N   1      13.233  -0.871  -0.825  0.00  0.00     0.271 C 
HETATM   10  C   UNK N   1      12.446   1.338  -1.005  0.00  0.00     0.271 C 
HETATM   11  C   UNK N   1      12.985   0.425   1.123  0.00  0.00     0.271 C 
ENDBRANCH   7   8
ENDBRANCH   6   7
ENDBRANCH   5   6
ENDBRANCH   3   5
ENDBRANCH   2   3
ENDBRANCH   1   2
BRANCH   1  12
HETATM   12  C   UNK N   1       4.744  -1.139   0.082  0.00  0.00     0.259 C 
HETATM   13  O   UNK N   1       4.434  -2.316  -0.016  0.00  0.00    -0.265 OA
BRANCH  12  14
HETATM   14  O   UNK N   1       3.813  -0.209   0.428  0.00  0.00    -0.320 OA
BRANCH  14  15
HETATM   15  C   UNK N   1       2.502  -0.549   0.687  0.00  0.00     0.206 C 
BRANCH  15  16
HETATM   16  C   UNK N   1       1.552   0.374  -0.077  0.00  0.00     0.262 C 
BRANCH  16  17
HETATM   17  N   UNK N   1       0.193  -0.166  -0.192  0.00  0.00    -0.077 N 
HETATM   18  C   UNK N   1       0.190  -1.386  -0.985  0.00  0.00     0.271 C 
HETATM   19  C   UNK N   1      -0.634   0.816  -0.869  0.00  0.00     0.271 C 
HETATM   20  C   UNK N   1      -0.396  -0.432   1.113  0.00  0.00     0.271 C 
ENDBRANCH  16  17
ENDBRANCH  15  16
ENDBRANCH  14  15
ENDBRANCH  12  14
ENDBRANCH   1  12
TORSDOF 11
