REMARK  3 active torsions:
REMARK  status: ('A' for Active; 'I' for Inactive)
REMARK    1  A    between atoms: N_6  and  C_12 
REMARK       I    between atoms: N_7  and  C_16 
REMARK    2  A    between atoms: C_8  and  C_11 
REMARK    3  A    between atoms: C_9  and  C_10 
ROOT
HETATM    1  N   UNK N   1       4.604  -2.691  -0.279  0.00  0.00    -0.195 N 
ATOM      2  HN  UNK N   1       5.458  -3.246  -0.322  1.00  0.00     0.184 HD
HETATM    3  N   UNK N   1       2.261  -2.609  -0.209  0.00  0.00    -0.176 N 
ATOM      4  HN  UNK N   1       1.367  -3.101  -0.203  1.00  0.00     0.186 HD
HETATM    5  N   UNK N   1       3.356  -4.731  -0.292  0.00  0.00    -0.234 N 
HETATM    6  C   UNK N   1       3.507  -0.549  -0.179  0.00  0.00     0.041 A 
HETATM    7  C   UNK N   1       4.695  -1.335  -0.241  0.00  0.00     0.041 A 
HETATM    8  C   UNK N   1       2.273  -1.252  -0.165  0.00  0.00     0.127 A 
HETATM    9  C   UNK N   1       3.407  -3.323  -0.261  0.00  0.00     0.677 A 
HETATM   10  H   UNK N   1       2.486  -5.192  -0.314  0.00  0.00     0.174 HD
HETATM   11  H   UNK N   1       4.190  -5.254  -0.292  0.00  0.00     0.174 HD
ENDROOT
BRANCH   6  12
HETATM   12  C   UNK N   1       3.541   0.958  -0.122  0.00  0.00    -0.020 A 
HETATM   13  C   UNK N   1       2.479   1.674   0.460  0.00  0.00     0.014 A 
HETATM   14  C   UNK N   1       2.514   3.066   0.551  0.00  0.00     0.024 A 
HETATM   15  C   UNK N   1       3.607   3.770   0.047  0.00  0.00     0.034 A 
HETATM   16 Cl   UNK N   1       3.651   5.515   0.166  0.00  0.00    -0.084 Cl
HETATM   17  C   UNK N   1       4.664   3.082  -0.549  0.00  0.00     0.024 A 
HETATM   18  C   UNK N   1       4.633   1.687  -0.627  0.00  0.00     0.014 A 
ENDBRANCH   6  12
BRANCH   7  19
HETATM   19  C   UNK N   1       6.073  -0.746  -0.221  0.00  0.00     0.054 C 
HETATM   20  C   UNK N   1       6.381  -0.129   1.135  0.00  0.00     0.011 C 
ENDBRANCH   7  19
BRANCH   8  21
HETATM   21  N   UNK N   1       1.037  -0.573  -0.151  0.00  0.00    -0.384 N 
HETATM   22  H   UNK N   1       1.016   0.412  -0.141  0.00  0.00     0.157 HD
HETATM   23  H   UNK N   1       0.194  -1.083  -0.151  0.00  0.00     0.157 HD
ENDBRANCH   8  21
TORSDOF 3
