REMARK  5 active torsions:
REMARK  status: ('A' for Active; 'I' for Inactive)
REMARK    1  A    between atoms: O_1  and  C_15 
REMARK    2  A    between atoms: O_2  and  C_31 
REMARK    3  A    between atoms: C_4  and  C_14 
REMARK    4  A    between atoms: C_17  and  C_20 
REMARK    5  A    between atoms: C_30  and  C_31 
ROOT
HETATM    1  C   UNK N   1       3.014  -3.791   0.046  0.00  0.00    -0.015 A 
HETATM    2  C   UNK N   1       1.726  -4.372   0.069  0.00  0.00     0.075 A 
HETATM    3  C   UNK N   1       3.092  -2.433   0.151  0.00  0.00     0.023 A 
HETATM    4  C   UNK N   1       2.040  -1.561   0.255  0.00  0.00    -0.025 A 
HETATM    5  C   UNK N   1       0.590  -3.512   0.189  0.00  0.00     0.038 A 
HETATM    6  C   UNK N   1       0.744  -2.100   0.268  0.00  0.00     0.015 A 
ENDROOT
BRANCH   4   7
HETATM    7  C   UNK N   1       2.456  -0.130   0.270  0.00  0.00    -0.025 A 
HETATM    8  C   UNK N   1       1.596   0.982   0.180  0.00  0.00     0.024 A 
HETATM    9  C   UNK N   1       2.162   2.281   0.127  0.00  0.00    -0.025 A 
HETATM   10  C   UNK N   1       3.572   2.439   0.168  0.00  0.00    -0.025 A 
HETATM   11  C   UNK N   1       1.364   3.428   0.026  0.00  0.00     0.013 A 
HETATM   12  C   UNK N   1       4.399   1.349   0.265  0.00  0.00     0.013 A 
HETATM   13  C   UNK N   1       4.153   3.691   0.115  0.00  0.00     0.030 A 
HETATM   14  C   UNK N   1       3.850   0.097   0.311  0.00  0.00     0.013 A 
HETATM   15  C   UNK N   1       3.370   4.829   0.021  0.00  0.00     0.038 A 
HETATM   16  C   UNK N   1       1.966   4.700  -0.026  0.00  0.00     0.019 A 
BRANCH  15  17
HETATM   17  C   UNK N   1       4.029   6.147  -0.016  0.00  0.00     0.176 C 
HETATM   18  O   UNK N   1       5.254   6.220   0.027  0.00  0.00    -0.646 OA
BRANCH  17  19
HETATM   19  O   UNK N   1       3.304   7.274  -0.086  0.00  0.00    -0.773 OA
HETATM   20  H   UNK N   1       3.732   8.106  -0.135  0.00  0.00     0.167 HD
ENDBRANCH  17  19
ENDBRANCH  15  17
ENDBRANCH   4   7
BRANCH   1  21
HETATM   21  C   UNK N   1       4.353  -4.507  -0.154  0.00  0.00    -0.009 C 
HETATM   22  C   UNK N   1       4.334  -5.306  -1.469  0.00  0.00     0.019 C 
HETATM   23  C   UNK N   1       5.708  -5.952  -1.721  0.00  0.00    -0.013 C 
HETATM   24  C   UNK N   1       6.055  -6.883  -0.548  0.00  0.00     0.009 C 
HETATM   25  C   UNK N   1       6.783  -4.860  -1.831  0.00  0.00     0.009 C 
HETATM   26  C   UNK N   1       6.092  -6.087   0.766  0.00  0.00    -0.013 C 
HETATM   27  C   UNK N   1       4.706  -5.446   1.012  0.00  0.00     0.019 C 
HETATM   28  C   UNK N   1       7.176  -4.999   0.652  0.00  0.00     0.009 C 
HETATM   29  C   UNK N   1       6.858  -4.068  -0.521  0.00  0.00    -0.013 C 
HETATM   30  C   UNK N   1       5.500  -3.444  -0.264  0.00  0.00     0.019 C 
ENDBRANCH   1  21
BRANCH   2  31
HETATM   31  O   UNK N   1       1.592  -5.716  -0.055  0.00  0.00    -0.355 OA
HETATM   32  C   UNK N   1       0.372  -6.348  -0.138  0.00  0.00     0.210 C 
ENDBRANCH   2  31
TORSDOF 5
