REMARK  8 active torsions:
REMARK  status: ('A' for Active; 'I' for Inactive)
REMARK    1  A    between atoms: O_1  and  C_7 
REMARK    2  A    between atoms: O_2  and  C_10 
REMARK    3  A    between atoms: O_3  and  C_12 
REMARK    4  A    between atoms: N_5  and  C_9 
REMARK       I    between atoms: N_5  and  C_15 
REMARK    5  A    between atoms: N_6  and  C_16 
REMARK    6  A    between atoms: C_7  and  C_8 
REMARK    7  A    between atoms: C_7  and  C_9 
REMARK    8  A    between atoms: C_15  and  C_16 
ROOT
HETATM    1  C   UNK N   1       3.119   0.726  -0.064  0.00  0.00     0.171 C 
ENDROOT
BRANCH   1   2
HETATM    2  O   UNK N   1       3.278   1.193  -1.369  0.00  0.00    -0.389 OA
HETATM    3  H   UNK N   1       3.616   1.260  -2.276  0.00  0.00     0.210 HD
ENDBRANCH   1   2
BRANCH   1   4
HETATM    4  C   UNK N   1       3.365  -0.764  -0.007  0.00  0.00     0.008 A 
HETATM    5  C   UNK N   1       2.351  -1.709   0.338  0.00  0.00     0.077 A 
HETATM    6  C   UNK N   1       2.675  -3.072   0.350  0.00  0.00     0.040 A 
HETATM    7  C   UNK N   1       3.961  -3.512   0.036  0.00  0.00     0.039 A 
HETATM    8  C   UNK N   1       4.957  -2.590  -0.308  0.00  0.00     0.069 A 
HETATM    9  C   UNK N   1       4.648  -1.233  -0.333  0.00  0.00     0.049 A 
BRANCH   5  10
HETATM   10  O   UNK N   1       1.069  -1.380   0.654  0.00  0.00    -0.355 OA
HETATM   11  C   UNK N   1       0.535  -0.114   0.687  0.00  0.00     0.210 C 
ENDBRANCH   5  10
BRANCH   8  12
HETATM   12  O   UNK N   1       6.219  -2.979  -0.610  0.00  0.00    -0.356 OA
HETATM   13  C   UNK N   1       6.630  -4.292  -0.589  0.00  0.00     0.210 C 
ENDBRANCH   8  12
ENDBRANCH   1   4
BRANCH   1  14
HETATM   14  C   UNK N   1       3.975   1.558   0.904  0.00  0.00     0.159 C 
BRANCH  14  15
HETATM   15  N   UNK N   1       5.383   1.250   0.786  0.00  0.00    -0.357 N 
HETATM   16  C   UNK N   1       6.286   2.068   0.190  0.00  0.00     0.234 C 
HETATM   17  O   UNK N   1       7.453   1.721   0.127  0.00  0.00    -0.272 OA
HETATM   18  H   UNK N   1       5.705   0.398   1.159  0.00  0.00     0.162 HD
BRANCH  16  19
HETATM   19  C   UNK N   1       5.874   3.374  -0.419  0.00  0.00     0.214 C 
BRANCH  19  20
HETATM   20  N   UNK N   1       6.616   4.462   0.195  0.00  0.00    -0.422 N 
HETATM   21  H   UNK N   1       7.538   4.393   0.626  0.00  0.00     0.150 HD
HETATM   22  H   UNK N   1       6.173   5.381   0.195  0.00  0.00     0.150 HD
ENDBRANCH  19  20
ENDBRANCH  16  19
ENDBRANCH  14  15
ENDBRANCH   1  14
TORSDOF 8
