REMARK  5 active torsions:
REMARK  status: ('A' for Active; 'I' for Inactive)
REMARK    1  A    between atoms: S_1  and  N_7 
REMARK    2  A    between atoms: S_1  and  C_11 
REMARK    3  A    between atoms: N_5  and  C_10 
REMARK       I    between atoms: N_5  and  C_16 
REMARK    4  A    between atoms: N_6  and  C_12 
REMARK    5  A    between atoms: N_6  and  C_13 
REMARK       I    between atoms: N_7  and  C_16 
ROOT
HETATM    1  N   UNK N   1       7.748  -3.284  -0.862  0.00  0.00    -0.374 N 
ATOM      2  HN  UNK N   1       8.617  -3.445  -1.370  1.00  0.00     0.164 HD
HETATM    3  C   UNK N   1       6.296  -1.796   0.320  0.00  0.00     0.121 A 
HETATM    4  C   UNK N   1       5.389  -2.851   0.511  0.00  0.00     0.058 A 
HETATM    5  C   UNK N   1       7.482  -2.040  -0.377  0.00  0.00     0.115 A 
HETATM    6  C   UNK N   1       5.680  -4.120   0.002  0.00  0.00     0.048 A 
HETATM    7  C   UNK N   1       6.881  -4.319  -0.685  0.00  0.00     0.090 A 
ENDROOT
BRANCH   3   8
HETATM    8  S   UNK N   1       5.973  -0.154   1.005  0.00  0.00     0.270 S 
HETATM    9  O   UNK N   1       4.593  -0.022   1.666  0.00  0.00    -0.200 OA
HETATM   10  O   UNK N   1       6.870   0.090   2.226  0.00  0.00    -0.200 OA
BRANCH   8  11
HETATM   11  N   UNK N   1       6.118   1.335   0.086  0.00  0.00    -0.232 N 
HETATM   12  C   UNK N   1       7.315   1.821  -0.306  0.00  0.00     0.330 C 
HETATM   13  O   UNK N   1       8.322   1.137  -0.198  0.00  0.00    -0.246 OA
HETATM   14  N   UNK N   1       7.397   3.107  -0.731  0.00  0.00    -0.338 N 
HETATM   15  H   UNK N   1       6.563   3.622  -0.827  0.00  0.00     0.164 HD
HETATM   16  H   UNK N   1       5.301   1.832  -0.150  0.00  0.00     0.183 HD
BRANCH  14  17
HETATM   17  C   UNK N   1       8.649   3.757  -1.048  0.00  0.00     0.078 C 
HETATM   18  C   UNK N   1       8.374   5.211  -1.372  0.00  0.00     0.032 C 
HETATM   19  C   UNK N   1       9.594   3.717   0.144  0.00  0.00     0.032 C 
ENDBRANCH  14  17
ENDBRANCH   8  11
ENDBRANCH   3   8
BRANCH   4  20
HETATM   20  N   UNK N   1       4.187  -2.606   1.213  0.00  0.00    -0.355 N 
HETATM   21  H   UNK N   1       4.225  -2.464   2.187  0.00  0.00     0.166 HD
BRANCH  20  22
HETATM   22  C   UNK N   1       2.931  -2.556   0.566  0.00  0.00     0.033 A 
HETATM   23  C   UNK N   1       2.012  -1.586   0.975  0.00  0.00     0.036 A 
HETATM   24  C   UNK N   1       0.812  -1.416   0.286  0.00  0.00    -0.060 A 
HETATM   25  C   UNK N   1       0.514  -2.234  -0.807  0.00  0.00     0.007 A 
HETATM   26  C   UNK N   1      -0.125  -0.336   0.690  0.00  0.00     0.048 C 
HETATM   27  C   UNK N   1       1.423  -3.217  -1.214  0.00  0.00     0.003 A 
HETATM   28  C   UNK N   1       2.642  -3.363  -0.543  0.00  0.00     0.029 A 
ENDBRANCH  20  22
ENDBRANCH   4  20
TORSDOF 5
