REMARK  5 active torsions:
REMARK  status: ('A' for Active; 'I' for Inactive)
REMARK    1  A    between atoms: N_3  and  C_12 
REMARK    2  A    between atoms: C_5  and  C_6 
REMARK    3  A    between atoms: C_5  and  C_10 
REMARK    4  A    between atoms: C_6  and  C_9 
REMARK    5  A    between atoms: C_9  and  C_12 
ROOT
HETATM    1  O   UNK N   1       6.352  -2.026   0.217  0.00  0.00    -0.366 OA
HETATM    2  N   UNK N   1      -0.254  -3.958   0.050  0.00  0.00    -0.191 NA
HETATM    3  C   UNK N   1       5.593  -0.791   0.217  0.00  0.00     0.116 C 
HETATM    4  C   UNK N   1       4.237  -1.258   0.511  0.00  0.00    -0.011 A 
HETATM    5  C   UNK N   1       4.204  -2.584   0.231  0.00  0.00    -0.023 A 
HETATM    6  C   UNK N   1       5.512  -3.141   0.104  0.00  0.00     0.209 C 
HETATM    7  C   UNK N   1       3.060  -0.521   0.530  0.00  0.00     0.012 A 
HETATM    8  C   UNK N   1       3.050  -3.256  -0.043  0.00  0.00     0.032 A 
HETATM    9  C   UNK N   1       1.851  -1.175   0.289  0.00  0.00     0.023 A 
HETATM   10  C   UNK N   1       1.868  -2.546  -0.001  0.00  0.00     0.045 A 
HETATM   11  C   UNK N   1       0.686  -3.296   0.032  0.00  0.00     0.099 C 
ENDROOT
BRANCH   3  12
HETATM   12  C   UNK N   1       5.298  -0.213  -1.213  0.00  0.00     0.050 C 
BRANCH  12  13
HETATM   13  C   UNK N   1       4.602   1.208  -1.437  0.00  0.00     0.034 C 
BRANCH  13  14
HETATM   14  C   UNK N   1       3.949   2.198  -0.395  0.00  0.00     0.271 C 
BRANCH  14  15
HETATM   15  N   UNK N   1       2.515   2.011  -0.096  0.00  0.00     0.080 N 
HETATM   16  C   UNK N   1       1.972   3.229   0.489  0.00  0.00     0.309 C 
HETATM   17  C   UNK N   1       1.742   1.737  -1.296  0.00  0.00     0.309 C 
ENDBRANCH  14  15
ENDBRANCH  13  14
ENDBRANCH  12  13
ENDBRANCH   3  12
BRANCH   3  18
HETATM   18  C   UNK N   1       6.610   0.197   0.670  0.00  0.00    -0.019 A 
HETATM   19  C   UNK N   1       6.294   1.501   1.060  0.00  0.00     0.013 A 
HETATM   20  C   UNK N   1       7.225   2.525   0.830  0.00  0.00     0.043 A 
HETATM   21  C   UNK N   1       8.435   2.249   0.168  0.00  0.00     0.116 A 
HETATM   22  F   UNK N   1       9.331   3.220  -0.079  0.00  0.00    -0.206 F 
HETATM   23  C   UNK N   1       8.751   0.964  -0.210  0.00  0.00     0.043 A 
HETATM   24  C   UNK N   1       7.850  -0.030   0.028  0.00  0.00     0.013 A 
ENDBRANCH   3  18
TORSDOF 5
