REMARK  12 active torsions:
REMARK  status: ('A' for Active; 'I' for Inactive)
REMARK    1  A    between atoms: S_1  and  C_23 
REMARK    2  A    between atoms: S_1  and  C_29 
REMARK    3  A    between atoms: C_20  and  O_3 
REMARK    4  A    between atoms: O_5  and  C_34 
REMARK    5  A    between atoms: N_6  and  C_18 
REMARK       I    between atoms: N_7  and  C_19 
REMARK    6  A    between atoms: N_7  and  C_22 
REMARK    7  A    between atoms: C_21  and  N_8 
REMARK       I    between atoms: N_8  and  C_27 
REMARK    8  A    between atoms: C_15  and  C_19 
REMARK    9  A    between atoms: C_18  and  C_20 
REMARK   10  A    between atoms: C_20  and  C_21 
REMARK   11  A    between atoms: C_21  and  C_23 
REMARK   12  A    between atoms: C_27  and  C_28 
ROOT
HETATM    1  C   UNK N   1       6.068   0.334  -0.857  0.00  0.00     0.170 C 
ENDROOT
BRANCH   1   2
HETATM    2  O   UNK N   1       7.147   1.044  -0.324  0.00  0.00    -0.392 OA
HETATM    3  H   UNK N   1       7.948   0.641   0.047  0.00  0.00     0.210 HD
ENDBRANCH   1   2
BRANCH   1   4
HETATM    4  C   UNK N   1       6.500  -0.955  -1.573  0.00  0.00     0.307 C 
BRANCH   4   5
HETATM    5  N   UNK N   1       7.594  -1.713  -0.952  0.00  0.00     0.105 N 
HETATM    6  C   UNK N   1       8.859  -0.962  -1.071  0.00  0.00     0.278 C 
HETATM    7  C   UNK N   1       9.937  -1.420  -0.087  0.00  0.00     0.018 C 
HETATM    8  C   UNK N   1       9.773  -2.927   0.155  0.00  0.00    -0.006 C 
HETATM    9  C   UNK N   1      11.325  -1.039  -0.628  0.00  0.00     0.007 C 
HETATM   10  C   UNK N   1       8.448  -3.190   0.867  0.00  0.00     0.050 C 
HETATM   11  C   UNK N   1      10.945  -3.457   0.974  0.00  0.00     0.005 C 
HETATM   12  C   UNK N   1       7.312  -2.267   0.391  0.00  0.00     0.314 C 
HETATM   13  C   UNK N   1      12.297  -3.187   0.289  0.00  0.00     0.000 C 
HETATM   14  C   UNK N   1      12.205  -2.255  -0.928  0.00  0.00     0.000 C 
BRANCH  12  15
HETATM   15  C   UNK N   1       6.039  -3.062   0.413  0.00  0.00     0.252 C 
HETATM   16  O   UNK N   1       5.256  -2.901   1.336  0.00  0.00    -0.271 OA
HETATM   17  N   UNK N   1       5.766  -3.919  -0.612  0.00  0.00    -0.351 N 
HETATM   18  H   UNK N   1       6.446  -3.971  -1.323  0.00  0.00     0.163 HD
BRANCH  17  19
HETATM   19  C   UNK N   1       4.595  -4.768  -0.789  0.00  0.00     0.022 C 
HETATM   20  C   UNK N   1       3.819  -4.280  -1.995  0.00  0.00     0.037 C 
HETATM   21  C   UNK N   1       3.651  -4.813   0.403  0.00  0.00     0.037 C 
HETATM   22  C   UNK N   1       5.066  -6.180  -1.066  0.00  0.00     0.037 C 
ENDBRANCH  17  19
ENDBRANCH  12  15
ENDBRANCH   4   5
ENDBRANCH   1   4
BRANCH   1  23
HETATM   23  C   UNK N   1       4.977   0.182   0.197  0.00  0.00     0.124 C 
BRANCH  23  24
HETATM   24  N   UNK N   1       4.521   1.492   0.623  0.00  0.00    -0.349 N 
HETATM   25  C   UNK N   1       4.008   2.432  -0.216  0.00  0.00     0.252 C 
HETATM   26  O   UNK N   1       3.830   2.193  -1.399  0.00  0.00    -0.268 OA
HETATM   27  H   UNK N   1       4.587   1.715   1.580  0.00  0.00     0.163 HD
BRANCH  25  28
HETATM   28  C   UNK N   1       3.892   3.816   0.250  0.00  0.00     0.040 A 
HETATM   29  C   UNK N   1       5.037   4.638   0.308  0.00  0.00    -0.013 A 
HETATM   30  C   UNK N   1       4.914   5.972   0.722  0.00  0.00     0.072 A 
HETATM   31  C   UNK N   1       6.381   4.110  -0.093  0.00  0.00     0.052 C 
HETATM   32  C   UNK N   1       3.663   6.478   1.082  0.00  0.00     0.037 A 
HETATM   33  C   UNK N   1       2.529   5.662   1.022  0.00  0.00     0.004 A 
HETATM   34  C   UNK N   1       2.641   4.336   0.597  0.00  0.00     0.018 A 
BRANCH  30  35
HETATM   35  O   UNK N   1       5.993   6.773   0.769  0.00  0.00    -0.360 OA
HETATM   36  H   UNK N   1       6.853   6.401   0.801  0.00  0.00     0.217 HD
ENDBRANCH  30  35
ENDBRANCH  25  28
ENDBRANCH  23  24
BRANCH  23  37
HETATM   37  C   UNK N   1       3.863  -0.825  -0.112  0.00  0.00     0.107 C 
BRANCH  37  38
HETATM   38  S   UNK N   1       2.808  -0.518  -1.560  0.00  0.00    -0.128 SA
BRANCH  38  39
HETATM   39  C   UNK N   1       1.373  -0.840  -0.551  0.00  0.00     0.000 A 
HETATM   40  C   UNK N   1       1.070  -2.154  -0.173  0.00  0.00     0.018 A 
HETATM   41  C   UNK N   1      -0.015  -2.408   0.669  0.00  0.00     0.001 A 
HETATM   42  C   UNK N   1      -0.798  -1.348   1.136  0.00  0.00     0.000 A 
HETATM   43  C   UNK N   1      -0.498  -0.035   0.756  0.00  0.00     0.001 A 
HETATM   44  C   UNK N   1       0.590   0.220  -0.083  0.00  0.00     0.018 A 
ENDBRANCH  38  39
ENDBRANCH  37  38
ENDBRANCH  23  37
ENDBRANCH   1  23
TORSDOF 12
