REMARK  12 active torsions:
REMARK  status: ('A' for Active; 'I' for Inactive)
REMARK    1  A    between atoms: S_2  and  C_25 
REMARK    2  A    between atoms: S_2  and  C_30 
REMARK    3  A    between atoms: O_5  and  C_26 
REMARK    4  A    between atoms: C_20  and  N_9 
REMARK       I    between atoms: N_9  and  C_27 
REMARK    5  A    between atoms: N_10  and  C_31 
REMARK    6  A    between atoms: N_11  and  C_32 
REMARK    7  A    between atoms: N_18  and  C_34 
REMARK    8  A    between atoms: C_22  and  C_26 
REMARK    9  A    between atoms: C_23  and  C_25 
REMARK   10  A    between atoms: C_27  and  C_28 
REMARK   11  A    between atoms: C_28  and  C_29 
REMARK   12  A    between atoms: C_31  and  C_32 
ROOT
HETATM    1  S   UNK N   1       6.150  -2.211   1.160  0.00  0.00    -0.136 SA
HETATM    2  O   UNK N   1       9.413   0.737   1.531  0.00  0.00    -0.271 OA
HETATM    3  N   UNK N   1       7.816  -0.394   0.362  0.00  0.00    -0.293 N 
HETATM    4  C   UNK N   1       7.751  -1.813   0.458  0.00  0.00     0.187 A 
HETATM    5  C   UNK N   1       8.989  -1.721   1.500  0.00  0.00     0.210 A 
HETATM    6  C   UNK N   1       8.850  -0.277   1.149  0.00  0.00     0.251 A 
HETATM    7  C   UNK N   1       6.945   0.462  -0.386  0.00  0.00     0.116 C 
HETATM    8  C   UNK N   1       5.722  -0.064  -0.757  0.00  0.00    -0.027 C 
HETATM    9  C   UNK N   1       5.300  -1.457  -0.288  0.00  0.00     0.113 C 
ENDROOT
BRANCH   5  10
HETATM   10  N   UNK N   1      10.204  -2.376   1.022  0.00  0.00    -0.345 N 
HETATM   11  C   UNK N   1      10.809  -2.221  -0.187  0.00  0.00     0.224 C 
HETATM   12  O   UNK N   1      10.379  -1.434  -1.016  0.00  0.00    -0.273 OA
HETATM   13  H   UNK N   1      10.635  -3.002   1.647  0.00  0.00     0.163 HD
BRANCH  11  14
HETATM   14  C   UNK N   1      12.014  -3.052  -0.512  0.00  0.00     0.160 C 
BRANCH  14  15
HETATM   15  C   UNK N   1      13.284  -2.262  -0.466  0.00  0.00     0.026 A 
HETATM   16  N   UNK N   1      13.372  -1.042   0.176  0.00  0.00    -0.340 N 
HETATM   17  C   UNK N   1      14.618  -0.528   0.101  0.00  0.00     0.142 A 
ATOM     18  HN  UNK N   1      12.591  -0.586   0.648  1.00  0.00     0.168 HD
HETATM   19  S   UNK N   1      15.599  -1.549  -0.735  0.00  0.00    -0.064 SA
HETATM   20  C   UNK N   1      14.477  -2.732  -1.053  0.00  0.00     0.078 A 
BRANCH  17  21
HETATM   21  N   UNK N   1      14.998   0.702   0.672  0.00  0.00    -0.380 N 
HETATM   22  H   UNK N   1      15.875   0.901   1.071  0.00  0.00     0.158 HD
HETATM   23  H   UNK N   1      14.329   1.424   0.672  0.00  0.00     0.158 HD
ENDBRANCH  17  21
ENDBRANCH  14  15
ENDBRANCH  11  14
ENDBRANCH   5  10
BRANCH   7  24
HETATM   24  C   UNK N   1       7.440   1.822  -0.777  0.00  0.00     0.194 C 
HETATM   25  O   UNK N   1       8.591   2.141  -0.531  0.00  0.00    -0.645 OA
BRANCH  24  26
HETATM   26  O   UNK N   1       6.658   2.713  -1.400  0.00  0.00    -0.772 OA
HETATM   27  H   UNK N   1       6.924   3.499  -1.835  0.00  0.00     0.167 HD
ENDBRANCH  24  26
ENDBRANCH   7  24
BRANCH   8  28
HETATM   28  C   UNK N   1       4.752   0.525  -1.771  0.00  0.00     0.120 C 
BRANCH  28  29
HETATM   29  S   UNK N   1       3.975   2.186  -1.721  0.00  0.00    -0.087 SA
BRANCH  29  30
HETATM   30  C   UNK N   1       2.835   2.127  -0.333  0.00  0.00     0.172 A 
HETATM   31  N   UNK N   1       2.279   1.053   0.256  0.00  0.00    -0.254 N 
HETATM   32  N   UNK N   1       1.528   1.518   1.241  0.00  0.00    -0.004 NA
HETATM   33  N   UNK N   1       1.602   2.839   1.251  0.00  0.00    -0.007 NA
HETATM   34  N   UNK N   1       2.410   3.245   0.280  0.00  0.00    -0.265 N 
ATOM     35  HN  UNK N   1       2.659   4.206   0.048  1.00  0.00     0.186 HD
BRANCH  31  36
HETATM   36  C   UNK N   1       2.453  -0.355  -0.052  0.00  0.00     0.179 C 
BRANCH  36  37
HETATM   37  C   UNK N   1       1.123  -1.099  -0.058  0.00  0.00     0.292 C 
BRANCH  37  38
HETATM   38  N   UNK N   1       1.286  -2.449  -0.584  0.00  0.00     0.081 N 
HETATM   39  C   UNK N   1      -0.030  -3.061  -0.591  0.00  0.00     0.309 C 
HETATM   40  C   UNK N   1       2.101  -3.232   0.334  0.00  0.00     0.309 C 
ENDBRANCH  37  38
ENDBRANCH  36  37
ENDBRANCH  31  36
ENDBRANCH  29  30
ENDBRANCH  28  29
ENDBRANCH   8  28
TORSDOF 12
