REMARK  2 active torsions:
REMARK  status: ('A' for Active; 'I' for Inactive)
REMARK    1  A    between atoms: O_2  and  C_10 
REMARK    2  A    between atoms: C_9  and  C_12 
ROOT
HETATM    1 Cl   UNK N   1       2.197  -4.254   0.000  0.00  0.00    -0.084 Cl
HETATM    2  O   UNK N   1       1.967   3.934   0.000  0.00  0.00    -0.268 OA
HETATM    3  N   UNK N   1       1.557   1.742   0.000  0.00  0.00    -0.318 N 
HETATM    4  N   UNK N   1       4.764   1.578  -0.000  0.00  0.00    -0.355 N 
ATOM      5  HN  UNK N   1       5.755   1.821  -0.000  1.00  0.00     0.162 HD
HETATM    6  C   UNK N   1       1.860   0.324   0.000  0.00  0.00     0.049 A 
HETATM    7  C   UNK N   1       3.163  -0.314  -0.000  0.00  0.00     0.020 A 
HETATM    8  C   UNK N   1       4.551   0.314  -0.000  0.00  0.00     0.053 A 
HETATM    9  C   UNK N   1       3.907   2.715  -0.000  0.00  0.00     0.312 A 
HETATM   10  C   UNK N   1       2.426   2.797   0.000  0.00  0.00     0.272 A 
HETATM   11  C   UNK N   1       3.169  -1.722  -0.000  0.00  0.00     0.040 A 
HETATM   12  C   UNK N   1       0.723  -0.532   0.000  0.00  0.00     0.032 A 
HETATM   13  C   UNK N   1       0.144   2.104   0.000  0.00  0.00     0.159 C 
HETATM   14  C   UNK N   1       2.039  -2.512   0.000  0.00  0.00     0.035 A 
HETATM   15  C   UNK N   1       0.802  -1.915   0.000  0.00  0.00     0.026 A 
ENDROOT
BRANCH   8  16
HETATM   16  C   UNK N   1       5.824  -0.527  -0.000  0.00  0.00    -0.009 A 
HETATM   17  C   UNK N   1       7.072   0.130   0.000  0.00  0.00     0.014 A 
HETATM   18  C   UNK N   1       8.270  -0.591   0.000  0.00  0.00     0.001 A 
HETATM   19  C   UNK N   1       8.248  -1.986  -0.000  0.00  0.00     0.000 A 
HETATM   20  C   UNK N   1       7.029  -2.659  -0.000  0.00  0.00     0.001 A 
HETATM   21  C   UNK N   1       5.835  -1.935  -0.000  0.00  0.00     0.014 A 
ENDBRANCH   8  16
BRANCH   9  22
HETATM   22  O   UNK N   1       4.601   3.927   0.000  0.00  0.00    -0.368 OA
HETATM   23  H   UNK N   1       5.571   3.931   0.001  0.00  0.00     0.212 HD
ENDBRANCH   9  22
TORSDOF 2
