REMARK  3 active torsions:
REMARK  status: ('A' for Active; 'I' for Inactive)
REMARK    1  A    between atoms: S_4  and  N_11 
REMARK    2  A    between atoms: S_4  and  C_19 
REMARK    3  A    between atoms: C_12  and  C_15 
ROOT
HETATM    1 Cl   UNK N   1       7.474   2.040   0.038  0.00  0.00    -0.083 Cl
HETATM    2  S   UNK N   1       2.311  -1.589  -0.144  0.00  0.00     0.247 S 
HETATM    3  O   UNK N   1       2.282  -2.527  -1.360  0.00  0.00    -0.206 OA
HETATM    4  O   UNK N   1       2.058  -2.507   1.065  0.00  0.00    -0.206 OA
HETATM    5  N   UNK N   1       0.893  -0.542  -0.342  0.00  0.00    -0.187 NA
HETATM    6  N   UNK N   1       2.365   1.383  -0.123  0.00  0.00    -0.370 N 
HETATM    7  C   UNK N   1       1.157   0.724   0.360  0.00  0.00     0.185 C 
HETATM    8  C   UNK N   1       3.781  -0.614  -0.045  0.00  0.00     0.102 A 
HETATM    9  C   UNK N   1       3.651   0.775  -0.093  0.00  0.00     0.054 A 
HETATM   10  C   UNK N   1       5.037  -1.209   0.050  0.00  0.00     0.054 A 
HETATM   11  C   UNK N   1      -0.249  -1.205   0.279  0.00  0.00     0.132 C 
HETATM   12  C   UNK N   1       4.798   1.573  -0.091  0.00  0.00     0.056 A 
HETATM   13  C   UNK N   1       6.187  -0.416   0.090  0.00  0.00     0.102 A 
HETATM   14  C   UNK N   1       6.068   0.988   0.001  0.00  0.00     0.059 A 
HETATM   15  H   UNK N   1       2.287   2.294  -0.488  0.00  0.00     0.161 HD
ENDROOT
BRANCH  13  16
HETATM   16  S   UNK N   1       7.774  -1.228   0.314  0.00  0.00     0.258 S 
HETATM   17  O   UNK N   1       8.143  -1.349   1.800  0.00  0.00    -0.201 OA
HETATM   18  O   UNK N   1       7.744  -2.702  -0.118  0.00  0.00    -0.201 OA
BRANCH  16  19
HETATM   19  N   UNK N   1       9.212  -0.563  -0.461  0.00  0.00    -0.324 N 
HETATM   20  H   UNK N   1       9.961  -1.092  -0.909  0.00  0.00     0.169 HD
HETATM   21  H   UNK N   1       9.305   0.452  -0.461  0.00  0.00     0.169 HD
ENDBRANCH  16  19
ENDBRANCH  13  16
BRANCH   7  22
HETATM   22  C   UNK N   1      -0.020   1.683   0.206  0.00  0.00     0.156 C 
HETATM   23 Cl   UNK N   1       0.163   3.083   1.293  0.00  0.00    -0.127 Cl
ENDBRANCH   7  22
TORSDOF 3
