REMARK  1 active torsions:
REMARK  status: ('A' for Active; 'I' for Inactive)
REMARK    1  A    between atoms: N_2  and  C_8 
ROOT
HETATM    1  O   UNK N   1       5.154   3.353   0.000  0.00  0.00    -0.267 OA
HETATM    2  N   UNK N   1       4.096  -0.859  -0.000  0.00  0.00    -0.312 N 
HETATM    3  N   UNK N   1       3.385   2.076   0.000  0.00  0.00    -0.319 N 
HETATM    4  N   UNK N   1       1.765  -1.190  -0.000  0.00  0.00    -0.350 N 
ATOM      5  HN  UNK N   1       1.976  -2.188  -0.000  1.00  0.00     0.166 HD
HETATM    6  N   UNK N   1       6.433  -1.101  -0.000  0.00  0.00    -0.351 N 
ATOM      7  HN  UNK N   1       6.248  -2.105  -0.000  1.00  0.00     0.166 HD
HETATM    8  C   UNK N   1       2.822  -0.314  -0.000  0.00  0.00     0.137 A 
HETATM    9  C   UNK N   1       5.347  -0.258  -0.000  0.00  0.00     0.125 A 
HETATM   10  C   UNK N   1       2.501   1.071   0.000  0.00  0.00     0.086 A 
HETATM   11  C   UNK N   1       5.630   1.150   0.000  0.00  0.00     0.076 A 
HETATM   12  C   UNK N   1       1.142   1.457   0.000  0.00  0.00    -0.030 A 
HETATM   13  C   UNK N   1       4.721   2.210   0.000  0.00  0.00     0.260 A 
HETATM   14  C   UNK N   1       6.988   1.543   0.000  0.00  0.00     0.022 A 
HETATM   15  C   UNK N   1       0.129   0.513   0.000  0.00  0.00     0.026 A 
HETATM   16  C   UNK N   1       0.462  -0.823  -0.000  0.00  0.00     0.090 A 
HETATM   17  C   UNK N   1       7.726  -0.706  -0.000  0.00  0.00     0.090 A 
HETATM   18  C   UNK N   1       0.757   2.901   0.000  0.00  0.00     0.050 C 
HETATM   19  C   UNK N   1       8.028   0.635   0.000  0.00  0.00     0.018 A 
HETATM   20  H   UNK N   1       2.935   2.952   0.000  0.00  0.00     0.169 HD
ENDROOT
BRANCH   2  21
HETATM   21  C   UNK N   1       4.135  -2.343  -0.000  0.00  0.00     0.093 A 
HETATM   22  C   UNK N   1       3.301  -3.563   0.000  0.00  0.00     0.028 A 
HETATM   23  C   UNK N   1       4.892  -3.609   0.000  0.00  0.00     0.028 A 
ENDBRANCH   2  21
TORSDOF 1
