REMARK  4 active torsions:
REMARK  status: ('A' for Active; 'I' for Inactive)
REMARK    1  A    between atoms: O_1  and  C_8 
REMARK    2  A    between atoms: O_2  and  C_11 
REMARK    3  A    between atoms: N_4  and  C_6 
REMARK    4  A    between atoms: C_5  and  C_11 
ROOT
HETATM    1  C   UNK N   1       3.598   0.258  -0.000  0.00  0.00     0.072 A 
HETATM    2  C   UNK N   1       4.936  -1.773   0.000  0.00  0.00     0.026 A 
HETATM    3  C   UNK N   1       4.847  -0.380  -0.000  0.00  0.00     0.050 A 
HETATM    4  C   UNK N   1       2.424  -0.533   0.000  0.00  0.00     0.082 A 
HETATM    5  C   UNK N   1       3.775  -2.547   0.000  0.00  0.00     0.032 A 
HETATM    6  C   UNK N   1       2.524  -1.928   0.000  0.00  0.00     0.040 A 
ENDROOT
BRANCH   1   7
HETATM    7  C   UNK N   1       3.556   1.742  -0.000  0.00  0.00     0.179 C 
HETATM    8  O   UNK N   1       2.492   2.340  -0.000  0.00  0.00    -0.646 OA
BRANCH   7   9
HETATM    9  O   UNK N   1       4.706   2.446  -0.000  0.00  0.00    -0.773 OA
HETATM   10  H   UNK N   1       5.529   1.999  -0.000  0.00  0.00     0.167 HD
ENDBRANCH   7   9
ENDBRANCH   1   7
BRANCH   4  11
HETATM   11  O   UNK N   1       1.205   0.033  -0.000  0.00  0.00    -0.360 OA
HETATM   12  H   UNK N   1       1.121   0.966  -0.000  0.00  0.00     0.217 HD
ENDBRANCH   4  11
BRANCH   2  13
HETATM   13  N   UNK N   1       6.199  -2.397   0.000  0.00  0.00    -0.399 N 
HETATM   14  H   UNK N   1       6.262  -3.379   0.000  0.00  0.00     0.156 HD
HETATM   15  H   UNK N   1       7.018  -1.851   0.000  0.00  0.00     0.156 HD
ENDBRANCH   2  13
TORSDOF 4
