REMARK  8 active torsions:
REMARK  status: ('A' for Active; 'I' for Inactive)
REMARK    1  A    between atoms: N_3  and  C_17 
REMARK       I    between atoms: N_5  and  C_18 
REMARK    2  A    between atoms: N_5  and  C_25 
REMARK       I    between atoms: N_5  and  C_26 
REMARK       I    between atoms: N_6  and  C_26 
REMARK    3  A    between atoms: N_6  and  C_30 
REMARK    4  A    between atoms: N_7  and  C_29 
REMARK    5  A    between atoms: C_11  and  C_18 
REMARK    6  A    between atoms: C_17  and  C_24 
REMARK    7  A    between atoms: C_25  and  C_27 
REMARK    8  A    between atoms: C_27  and  C_29 
ROOT
HETATM    1  N   UNK N   1       5.839  -0.008   0.118  0.00  0.00     0.098 N 
HETATM    2  N   UNK N   1       7.401  -5.895  -0.125  0.00  0.00    -0.365 N 
HETATM    3  C   UNK N   1       4.632  -2.199  -0.322  0.00  0.00     0.054 C 
HETATM    4  C   UNK N   1       5.904  -1.497   0.258  0.00  0.00     0.236 C 
HETATM    5  C   UNK N   1       3.376  -1.530   0.171  0.00  0.00     0.027 C 
HETATM    6  C   UNK N   1       3.382  -0.067  -0.263  0.00  0.00     0.107 C 
HETATM    7  C   UNK N   1       7.202  -2.169  -0.330  0.00  0.00     0.077 C 
HETATM    8  C   UNK N   1       4.739   0.520  -0.714  0.00  0.00     0.287 C 
HETATM    9  C   UNK N   1       4.658  -3.681  -0.058  0.00  0.00    -0.039 A 
HETATM   10  C   UNK N   1       5.886  -4.285  -0.111  0.00  0.00     0.005 A 
HETATM   11  C   UNK N   1       7.081  -3.674  -0.258  0.00  0.00    -0.028 A 
HETATM   12  C   UNK N   1       6.086  -5.612  -0.018  0.00  0.00     0.043 A 
HETATM   13  C   UNK N   1       3.532  -4.511   0.120  0.00  0.00     0.008 A 
HETATM   14  C   UNK N   1       8.032  -4.690  -0.273  0.00  0.00     0.096 A 
HETATM   15  C   UNK N   1       5.010  -6.485   0.161  0.00  0.00     0.030 A 
HETATM   16  C   UNK N   1       3.714  -5.915   0.242  0.00  0.00     0.003 A 
HETATM   17  H   UNK N   1       7.820  -6.785  -0.100  0.00  0.00     0.165 HD
ENDROOT
BRANCH   6  18
HETATM   18  C   UNK N   1       2.010   0.595  -0.292  0.00  0.00     0.233 C 
HETATM   19  O   UNK N   1       1.051  -0.154  -0.143  0.00  0.00    -0.272 OA
HETATM   20  N   UNK N   1       1.804   1.960  -0.422  0.00  0.00    -0.270 N 
HETATM   21  C   UNK N   1       0.518   2.500  -0.368  0.00  0.00     0.325 C 
HETATM   22  O   UNK N   1      -0.448   1.756  -0.247  0.00  0.00    -0.247 OA
HETATM   23  N   UNK N   1       0.250   3.838  -0.420  0.00  0.00    -0.343 N 
HETATM   24  H   UNK N   1      -0.702   4.088  -0.418  0.00  0.00     0.164 HD
BRANCH  20  25
HETATM   25  C   UNK N   1       2.950   2.828  -0.623  0.00  0.00     0.138 C 
BRANCH  25  26
HETATM   26  C   UNK N   1       3.704   3.073   0.673  0.00  0.00     0.050 C 
BRANCH  26  27
HETATM   27  C   UNK N   1       5.003   3.800   0.355  0.00  0.00     0.273 C 
BRANCH  27  28
HETATM   28  N   UNK N   1       4.897   5.225   0.632  0.00  0.00     0.080 N 
HETATM   29  C   UNK N   1       6.254   5.735   0.698  0.00  0.00     0.309 C 
HETATM   30  C   UNK N   1       4.274   5.869  -0.512  0.00  0.00     0.309 C 
ENDBRANCH  27  28
ENDBRANCH  26  27
ENDBRANCH  25  26
ENDBRANCH  20  25
BRANCH  23  31
HETATM   31  C   UNK N   1       1.188   4.927  -0.479  0.00  0.00     0.120 C 
HETATM   32  C   UNK N   1       0.958   5.846   0.705  0.00  0.00     0.026 C 
ENDBRANCH  23  31
ENDBRANCH   6  18
BRANCH   1  33
HETATM   33  C   UNK N   1       7.101   0.615  -0.278  0.00  0.00     0.299 C 
BRANCH  33  34
HETATM   34  C   UNK N   1       7.421   1.754   0.631  0.00  0.00    -0.007 C 
HETATM   35  C   UNK N   1       8.505   2.492   0.414  0.00  0.00     0.008 C 
ENDBRANCH  33  34
ENDBRANCH   1  33
TORSDOF 8
