REMARK  4 active torsions:
REMARK  status: ('A' for Active; 'I' for Inactive)
REMARK    1  A    between atoms: S_1  and  C_6 
REMARK    2  A    between atoms: S_1  and  C_7 
REMARK    3  A    between atoms: N_4  and  C_16 
REMARK    4  A    between atoms: N_5  and  C_17 
ROOT
HETATM    1  S   UNK N   1       2.679   0.008  -0.374  0.00  0.00     0.206 S 
HETATM    2  O   UNK N   1       3.168   0.107   1.080  0.00  0.00    -0.217 OA
HETATM    3  O   UNK N   1       4.113  -0.030  -0.925  0.00  0.00    -0.217 OA
ENDROOT
BRANCH   1   4
HETATM    4  C   UNK N   1       2.315  -1.743  -0.128  0.00  0.00     0.064 A 
HETATM    5  C   UNK N   1       1.138  -2.319  -0.623  0.00  0.00     0.026 A 
HETATM    6  C   UNK N   1       0.914  -3.694  -0.472  0.00  0.00     0.030 A 
HETATM    7  C   UNK N   1       1.869  -4.502   0.164  0.00  0.00     0.025 A 
HETATM    8  C   UNK N   1       3.046  -3.929   0.649  0.00  0.00     0.030 A 
HETATM    9  C   UNK N   1       3.270  -2.564   0.499  0.00  0.00     0.026 A 
BRANCH   7  10
HETATM   10  N   UNK N   1       1.650  -5.882   0.311  0.00  0.00    -0.399 N 
HETATM   11  H   UNK N   1       0.736  -6.232   0.413  0.00  0.00     0.156 HD
HETATM   12  H   UNK N   1       2.415  -6.502   0.311  0.00  0.00     0.156 HD
ENDBRANCH   7  10
ENDBRANCH   1   4
BRANCH   1  13
HETATM   13  C   UNK N   1       2.315   1.772  -0.299  0.00  0.00     0.064 A 
HETATM   14  C   UNK N   1       3.378   2.683  -0.367  0.00  0.00     0.026 A 
HETATM   15  C   UNK N   1       3.146   4.056  -0.258  0.00  0.00     0.030 A 
HETATM   16  C   UNK N   1       1.847   4.523  -0.075  0.00  0.00     0.025 A 
HETATM   17  C   UNK N   1       0.776   3.624  -0.010  0.00  0.00     0.030 A 
HETATM   18  C   UNK N   1       1.010   2.243  -0.120  0.00  0.00     0.026 A 
BRANCH  16  19
HETATM   19  N   UNK N   1       1.616   5.911   0.049  0.00  0.00    -0.399 N 
HETATM   20  H   UNK N   1       2.373   6.534   0.136  0.00  0.00     0.156 HD
HETATM   21  H   UNK N   1       0.694   6.257   0.049  0.00  0.00     0.156 HD
ENDBRANCH  16  19
ENDBRANCH   1  13
TORSDOF 4
