REMARK  6 active torsions:
REMARK  status: ('A' for Active; 'I' for Inactive)
REMARK    1  A    between atoms: O_1  and  C_19 
REMARK    2  A    between atoms: O_2  and  C_20 
REMARK    3  A    between atoms: C_3  and  C_5 
REMARK    4  A    between atoms: C_3  and  C_7 
REMARK    5  A    between atoms: C_4  and  C_6 
REMARK    6  A    between atoms: C_4  and  C_8 
ROOT
HETATM    1  C   UNK N   1       3.962   0.457   0.001  0.00  0.00    -0.041 C 
HETATM    2  C   UNK N   1       2.878  -0.468  -0.003  0.00  0.00    -0.041 C 
ENDROOT
BRANCH   1   3
HETATM    3  C   UNK N   1       5.468   0.108   0.007  0.00  0.00     0.035 C 
HETATM    4  C   UNK N   1       6.343  -1.128  -0.007  0.00  0.00     0.010 C 
ENDBRANCH   1   3
BRANCH   1   5
HETATM    5  C   UNK N   1       3.830   1.980   0.000  0.00  0.00    -0.029 A 
HETATM    6  C   UNK N   1       2.622   2.666   0.008  0.00  0.00     0.014 A 
HETATM    7  C   UNK N   1       2.552   4.061   0.008  0.00  0.00     0.037 A 
HETATM    8  C   UNK N   1       3.721   4.813  -0.001  0.00  0.00     0.065 A 
HETATM    9  C   UNK N   1       4.954   4.169  -0.009  0.00  0.00     0.037 A 
HETATM   10  C   UNK N   1       5.006   2.774  -0.008  0.00  0.00     0.014 A 
BRANCH   8  11
HETATM   11  O   UNK N   1       3.659   6.154  -0.002  0.00  0.00    -0.361 OA
HETATM   12  H   UNK N   1       4.448   6.659  -0.002  0.00  0.00     0.217 HD
ENDBRANCH   8  11
ENDBRANCH   1   5
BRANCH   2  13
HETATM   13  C   UNK N   1       1.371  -0.120  -0.010  0.00  0.00     0.035 C 
HETATM   14  C   UNK N   1       0.498   1.117   0.005  0.00  0.00     0.010 C 
ENDBRANCH   2  13
BRANCH   2  15
HETATM   15  C   UNK N   1       3.010  -1.992  -0.001  0.00  0.00    -0.029 A 
HETATM   16  C   UNK N   1       4.219  -2.677   0.009  0.00  0.00     0.014 A 
HETATM   17  C   UNK N   1       4.290  -4.071   0.010  0.00  0.00     0.037 A 
HETATM   18  C   UNK N   1       3.121  -4.824   0.002  0.00  0.00     0.065 A 
HETATM   19  C   UNK N   1       1.887  -4.181  -0.007  0.00  0.00     0.037 A 
HETATM   20  C   UNK N   1       1.835  -2.785  -0.008  0.00  0.00     0.014 A 
BRANCH  18  21
HETATM   21  O   UNK N   1       3.185  -6.165   0.004  0.00  0.00    -0.361 OA
HETATM   22  H   UNK N   1       2.396  -6.671   0.005  0.00  0.00     0.217 HD
ENDBRANCH  18  21
ENDBRANCH   2  15
TORSDOF 6
