REMARK  4 active torsions:
REMARK  status: ('A' for Active; 'I' for Inactive)
REMARK    1  A    between atoms: N_2  and  C_5 
REMARK    2  A    between atoms: C_5  and  C_6 
REMARK    3  A    between atoms: C_5  and  C_7 
REMARK    4  A    between atoms: C_5  and  C_8 
ROOT
HETATM    1  C   UNK N   1       4.241   0.318   0.113  0.00  0.00     0.121 C 
ENDROOT
BRANCH   1   2
HETATM    2  N   UNK N   1       4.236   1.804  -0.119  0.00  0.00    -0.329 N 
HETATM    3  C   UNK N   1       3.938   2.762   0.797  0.00  0.00     0.110 A 
HETATM    4  C   UNK N   1       4.082   3.990   0.190  0.00  0.00     0.106 A 
HETATM    5  N   UNK N   1       4.476   3.796  -1.086  0.00  0.00    -0.361 N 
HETATM    6  C   UNK N   1       4.565   2.461  -1.255  0.00  0.00     0.184 A 
ATOM      7  HN  UNK N   1       4.668   4.515  -1.783  1.00  0.00     0.166 HD
ENDBRANCH   1   2
BRANCH   1   8
HETATM    8  C   UNK N   1       4.172  -1.274   0.267  0.00  0.00     0.002 A 
HETATM    9  C   UNK N   1       3.503  -2.180  -0.642  0.00  0.00     0.043 A 
HETATM   10 Cl   UNK N   1       2.597  -1.693  -2.065  0.00  0.00    -0.084 Cl
HETATM   11  C   UNK N   1       3.554  -3.562  -0.423  0.00  0.00     0.024 A 
HETATM   12  C   UNK N   1       4.255  -4.097   0.650  0.00  0.00     0.002 A 
HETATM   13  C   UNK N   1       4.898  -3.252   1.545  0.00  0.00     0.001 A 
HETATM   14  C   UNK N   1       4.845  -1.867   1.369  0.00  0.00     0.012 A 
ENDBRANCH   1   8
BRANCH   1  15
HETATM   15  C   UNK N   1       2.680   0.385   0.264  0.00  0.00    -0.020 A 
HETATM   16  C   UNK N   1       1.895   0.854  -0.826  0.00  0.00     0.010 A 
HETATM   17  C   UNK N   1       0.514   0.983  -0.727  0.00  0.00     0.001 A 
HETATM   18  C   UNK N   1      -0.124   0.652   0.464  0.00  0.00     0.000 A 
HETATM   19  C   UNK N   1       0.621   0.201   1.559  0.00  0.00     0.001 A 
HETATM   20  C   UNK N   1       2.015   0.077   1.470  0.00  0.00     0.010 A 
ENDBRANCH   1  15
BRANCH   1  21
HETATM   21  C   UNK N   1       5.826   0.314   0.039  0.00  0.00    -0.020 A 
HETATM   22  C   UNK N   1       6.599   1.180   0.861  0.00  0.00     0.010 A 
HETATM   23  C   UNK N   1       7.985   1.284   0.704  0.00  0.00     0.001 A 
HETATM   24  C   UNK N   1       8.643   0.490  -0.234  0.00  0.00     0.000 A 
HETATM   25  C   UNK N   1       7.916  -0.403  -1.022  0.00  0.00     0.001 A 
HETATM   26  C   UNK N   1       6.523  -0.469  -0.914  0.00  0.00     0.010 A 
ENDBRANCH   1  21
TORSDOF 4
