REMARK  3 active torsions:
REMARK  status: ('A' for Active; 'I' for Inactive)
REMARK    1  A    between atoms: S_1  and  N_4 
REMARK    2  A    between atoms: S_1  and  C_6 
REMARK    3  A    between atoms: N_5  and  C_9 
ROOT
HETATM    1  C   UNK N   1       2.398   0.354   0.119  0.00  0.00     0.079 A 
HETATM    2  C   UNK N   1       1.240  -0.400  -0.097  0.00  0.00     0.027 A 
HETATM    3  C   UNK N   1       3.602  -0.285   0.429  0.00  0.00     0.027 A 
HETATM    4  C   UNK N   1       2.494  -2.433   0.296  0.00  0.00     0.025 A 
HETATM    5  C   UNK N   1       1.288  -1.796  -0.007  0.00  0.00     0.030 A 
HETATM    6  C   UNK N   1       3.650  -1.681   0.519  0.00  0.00     0.030 A 
ENDROOT
BRANCH   1   7
HETATM    7  S   UNK N   1       2.353   2.132  -0.069  0.00  0.00     0.256 S 
HETATM    8  O   UNK N   1       0.980   2.744   0.246  0.00  0.00    -0.201 OA
HETATM    9  O   UNK N   1       2.576   2.563  -1.525  0.00  0.00    -0.201 OA
BRANCH   7  10
HETATM   10  N   UNK N   1       3.504   3.086   0.868  0.00  0.00    -0.324 N 
HETATM   11  H   UNK N   1       4.315   2.786   1.409  0.00  0.00     0.169 HD
HETATM   12  H   UNK N   1       3.333   4.092   0.868  0.00  0.00     0.169 HD
ENDBRANCH   7  10
ENDBRANCH   1   7
BRANCH   4  13
HETATM   13  N   UNK N   1       2.547  -3.841   0.366  0.00  0.00    -0.399 N 
HETATM   14  H   UNK N   1       1.714  -4.364   0.415  0.00  0.00     0.156 HD
HETATM   15  H   UNK N   1       3.417  -4.301   0.366  0.00  0.00     0.156 HD
ENDBRANCH   4  13
TORSDOF 3
