REMARK  6 active torsions:
REMARK  status: ('A' for Active; 'I' for Inactive)
REMARK    1  A    between atoms: O_4  and  N_8 
REMARK    2  A    between atoms: N_6  and  N_8 
REMARK    3  A    between atoms: N_6  and  C_10 
REMARK       I    between atoms: N_6  and  C_12 
REMARK    4  A    between atoms: N_7  and  C_11 
REMARK       I    between atoms: N_7  and  C_12 
REMARK    5  A    between atoms: C_10  and  C_13 
REMARK    6  A    between atoms: C_11  and  C_14 
ROOT
HETATM    1  O   UNK N   1       4.192  -2.407  -0.000  0.00  0.00    -0.245 OA
HETATM    2  N   UNK N   1       5.072  -0.346   0.000  0.00  0.00    -0.222 N 
HETATM    3  N   UNK N   1       2.701  -0.777  -0.000  0.00  0.00    -0.341 N 
HETATM    4  C   UNK N   1       3.995  -1.200  -0.000  0.00  0.00     0.338 C 
HETATM    5  H   UNK N   1       2.013  -1.482  -0.000  0.00  0.00     0.164 HD
ENDROOT
BRANCH   2   6
HETATM    6  N   UNK N   1       4.882   1.027   0.000  0.00  0.00    -0.204 N 
ATOM      7  HN  UNK N   1       3.929   1.390   0.000  1.00  0.00     0.216 HD
BRANCH   6   8
HETATM    8  O   UNK N   1       5.792   1.799   0.000  0.00  0.00    -0.274 OA
ATOM      9  HO  UNK N   1       5.662   2.740   0.000  1.00  0.00     0.246 HD
ENDBRANCH   6   8
ENDBRANCH   2   6
BRANCH   2  10
HETATM   10  C   UNK N   1       6.401  -0.969  -0.000  0.00  0.00     0.171 C 
BRANCH  10  11
HETATM   11  C   UNK N   1       7.624  -0.075   0.000  0.00  0.00     0.136 C 
HETATM   12 Cl   UNK N   1       9.054  -1.133   0.000  0.00  0.00    -0.129 Cl
ENDBRANCH  10  11
ENDBRANCH   2  10
BRANCH   3  13
HETATM   13  C   UNK N   1       2.219   0.581   0.000  0.00  0.00     0.139 C 
BRANCH  13  14
HETATM   14  C   UNK N   1       0.687   0.631  -0.000  0.00  0.00     0.134 C 
HETATM   15 Cl   UNK N   1      -0.126  -0.970   0.000  0.00  0.00    -0.129 Cl
ENDBRANCH  13  14
ENDBRANCH   3  13
TORSDOF 6
