REMARK  6 active torsions:
REMARK  status: ('A' for Active; 'I' for Inactive)
REMARK    1  A    between atoms: O_1  and  C_18 
REMARK    2  A    between atoms: O_1  and  C_26 
REMARK    3  A    between atoms: O_2  and  C_21 
REMARK    4  A    between atoms: C_11  and  C_14 
REMARK    5  A    between atoms: C_12  and  C_18 
REMARK    6  A    between atoms: C_13  and  C_21 
ROOT
HETATM    1  N   UNK N   1       5.112   3.325   0.047  0.00  0.00    -0.362 N 
HETATM    2  C   UNK N   1       5.093   0.457  -0.301  0.00  0.00     0.103 C 
HETATM    3  C   UNK N   1       3.795   1.307  -0.008  0.00  0.00     0.052 C 
HETATM    4  C   UNK N   1       6.404   1.304  -0.139  0.00  0.00     0.052 C 
HETATM    5  C   UNK N   1       3.880   2.661   0.125  0.00  0.00     0.018 C 
HETATM    6  C   UNK N   1       6.341   2.655  -0.010  0.00  0.00     0.018 C 
HETATM    7  C   UNK N   1       2.670   3.529   0.314  0.00  0.00     0.069 C 
HETATM    8  C   UNK N   1       7.576   3.510   0.028  0.00  0.00     0.069 C 
HETATM    9  H   UNK N   1       5.113   4.310   0.032  0.00  0.00     0.165 HD
ENDROOT
BRANCH   2  10
HETATM   10  C   UNK N   1       5.051  -1.062   0.126  0.00  0.00    -0.014 A 
HETATM   11  C   UNK N   1       6.053  -2.043  -0.131  0.00  0.00     0.092 A 
HETATM   12  N   UNK N   1       7.253  -1.937  -0.709  0.00  0.00    -0.239 N 
HETATM   13  C   UNK N   1       5.899  -3.356   0.216  0.00  0.00     0.086 A 
HETATM   14  O   UNK N   1       7.786  -3.133  -0.683  0.00  0.00    -0.156 OA
ATOM     15  HN  UNK N   1       7.672  -1.091  -1.096  1.00  0.00     0.197 HD
HETATM   16  N   UNK N   1       7.005  -4.025  -0.138  0.00  0.00    -0.240 N 
ATOM     17  HN  UNK N   1       7.195  -5.019  -0.010  1.00  0.00     0.197 HD
HETATM   18  C   UNK N   1       4.762  -3.856   0.819  0.00  0.00     0.034 A 
HETATM   19  C   UNK N   1       3.743  -2.941   1.099  0.00  0.00     0.003 A 
HETATM   20  C   UNK N   1       3.896  -1.574   0.770  0.00  0.00     0.011 A 
ENDBRANCH   2  10
BRANCH   3  21
HETATM   21  C   UNK N   1       2.423   0.709   0.118  0.00  0.00     0.292 C 
HETATM   22  O   UNK N   1       1.670   1.125   0.992  0.00  0.00    -0.259 OA
BRANCH  21  23
HETATM   23  O   UNK N   1       1.979  -0.230  -0.761  0.00  0.00    -0.313 OA
BRANCH  23  24
HETATM   24  C   UNK N   1       0.680  -0.726  -0.764  0.00  0.00     0.124 C 
HETATM   25  C   UNK N   1      -0.361   0.388  -0.863  0.00  0.00     0.040 C 
HETATM   26  C   UNK N   1       0.409  -1.589   0.455  0.00  0.00     0.040 C 
ENDBRANCH  23  24
ENDBRANCH  21  23
ENDBRANCH   3  21
BRANCH   4  27
HETATM   27  C   UNK N   1       7.768   0.735  -0.209  0.00  0.00     0.291 C 
HETATM   28  O   UNK N   1       8.189   0.300  -1.271  0.00  0.00    -0.260 OA
BRANCH  27  29
HETATM   29  O   UNK N   1       8.610   0.930   0.838  0.00  0.00    -0.323 OA
HETATM   30  C   UNK N   1       9.923   0.524   0.828  0.00  0.00     0.213 C 
ENDBRANCH  27  29
ENDBRANCH   4  27
TORSDOF 6
