REMARK  0 active torsions:
REMARK  status: ('A' for Active; 'I' for Inactive)
REMARK       I    between atoms: N_8  and  C_12 
ROOT
HETATM    1  S   UNK N   1       3.232   2.579   0.000  0.00  0.00    -0.057 SA
HETATM    2  N   UNK N   1       3.242  -1.628  -0.000  0.00  0.00    -0.174 N 
HETATM    3  N   UNK N   1       5.715   0.827   0.000  0.00  0.00    -0.347 N 
HETATM    4  N   UNK N   1       5.640  -1.431  -0.000  0.00  0.00    -0.336 N 
ATOM      5  HN  UNK N   1       5.922  -2.411  -0.000  1.00  0.00     0.168 HD
HETATM    6  N   UNK N   1       2.073   0.444  -0.000  0.00  0.00    -0.179 N 
ATOM      7  HN  UNK N   1       1.187   0.950  -0.000  1.00  0.00     0.185 HD
HETATM    8  N   UNK N   1       0.842  -1.625  -0.000  0.00  0.00    -0.234 N 
HETATM    9  C   UNK N   1       4.437   0.416   0.000  0.00  0.00     0.117 A 
HETATM   10  C   UNK N   1       4.398  -0.930  -0.000  0.00  0.00     0.152 A 
HETATM   11  C   UNK N   1       3.246   1.144   0.000  0.00  0.00     0.147 A 
HETATM   12  C   UNK N   1       2.065  -0.930  -0.000  0.00  0.00     0.678 A 
HETATM   13  C   UNK N   1       6.437  -0.329   0.000  0.00  0.00     0.182 A 
HETATM   14  H   UNK N   1       3.246  -2.613  -0.000  0.00  0.00     0.186 HD
HETATM   15  H   UNK N   1       6.053   1.751   0.000  0.00  0.00     0.167 HD
HETATM   16  H   UNK N   1      -0.007  -1.127   0.000  0.00  0.00     0.174 HD
HETATM   17  H   UNK N   1       0.835  -2.610  -0.000  0.00  0.00     0.174 HD
ENDROOT
TORSDOF 0
