REMARK  3 active torsions:
REMARK  status: ('A' for Active; 'I' for Inactive)
REMARK    1  A    between atoms: N_2  and  C_7 
REMARK    2  A    between atoms: C_5  and  C_6 
REMARK    3  A    between atoms: C_5  and  C_7 
ROOT
HETATM    1  N   UNK N   1       1.651  -0.731  -0.000  0.00  0.00    -0.305 N 
HETATM    2  N   UNK N   1       0.650   0.133  -0.000  0.00  0.00    -0.312 N 
ATOM      3  HN  UNK N   1      -0.341  -0.109  -0.000  1.00  0.00     0.186 HD
HETATM    4  C   UNK N   1       2.801  -0.043  -0.000  0.00  0.00     0.028 A 
HETATM    5  C   UNK N   1       2.532   1.312  -0.000  0.00  0.00     0.045 A 
HETATM    6  C   UNK N   1       1.150   1.384  -0.000  0.00  0.00     0.109 A 
HETATM    7  H   UNK N   1       1.566  -1.712  -0.000  0.00  0.00     0.186 HD
ENDROOT
BRANCH   4   8
HETATM    8  C   UNK N   1       4.144  -0.706  -0.000  0.00  0.00     0.077 C 
BRANCH   8   9
HETATM    9  C   UNK N   1       5.297   0.281   0.000  0.00  0.00     0.117 C 
BRANCH   9  10
HETATM   10  N   UNK N   1       6.549  -0.453  -0.000  0.00  0.00    -0.430 N 
HETATM   11  H   UNK N   1       6.542  -1.473  -0.000  0.00  0.00     0.149 HD
HETATM   12  H   UNK N   1       7.436   0.052  -0.000  0.00  0.00     0.149 HD
ENDBRANCH   9  10
ENDBRANCH   8   9
ENDBRANCH   4   8
TORSDOF 3
