REMARK  4 active torsions:
REMARK  status: ('A' for Active; 'I' for Inactive)
REMARK    1  A    between atoms: S_1  and  O_7 
REMARK    2  A    between atoms: S_1  and  N_10 
REMARK    3  A    between atoms: O_7  and  C_18 
REMARK    4  A    between atoms: C_13  and  C_18 
ROOT
HETATM    1  O   UNK N   1       4.145  -1.648  -0.422  0.00  0.00    -0.342 OA
HETATM    2  O   UNK N   1       5.422   1.554   0.489  0.00  0.00    -0.348 OA
HETATM    3  O   UNK N   1       5.782  -0.673   0.933  0.00  0.00    -0.315 OA
HETATM    4  O   UNK N   1       1.720  -0.002  -0.158  0.00  0.00    -0.345 OA
HETATM    5  O   UNK N   1       2.138   2.205  -0.774  0.00  0.00    -0.346 OA
HETATM    6  C   UNK N   1       4.101  -0.261  -0.573  0.00  0.00     0.221 C 
HETATM    7  C   UNK N   1       2.989   0.357   0.300  0.00  0.00     0.191 C 
HETATM    8  C   UNK N   1       5.458   0.237  -0.076  0.00  0.00     0.219 C 
HETATM    9  C   UNK N   1       3.045   1.866   0.222  0.00  0.00     0.180 C 
HETATM   10  C   UNK N   1       4.452   2.348  -0.154  0.00  0.00     0.206 C 
HETATM   11  C   UNK N   1       5.095  -1.870   0.601  0.00  0.00     0.161 C 
HETATM   12  C   UNK N   1       1.180   1.169  -0.740  0.00  0.00     0.158 C 
HETATM   13  C   UNK N   1       6.099  -2.910   0.137  0.00  0.00     0.078 C 
HETATM   14  C   UNK N   1       4.384  -2.397   1.836  0.00  0.00     0.078 C 
HETATM   15  C   UNK N   1      -0.031   1.618   0.062  0.00  0.00     0.078 C 
HETATM   16  C   UNK N   1       0.746   0.863  -2.159  0.00  0.00     0.078 C 
ENDROOT
BRANCH   8  17
HETATM   17  C   UNK N   1       6.521   0.134  -1.188  0.00  0.00     0.263 C 
BRANCH  17  18
HETATM   18  O   UNK N   1       7.423   1.213  -1.183  0.00  0.00    -0.254 OA
BRANCH  18  19
HETATM   19  S   UNK N   1       8.716   0.793  -0.123  0.00  0.00     0.355 S 
HETATM   20  O   UNK N   1       9.263   0.706  -1.557  0.00  0.00    -0.176 OA
HETATM   21  O   UNK N   1       8.345   2.266   0.115  0.00  0.00    -0.176 OA
BRANCH  19  22
HETATM   22  N   UNK N   1      10.212   1.728  -0.167  0.00  0.00    -0.306 N 
HETATM   23  H   UNK N   1      11.112   1.250  -0.192  0.00  0.00     0.171 HD
HETATM   24  H   UNK N   1      10.176   2.747  -0.167  0.00  0.00     0.171 HD
ENDBRANCH  19  22
ENDBRANCH  18  19
ENDBRANCH  17  18
ENDBRANCH   8  17
TORSDOF 4
