REMARK  10 active torsions:
REMARK  status: ('A' for Active; 'I' for Inactive)
REMARK    1  A    between atoms: S_2  and  C_24 
REMARK    2  A    between atoms: S_2  and  C_29 
REMARK    3  A    between atoms: S_3  and  C_28 
REMARK    4  A    between atoms: S_3  and  C_30 
REMARK    5  A    between atoms: O_4  and  C_19 
REMARK    6  A    between atoms: O_6  and  C_25 
REMARK    7  A    between atoms: C_19  and  N_10 
REMARK       I    between atoms: N_10  and  C_26 
REMARK    8  A    between atoms: C_21  and  C_25 
REMARK    9  A    between atoms: C_22  and  C_24 
REMARK   10  A    between atoms: C_26  and  C_28 
ROOT
HETATM    1  N   UNK N   1      12.433  -4.449   0.212  0.00  0.00    -0.197 NA
HETATM    2  C   UNK N   1      13.711  -2.178  -0.053  0.00  0.00     0.197 C 
HETATM    3  C   UNK N   1      12.997  -3.442   0.109  0.00  0.00     0.069 C 
ENDROOT
BRANCH   2   4
HETATM    4  S   UNK N   1      12.784  -1.143  -1.222  0.00  0.00    -0.146 SA
BRANCH   4   5
HETATM    5  C   UNK N   1      11.605  -0.730   0.075  0.00  0.00     0.177 C 
BRANCH   5   6
HETATM    6  C   UNK N   1      10.236  -1.284  -0.142  0.00  0.00     0.229 C 
HETATM    7  O   UNK N   1      10.031  -2.488  -0.163  0.00  0.00    -0.273 OA
HETATM    8  N   UNK N   1       9.231  -0.397  -0.113  0.00  0.00    -0.318 N 
HETATM    9  H   UNK N   1       9.477   0.531  -0.330  0.00  0.00     0.166 HD
BRANCH   8  10
HETATM   10  C   UNK N   1       7.840  -0.614   0.194  0.00  0.00     0.250 A 
HETATM   11  C   UNK N   1       6.620  -0.200  -0.821  0.00  0.00     0.221 A 
HETATM   12  S   UNK N   1       4.964  -1.012  -0.621  0.00  0.00    -0.133 SA
HETATM   13  N   UNK N   1       6.641   1.090  -0.205  0.00  0.00    -0.288 N 
HETATM   14  C   UNK N   1       4.321   0.009   0.752  0.00  0.00     0.113 C 
HETATM   15  C   UNK N   1       4.431   1.483   0.481  0.00  0.00    -0.027 C 
HETATM   16  C   UNK N   1       5.608   1.997   0.090  0.00  0.00     0.116 C 
HETATM   17  C   UNK N   1       7.533   0.754   0.662  0.00  0.00     0.285 A 
HETATM   18  O   UNK N   1       7.907   1.397   1.632  0.00  0.00    -0.267 OA
BRANCH  10  19
HETATM   19  O   UNK N   1       7.568  -1.522   1.234  0.00  0.00    -0.355 OA
HETATM   20  C   UNK N   1       7.324  -2.769   0.644  0.00  0.00     0.205 C 
ENDBRANCH  10  19
BRANCH  15  21
HETATM   21  C   UNK N   1       3.244   2.336   0.669  0.00  0.00     0.120 C 
BRANCH  21  22
HETATM   22  S   UNK N   1       2.651   2.699  -1.006  0.00  0.00    -0.087 SA
BRANCH  22  23
HETATM   23  C   UNK N   1       1.016   2.390  -0.423  0.00  0.00     0.175 A 
HETATM   24  N   UNK N   1       0.481   1.189  -0.165  0.00  0.00    -0.262 N 
HETATM   25  N   UNK N   1      -0.727   1.415   0.313  0.00  0.00    -0.223 N 
HETATM   26  C   UNK N   1       1.079  -0.125  -0.327  0.00  0.00     0.181 C 
HETATM   27  N   UNK N   1      -0.932   2.726   0.347  0.00  0.00    -0.005 NA
ATOM     28  HN  UNK N   1      -1.393   0.701   0.607  1.00  0.00     0.206 HD
HETATM   29  N   UNK N   1       0.144   3.356  -0.104  0.00  0.00    -0.261 N 
ATOM     30  HN  UNK N   1       0.280   4.363  -0.190  1.00  0.00     0.186 HD
ENDBRANCH  22  23
ENDBRANCH  21  22
ENDBRANCH  15  21
BRANCH  16  31
HETATM   31  C   UNK N   1       5.890   3.460  -0.041  0.00  0.00     0.194 C 
HETATM   32  O   UNK N   1       6.988   3.825  -0.428  0.00  0.00    -0.645 OA
BRANCH  31  33
HETATM   33  O   UNK N   1       4.981   4.390   0.310  0.00  0.00    -0.772 OA
HETATM   34  H   UNK N   1       5.225   5.261   0.554  0.00  0.00     0.167 HD
ENDBRANCH  31  33
ENDBRANCH  16  31
ENDBRANCH   8  10
ENDBRANCH   5   6
ENDBRANCH   4   5
ENDBRANCH   2   4
TORSDOF 10
