REMARK  5 active torsions:
REMARK  status: ('A' for Active; 'I' for Inactive)
REMARK    1  A    between atoms: N_2  and  C_4 
REMARK    2  A    between atoms: N_2  and  C_5 
REMARK    3  A    between atoms: N_2  and  C_6 
REMARK    4  A    between atoms: N_3  and  C_7 
REMARK       I    between atoms: N_3  and  C_8 
REMARK    5  A    between atoms: C_4  and  C_8 
ROOT
HETATM    1  O   UNK N   1       4.591   0.152  -1.428  0.00  0.00    -0.271 OA
HETATM    2  N   UNK N   1       2.996   0.051   0.148  0.00  0.00    -0.325 N 
HETATM    3  C   UNK N   1       3.912   0.731  -0.594  0.00  0.00     0.250 C 
HETATM    4  H   UNK N   1       2.417   0.573   0.748  0.00  0.00     0.169 HD
ENDROOT
BRANCH   2   5
HETATM    5  C   UNK N   1       2.816  -1.369   0.117  0.00  0.00     0.046 A 
HETATM    6  C   UNK N   1       3.905  -2.282   0.166  0.00  0.00    -0.035 A 
HETATM    7  C   UNK N   1       3.662  -3.658   0.116  0.00  0.00     0.009 A 
HETATM    8  C   UNK N   1       5.319  -1.837   0.325  0.00  0.00     0.050 C 
HETATM    9  C   UNK N   1       2.360  -4.146   0.019  0.00  0.00     0.001 A 
HETATM   10  C   UNK N   1       1.285  -3.260  -0.005  0.00  0.00     0.009 A 
HETATM   11  C   UNK N   1       1.504  -1.881   0.050  0.00  0.00    -0.035 A 
HETATM   12  C   UNK N   1       0.327  -0.967   0.013  0.00  0.00     0.050 C 
ENDBRANCH   2   5
BRANCH   3  13
HETATM   13  C   UNK N   1       3.980   2.235  -0.506  0.00  0.00     0.374 C 
BRANCH  13  14
HETATM   14  N   UNK N   1       5.236   2.770   0.045  0.00  0.00     0.096 N 
BRANCH  14  15
HETATM   15  C   UNK N   1       6.403   2.174  -0.594  0.00  0.00     0.268 C 
HETATM   16  C   UNK N   1       7.062   1.195   0.360  0.00  0.00     0.037 C 
ENDBRANCH  14  15
BRANCH  14  17
HETATM   17  C   UNK N   1       5.282   4.180  -0.321  0.00  0.00     0.268 C 
HETATM   18  C   UNK N   1       4.535   5.027   0.691  0.00  0.00     0.037 C 
ENDBRANCH  14  17
ENDBRANCH  13  14
ENDBRANCH   3  13
TORSDOF 5
