REMARK  5 active torsions:
REMARK  status: ('A' for Active; 'I' for Inactive)
REMARK    1  A    between atoms: C_17  and  O_4 
REMARK    2  A    between atoms: O_6  and  C_31 
REMARK    3  A    between atoms: O_6  and  C_35 
REMARK    4  A    between atoms: C_11  and  C_22 
REMARK    5  A    between atoms: C_22  and  C_31 
ROOT
HETATM    1  F   UNK N   1       8.423   0.752   1.820  0.00  0.00    -0.238 F 
HETATM    2  O   UNK N   1       3.526  -1.755   1.440  0.00  0.00    -0.333 OA
HETATM    3  O   UNK N   1       3.976  -3.301  -0.198  0.00  0.00    -0.346 OA
HETATM    4  O   UNK N   1      12.514   4.200   0.088  0.00  0.00    -0.289 OA
HETATM    5  C   UNK N   1       5.321  -0.137  -0.263  0.00  0.00     0.004 C 
HETATM    6  C   UNK N   1       6.623  -0.906   0.004  0.00  0.00     0.007 C 
HETATM    7  C   UNK N   1       4.145  -1.027   0.393  0.00  0.00     0.160 C 
HETATM    8  C   UNK N   1       7.868  -0.099  -0.385  0.00  0.00     0.035 C 
HETATM    9  C   UNK N   1       4.939  -2.378   0.155  0.00  0.00     0.168 C 
HETATM   10  C   UNK N   1       7.962   1.161   0.575  0.00  0.00     0.147 C 
HETATM   11  C   UNK N   1       6.234  -2.229  -0.639  0.00  0.00     0.041 C 
HETATM   12  C   UNK N   1       5.478   1.394  -0.053  0.00  0.00     0.048 C 
HETATM   13  C   UNK N   1       6.559   1.753   0.905  0.00  0.00     0.160 C 
HETATM   14  C   UNK N   1       9.014   2.139  -0.019  0.00  0.00     0.036 C 
HETATM   15  C   UNK N   1       9.172  -0.884  -0.236  0.00  0.00     0.013 C 
HETATM   16  C   UNK N   1       4.999  -0.101  -1.781  0.00  0.00     0.019 C 
HETATM   17  C   UNK N   1       3.037  -2.933   0.790  0.00  0.00     0.166 C 
HETATM   18  C   UNK N   1      10.399  -0.042  -0.628  0.00  0.00     0.036 C 
HETATM   19  C   UNK N   1      10.353   1.402  -0.171  0.00  0.00    -0.061 C 
HETATM   20  C   UNK N   1       2.858  -4.062   1.779  0.00  0.00     0.068 C 
HETATM   21  C   UNK N   1       1.649  -2.742   0.206  0.00  0.00     0.068 C 
HETATM   22  C   UNK N   1       8.581   2.612  -1.405  0.00  0.00     0.028 C 
HETATM   23  C   UNK N   1       9.166   3.403   0.815  0.00  0.00    -0.006 C 
HETATM   24  C   UNK N   1       1.862  -4.994   1.114  0.00  0.00     0.006 C 
HETATM   25  C   UNK N   1       1.033  -4.130   0.172  0.00  0.00     0.006 C 
HETATM   26  C   UNK N   1      11.505   2.096  -0.155  0.00  0.00     0.058 C 
HETATM   27  C   UNK N   1      10.309   4.094   0.847  0.00  0.00     0.052 C 
HETATM   28  C   UNK N   1      11.508   3.524   0.222  0.00  0.00     0.172 C 
ENDROOT
BRANCH   7  29
HETATM   29  C   UNK N   1       3.255   0.169   0.769  0.00  0.00     0.188 C 
HETATM   30  O   UNK N   1       3.369   0.675   1.884  0.00  0.00    -0.292 OA
BRANCH  29  31
HETATM   31  C   UNK N   1       2.367   0.841  -0.212  0.00  0.00     0.260 C 
BRANCH  31  32
HETATM   32  O   UNK N   1       1.259   0.071  -0.439  0.00  0.00    -0.314 OA
BRANCH  32  33
HETATM   33  C   UNK N   1       0.056   0.614  -0.730  0.00  0.00     0.255 C 
HETATM   34  O   UNK N   1      -0.889  -0.122  -0.956  0.00  0.00    -0.266 OA
HETATM   35  C   UNK N   1      -0.140   2.098  -0.796  0.00  0.00     0.126 C 
ENDBRANCH  32  33
ENDBRANCH  31  32
ENDBRANCH  29  31
ENDBRANCH   7  29
BRANCH  13  36
HETATM   36  O   UNK N   1       6.531   3.116   1.195  0.00  0.00    -0.392 OA
HETATM   37  H   UNK N   1       7.342   3.608   1.397  0.00  0.00     0.210 HD
ENDBRANCH  13  36
TORSDOF 5
