REMARK  10 active torsions:
REMARK  status: ('A' for Active; 'I' for Inactive)
REMARK    1  A    between atoms: O_3  and  C_19 
REMARK    2  A    between atoms: N_5  and  C_6 
REMARK    3  A    between atoms: N_5  and  C_10 
REMARK    4  A    between atoms: N_5  and  C_11 
REMARK    5  A    between atoms: C_7  and  C_8 
REMARK    6  A    between atoms: C_7  and  C_9 
REMARK    7  A    between atoms: C_9  and  C_16 
REMARK    8  A    between atoms: C_10  and  C_17 
REMARK    9  A    between atoms: C_11  and  C_18 
REMARK   10  A    between atoms: C_16  and  C_19 
ROOT
HETATM    1  C   UNK N   1       4.172   1.835   0.003  0.00  0.00     0.030 A 
HETATM    2  C   UNK N   1       4.224  -0.989  -0.002  0.00  0.00    -0.058 A 
HETATM    3  C   UNK N   1       2.983   1.094  -0.006  0.00  0.00     0.030 A 
HETATM    4  C   UNK N   1       5.401   1.140   0.012  0.00  0.00     0.030 A 
HETATM    5  C   UNK N   1       3.009  -0.292  -0.009  0.00  0.00     0.009 A 
HETATM    6  C   UNK N   1       5.424  -0.265   0.010  0.00  0.00     0.009 A 
ENDROOT
BRANCH   1   7
HETATM    7  N   UNK N   1       4.118   3.267   0.003  0.00  0.00    -0.379 N 
BRANCH   7   8
HETATM    8  C   UNK N   1       2.774   3.867  -0.007  0.00  0.00     0.138 C 
BRANCH   8   9
HETATM    9  C   UNK N   1       2.618   5.374   0.009  0.00  0.00     0.134 C 
HETATM   10 Cl   UNK N   1       0.884   5.765  -0.001  0.00  0.00    -0.129 Cl
ENDBRANCH   8   9
ENDBRANCH   7   8
BRANCH   7  11
HETATM   11  C   UNK N   1       5.390   3.997   0.012  0.00  0.00     0.138 C 
BRANCH  11  12
HETATM   12  C   UNK N   1       5.343   5.515  -0.006  0.00  0.00     0.134 C 
HETATM   13 Cl   UNK N   1       6.994   6.170   0.002  0.00  0.00    -0.129 Cl
ENDBRANCH  11  12
ENDBRANCH   7  11
ENDBRANCH   1   7
BRANCH   2  14
HETATM   14  C   UNK N   1       4.242  -2.496  -0.006  0.00  0.00     0.039 C 
BRANCH  14  15
HETATM   15  C   UNK N   1       2.819  -3.046  -0.048  0.00  0.00     0.015 C 
BRANCH  15  16
HETATM   16  C   UNK N   1       2.728  -4.557   0.005  0.00  0.00     0.110 C 
BRANCH  16  17
HETATM   17  C   UNK N   1       1.287  -4.996   0.008  0.00  0.00     0.139 C 
HETATM   18  O   UNK N   1       0.378  -4.178  -0.019  0.00  0.00    -0.650 OA
BRANCH  17  19
HETATM   19  O   UNK N   1       0.993  -6.308   0.041  0.00  0.00    -0.776 OA
HETATM   20  H   UNK N   1       0.100  -6.588   0.064  0.00  0.00     0.167 HD
ENDBRANCH  17  19
ENDBRANCH  16  17
ENDBRANCH  15  16
ENDBRANCH  14  15
ENDBRANCH   2  14
TORSDOF 10
