REMARK  4 active torsions:
REMARK  status: ('A' for Active; 'I' for Inactive)
REMARK    1  A    between atoms: N_1  and  C_10 
REMARK    2  A    between atoms: N_2  and  C_20 
REMARK    3  A    between atoms: C_10  and  C_13 
REMARK    4  A    between atoms: C_13  and  C_15 
ROOT
HETATM    1  N   UNK N   1       5.647  -0.639   0.142  0.00  0.00     0.092 N 
HETATM    2  N   UNK N   1       6.277   2.078   0.084  0.00  0.00    -0.377 N 
HETATM    3  C   UNK N   1       6.960  -0.260  -0.366  0.00  0.00     0.292 C 
HETATM    4  C   UNK N   1       4.679   0.295  -0.412  0.00  0.00     0.292 C 
HETATM    5  C   UNK N   1       7.343   1.095   0.250  0.00  0.00     0.153 C 
HETATM    6  C   UNK N   1       4.901   1.638   0.258  0.00  0.00     0.153 C 
ENDROOT
BRANCH   1   7
HETATM    7  C   UNK N   1       5.279  -1.987  -0.260  0.00  0.00     0.280 C 
BRANCH   7   8
HETATM    8  C   UNK N   1       4.264  -2.489   0.757  0.00  0.00     0.108 C 
BRANCH   8   9
HETATM    9  C   UNK N   1       3.475  -3.669   0.305  0.00  0.00     0.101 A 
HETATM   10  N   UNK N   1       2.143  -3.672   0.139  0.00  0.00    -0.324 N 
HETATM   11  C   UNK N   1       1.188  -2.576   0.297  0.00  0.00     0.131 C 
HETATM   12  C   UNK N   1       1.851  -4.937  -0.188  0.00  0.00     0.099 A 
HETATM   13  C   UNK N   1      -0.188  -2.976  -0.252  0.00  0.00     0.021 C 
HETATM   14  C   UNK N   1      -0.550  -4.410   0.143  0.00  0.00     0.009 C 
HETATM   15  C   UNK N   1       0.456  -5.425  -0.416  0.00  0.00     0.078 C 
HETATM   16  N   UNK N   1       2.966  -5.691  -0.241  0.00  0.00    -0.287 N 
HETATM   17  N   UNK N   1       3.985  -4.897   0.071  0.00  0.00    -0.287 N 
ATOM     18  HN  UNK N   1       3.018  -6.682  -0.475  1.00  0.00     0.188 HD
ATOM     19  HN  UNK N   1       4.968  -5.165   0.124  1.00  0.00     0.188 HD
ENDBRANCH   8   9
ENDBRANCH   7   8
ENDBRANCH   1   7
BRANCH   2  20
HETATM   20  C   UNK N   1       6.538   3.494   0.007  0.00  0.00     0.036 A 
HETATM   21  C   UNK N   1       7.848   4.061  -0.039  0.00  0.00    -0.035 A 
HETATM   22  C   UNK N   1       8.001   5.453  -0.088  0.00  0.00     0.009 A 
HETATM   23  C   UNK N   1       9.098   3.250  -0.036  0.00  0.00     0.050 C 
HETATM   24  C   UNK N   1       6.892   6.297  -0.094  0.00  0.00     0.001 A 
HETATM   25  C   UNK N   1       5.611   5.759  -0.056  0.00  0.00     0.002 A 
HETATM   26  C   UNK N   1       5.438   4.377  -0.006  0.00  0.00     0.030 A 
ENDBRANCH   2  20
TORSDOF 4
