REMARK  5 active torsions:
REMARK  status: ('A' for Active; 'I' for Inactive)
REMARK    1  A    between atoms: O_5  and  C_20 
REMARK    2  A    between atoms: C_16  and  N_10 
REMARK       I    between atoms: N_10  and  C_21 
REMARK    3  A    between atoms: C_15  and  C_20 
REMARK    4  A    between atoms: C_21  and  C_22 
REMARK    5  A    between atoms: C_23  and  C_25 
ROOT
HETATM    1  O   UNK N   1       4.739   1.278  -2.652  0.00  0.00    -0.267 OA
HETATM    2  N   UNK N   1       6.135   0.913  -0.958  0.00  0.00    -0.342 N 
HETATM    3  C   UNK N   1       4.971   1.397  -1.459  0.00  0.00     0.257 C 
HETATM    4  H   UNK N   1       6.831   0.608  -1.585  0.00  0.00     0.163 HD
ENDROOT
BRANCH   3   5
HETATM    5  C   UNK N   1       4.058   2.197  -0.627  0.00  0.00     0.092 A 
HETATM    6  C   UNK N   1       2.804   1.978  -0.008  0.00  0.00     0.088 A 
HETATM    7  N   UNK N   1       2.466   3.144   0.591  0.00  0.00    -0.259 N 
HETATM    8  O   UNK N   1       3.403   4.021   0.382  0.00  0.00    -0.241 OA
ATOM      9  HN  UNK N   1       1.612   3.309   1.123  1.00  0.00     0.195 HD
HETATM   10  C   UNK N   1       4.365   3.508  -0.327  0.00  0.00     0.090 A 
HETATM   11  C   UNK N   1       5.579   4.264  -0.753  0.00  0.00     0.080 C 
BRANCH   6  12
HETATM   12  C   UNK N   1       1.869   0.776   0.131  0.00  0.00     0.054 A 
HETATM   13  C   UNK N   1       2.097  -0.545  -0.379  0.00  0.00     0.049 A 
HETATM   14 Cl   UNK N   1       3.484  -1.065  -1.292  0.00  0.00    -0.083 Cl
HETATM   15  C   UNK N   1       1.162  -1.560  -0.147  0.00  0.00     0.025 A 
HETATM   16  C   UNK N   1       0.001  -1.326   0.573  0.00  0.00     0.005 A 
HETATM   17  C   UNK N   1      -0.249  -0.063   1.075  0.00  0.00     0.043 A 
HETATM   18  C   UNK N   1       0.656   0.977   0.867  0.00  0.00     0.130 A 
HETATM   19  F   UNK N   1       0.330   2.181   1.401  0.00  0.00    -0.205 F 
ENDBRANCH   6  12
ENDBRANCH   3   5
BRANCH   2  20
HETATM   20  C   UNK N   1       6.392   0.828   0.464  0.00  0.00     0.199 A 
HETATM   21  C   UNK N   1       7.961   0.969   0.855  0.00  0.00     0.160 A 
HETATM   22  S   UNK N   1       9.191   1.430  -0.429  0.00  0.00    -0.135 SA
HETATM   23  N   UNK N   1       8.004  -0.447   0.955  0.00  0.00    -0.219 NA
HETATM   24  C   UNK N   1      10.071  -0.181  -0.263  0.00  0.00     0.029 C 
HETATM   25  C   UNK N   1       9.027  -1.155   0.249  0.00  0.00     0.182 C 
HETATM   26  C   UNK N   1      10.592  -0.626  -1.613  0.00  0.00     0.029 C 
HETATM   27  C   UNK N   1      11.215  -0.051   0.728  0.00  0.00     0.029 C 
HETATM   28  C   UNK N   1       6.735  -0.601   0.697  0.00  0.00     0.227 A 
HETATM   29  O   UNK N   1       6.214  -1.600   0.222  0.00  0.00    -0.277 OA
BRANCH  25  30
HETATM   30  C   UNK N   1       9.179  -2.637   0.411  0.00  0.00     0.160 C 
HETATM   31  O   UNK N   1      10.108  -3.095   1.053  0.00  0.00    -0.649 OA
BRANCH  30  32
HETATM   32  O   UNK N   1       8.309  -3.467  -0.195  0.00  0.00    -0.775 OA
HETATM   33  H   UNK N   1       7.506  -3.232  -0.616  0.00  0.00     0.167 HD
ENDBRANCH  30  32
ENDBRANCH  25  30
ENDBRANCH   2  20
TORSDOF 5
