REMARK  2 active torsions:
REMARK  status: ('A' for Active; 'I' for Inactive)
REMARK    1  A    between atoms: C_14  and  O_2 
REMARK    2  A    between atoms: O_3  and  C_20 
ROOT
HETATM    1  O   UNK N   1       1.089  -0.150  -0.875  0.00  0.00    -0.338 OA
HETATM    2  N   UNK N   1       6.209  -1.047  -0.766  0.00  0.00     0.089 N 
HETATM    3  C   UNK N   1       3.288  -0.986  -0.694  0.00  0.00     0.030 C 
HETATM    4  C   UNK N   1       4.075  -1.817   0.327  0.00  0.00     0.057 C 
HETATM    5  C   UNK N   1       5.459  -1.084   0.509  0.00  0.00     0.235 C 
HETATM    6  C   UNK N   1       1.783  -1.366  -0.948  0.00  0.00     0.175 C 
HETATM    7  C   UNK N   1       4.056  -0.911  -2.025  0.00  0.00     0.048 C 
HETATM    8  C   UNK N   1       3.110   0.369  -0.146  0.00  0.00    -0.003 C 
HETATM    9  C   UNK N   1       5.318   0.390   1.022  0.00  0.00     0.075 C 
HETATM   10  C   UNK N   1       5.478  -0.368  -1.845  0.00  0.00     0.273 C 
HETATM   11  C   UNK N   1       4.056   1.090   0.568  0.00  0.00    -0.046 C 
HETATM   12  C   UNK N   1       1.310  -2.375   0.133  0.00  0.00     0.171 C 
HETATM   13  C   UNK N   1       3.251  -1.921   1.596  0.00  0.00    -0.020 C 
HETATM   14  C   UNK N   1       1.863   0.814  -0.362  0.00  0.00     0.110 C 
HETATM   15  C   UNK N   1       1.929  -2.166   1.499  0.00  0.00     0.004 C 
HETATM   16  C   UNK N   1       6.609  -2.379  -1.210  0.00  0.00     0.310 C 
HETATM   17  C   UNK N   1       3.723   2.391   0.976  0.00  0.00     0.011 C 
HETATM   18  C   UNK N   1       1.489   2.113  -0.012  0.00  0.00     0.102 C 
HETATM   19  C   UNK N   1       2.453   2.922   0.647  0.00  0.00     0.040 C 
ENDROOT
BRANCH  12  20
HETATM   20  O   UNK N   1      -0.081  -2.460   0.202  0.00  0.00    -0.389 OA
HETATM   21  H   UNK N   1      -0.616  -1.652   0.251  0.00  0.00     0.210 HD
ENDBRANCH  12  20
BRANCH  18  22
HETATM   22  O   UNK N   1       0.246   2.564  -0.301  0.00  0.00    -0.353 OA
HETATM   23  C   UNK N   1      -0.144   3.866  -0.091  0.00  0.00     0.210 C 
ENDBRANCH  18  22
TORSDOF 2
