REMARK  3 active torsions:
REMARK  status: ('A' for Active; 'I' for Inactive)
REMARK    1  A    between atoms: N_1  and  C_15 
REMARK    2  A    between atoms: C_9  and  C_10 
REMARK    3  A    between atoms: C_10  and  C_15 
ROOT
HETATM    1  C   UNK N   1       3.543   3.523   0.557  0.00  0.00     0.044 C 
HETATM    2  C   UNK N   1       4.499   3.457  -0.591  0.00  0.00     0.044 C 
HETATM    3  C   UNK N   1       4.105   0.507   0.371  0.00  0.00    -0.018 C 
HETATM    4  C   UNK N   1       2.481   2.546   0.257  0.00  0.00    -0.047 A 
HETATM    5  C   UNK N   1       5.620   2.571  -0.221  0.00  0.00    -0.047 A 
HETATM    6  C   UNK N   1       2.730   1.151   0.167  0.00  0.00    -0.019 A 
HETATM    7  C   UNK N   1       5.445   1.224   0.213  0.00  0.00    -0.019 A 
HETATM    8  C   UNK N   1       4.192  -0.800   0.750  0.00  0.00    -0.012 C 
HETATM    9  C   UNK N   1       1.189   3.052   0.065  0.00  0.00     0.008 A 
HETATM   10  C   UNK N   1       6.903   3.122  -0.320  0.00  0.00     0.008 A 
HETATM   11  C   UNK N   1       1.627   0.322  -0.125  0.00  0.00     0.013 A 
HETATM   12  C   UNK N   1       6.617   0.491   0.515  0.00  0.00     0.013 A 
HETATM   13  C   UNK N   1       0.126   2.202  -0.226  0.00  0.00     0.001 A 
HETATM   14  C   UNK N   1       8.031   2.370  -0.007  0.00  0.00     0.001 A 
HETATM   15  C   UNK N   1       0.346   0.834  -0.323  0.00  0.00     0.001 A 
HETATM   16  C   UNK N   1       7.889   1.052   0.406  0.00  0.00     0.001 A 
ENDROOT
BRANCH   8  17
HETATM   17  C   UNK N   1       3.055  -1.715   1.088  0.00  0.00     0.058 C 
BRANCH  17  18
HETATM   18  C   UNK N   1       3.019  -2.931   0.178  0.00  0.00     0.275 C 
BRANCH  18  19
HETATM   19  N   UNK N   1       1.674  -3.139  -0.351  0.00  0.00     0.080 N 
HETATM   20  C   UNK N   1       1.742  -4.282  -1.242  0.00  0.00     0.309 C 
HETATM   21  C   UNK N   1       0.781  -3.512   0.736  0.00  0.00     0.309 C 
ENDBRANCH  18  19
ENDBRANCH  17  18
ENDBRANCH   8  17
TORSDOF 3
