REMARK  4 active torsions:
REMARK  status: ('A' for Active; 'I' for Inactive)
REMARK    1  A    between atoms: C_9  and  O_3 
REMARK    2  A    between atoms: O_4  and  C_13 
REMARK    3  A    between atoms: C_10  and  N_7 
REMARK    4  A    between atoms: C_12  and  C_13 
ROOT
HETATM    1  F   UNK N   1       5.491   3.027  -0.203  0.00  0.00    -0.199 F 
HETATM    2  O   UNK N   1       0.868   0.361  -0.134  0.00  0.00    -0.246 OA
HETATM    3  O   UNK N   1       3.095   4.224   0.202  0.00  0.00    -0.265 OA
HETATM    4  N   UNK N   1       3.126   0.280  -0.372  0.00  0.00    -0.279 N 
HETATM    5  N   UNK N   1       1.939   2.312   0.037  0.00  0.00    -0.273 N 
HETATM    6  C   UNK N   1       1.930   0.955  -0.161  0.00  0.00     0.331 A 
HETATM    7  C   UNK N   1       4.294   0.979  -0.380  0.00  0.00     0.146 A 
HETATM    8  C   UNK N   1       4.313   2.355  -0.185  0.00  0.00     0.199 A 
HETATM    9  C   UNK N   1       3.110   3.019   0.026  0.00  0.00     0.289 A 
HETATM   10  H   UNK N   1       1.089   2.785   0.188  0.00  0.00     0.173 HD
ENDROOT
BRANCH   4  11
HETATM   11  C   UNK N   1       3.252  -1.170  -0.595  0.00  0.00     0.235 C 
HETATM   12  O   UNK N   1       3.937  -1.771   0.466  0.00  0.00    -0.356 OA
HETATM   13  C   UNK N   1       3.789  -3.122   0.157  0.00  0.00     0.176 C 
HETATM   14  C   UNK N   1       2.334  -3.329  -0.251  0.00  0.00     0.153 C 
HETATM   15  C   UNK N   1       1.982  -1.977  -0.828  0.00  0.00     0.088 C 
BRANCH  13  16
HETATM   16  C   UNK N   1       4.246  -4.009   1.306  0.00  0.00     0.198 C 
BRANCH  16  17
HETATM   17  O   UNK N   1       5.572  -3.714   1.628  0.00  0.00    -0.398 OA
HETATM   18  H   UNK N   1       6.210  -4.409   1.851  0.00  0.00     0.209 HD
ENDBRANCH  16  17
ENDBRANCH  13  16
BRANCH  14  19
HETATM   19  O   UNK N   1       1.525  -3.547   0.866  0.00  0.00    -0.393 OA
HETATM   20  H   UNK N   1       1.112  -3.136   1.642  0.00  0.00     0.210 HD
ENDBRANCH  14  19
ENDBRANCH   4  11
TORSDOF 4
