REMARK  2 active torsions:
REMARK  status: ('A' for Active; 'I' for Inactive)
REMARK    1  A    between atoms: C_12  and  O_3 
REMARK    2  A    between atoms: C_10  and  C_20 
ROOT
HETATM    1  F   UNK N   1       4.313  -0.097   1.751  0.00  0.00    -0.238 F 
HETATM    2  O   UNK N   1       8.407   1.613   1.611  0.00  0.00    -0.381 OA
HETATM    3  O   UNK N   1      -0.411  -2.824  -0.589  0.00  0.00    -0.289 OA
HETATM    4  C   UNK N   1       6.956   1.167  -0.265  0.00  0.00     0.001 C 
HETATM    5  C   UNK N   1       6.826  -0.266   0.256  0.00  0.00     0.005 C 
HETATM    6  C   UNK N   1       5.513  -0.920  -0.185  0.00  0.00     0.035 C 
HETATM    7  C   UNK N   1       4.298  -0.077   0.361  0.00  0.00     0.147 C 
HETATM    8  C   UNK N   1       8.392   1.494   0.215  0.00  0.00     0.125 C 
HETATM    9  C   UNK N   1       5.813   2.015   0.306  0.00  0.00     0.048 C 
HETATM   10  C   UNK N   1       4.445   1.410  -0.090  0.00  0.00     0.160 C 
HETATM   11  C   UNK N   1       8.121  -0.920  -0.207  0.00  0.00     0.009 C 
HETATM   12  C   UNK N   1       2.980  -0.757  -0.140  0.00  0.00     0.037 C 
HETATM   13  C   UNK N   1       9.159   0.216  -0.166  0.00  0.00     0.047 C 
HETATM   14  C   UNK N   1       5.480  -2.406   0.237  0.00  0.00     0.017 C 
HETATM   15  C   UNK N   1       4.190  -2.825   0.930  0.00  0.00     0.012 C 
HETATM   16  C   UNK N   1       6.882   1.213  -1.808  0.00  0.00     0.019 C 
HETATM   17  C   UNK N   1       2.961  -2.230   0.279  0.00  0.00    -0.057 C 
HETATM   18  C   UNK N   1       2.944  -0.714  -1.675  0.00  0.00     0.028 C 
HETATM   19  C   UNK N   1       1.684  -0.104   0.303  0.00  0.00    -0.006 C 
HETATM   20  C   UNK N   1       4.144  -4.327   1.164  0.00  0.00     0.015 C 
HETATM   21  C   UNK N   1       1.830  -2.946   0.112  0.00  0.00     0.059 C 
HETATM   22  C   UNK N   1       0.525  -0.771   0.106  0.00  0.00     0.052 C 
HETATM   23  C   UNK N   1       0.585  -2.221  -0.226  0.00  0.00     0.172 C 
HETATM   24  H   UNK N   1       8.484   1.645   2.578  0.00  0.00     0.211 HD
ENDROOT
BRANCH   8  25
HETATM   25  C   UNK N   1       9.058   2.725  -0.362  0.00  0.00     0.158 C 
HETATM   26  O   UNK N   1       8.459   3.471  -1.121  0.00  0.00    -0.295 OA
HETATM   27  C   UNK N   1      10.471   3.045   0.006  0.00  0.00     0.094 C 
ENDBRANCH   8  25
BRANCH  10  28
HETATM   28  O   UNK N   1       3.428   2.199   0.450  0.00  0.00    -0.392 OA
HETATM   29  H   UNK N   1       3.549   3.085   0.825  0.00  0.00     0.210 HD
ENDBRANCH  10  28
TORSDOF 2
