REMARK  5 active torsions:
REMARK  status: ('A' for Active; 'I' for Inactive)
REMARK    1  A    between atoms: N_2  and  C_4 
REMARK    2  A    between atoms: N_2  and  C_7 
REMARK    3  A    between atoms: N_2  and  C_8 
REMARK    4  A    between atoms: N_3  and  C_5 
REMARK    5  A    between atoms: C_4  and  C_5 
ROOT
HETATM    1  S   UNK N   1       2.915  -4.195  -0.393  0.00  0.00    -0.086 SA
HETATM    2  N   UNK N   1       3.475  -1.107   0.304  0.00  0.00    -0.343 N 
HETATM    3  C   UNK N   1       4.595  -2.006   0.243  0.00  0.00     0.052 A 
HETATM    4  C   UNK N   1       2.113  -1.528   0.132  0.00  0.00     0.052 A 
HETATM    5  C   UNK N   1       4.464  -3.381  -0.060  0.00  0.00     0.032 A 
HETATM    6  C   UNK N   1       1.752  -2.865  -0.162  0.00  0.00     0.032 A 
HETATM    7  C   UNK N   1       1.080  -0.579   0.275  0.00  0.00     0.031 A 
HETATM    8  C   UNK N   1       5.890  -1.508   0.499  0.00  0.00     0.031 A 
HETATM    9  C   UNK N   1       5.604  -4.194  -0.112  0.00  0.00     0.021 A 
HETATM   10  C   UNK N   1       0.400  -3.207  -0.297  0.00  0.00     0.021 A 
HETATM   11  C   UNK N   1      -0.262  -0.934   0.135  0.00  0.00     0.002 A 
HETATM   12  C   UNK N   1       7.015  -2.326   0.439  0.00  0.00     0.002 A 
HETATM   13  C   UNK N   1      -0.602  -2.252  -0.149  0.00  0.00     0.002 A 
HETATM   14  C   UNK N   1       6.872  -3.673   0.130  0.00  0.00     0.002 A 
ENDROOT
BRANCH   2  15
HETATM   15  C   UNK N   1       3.719   0.280   0.700  0.00  0.00     0.165 C 
BRANCH  15  16
HETATM   16  C   UNK N   1       3.964   1.223  -0.486  0.00  0.00     0.237 C 
HETATM   17  C   UNK N   1       5.307   0.892  -1.140  0.00  0.00     0.044 C 
BRANCH  16  18
HETATM   18  N   UNK N   1       3.880   2.613   0.004  0.00  0.00     0.093 N 
BRANCH  18  19
HETATM   19  C   UNK N   1       4.683   3.552  -0.782  0.00  0.00     0.268 C 
HETATM   20  C   UNK N   1       5.609   4.316   0.147  0.00  0.00     0.037 C 
ENDBRANCH  18  19
BRANCH  18  21
HETATM   21  C   UNK N   1       2.484   3.019  -0.124  0.00  0.00     0.268 C 
HETATM   22  C   UNK N   1       2.199   4.267   0.696  0.00  0.00     0.037 C 
ENDBRANCH  18  21
ENDBRANCH  16  18
ENDBRANCH  15  16
ENDBRANCH   2  15
TORSDOF 5
