REMARK  9 active torsions:
REMARK  status: ('A' for Active; 'I' for Inactive)
REMARK    1  A    between atoms: O_1  and  C_9 
REMARK    2  A    between atoms: O_1  and  C_12 
REMARK    3  A    between atoms: O_2  and  C_7 
REMARK    4  A    between atoms: N_4  and  C_6 
REMARK    5  A    between atoms: N_4  and  C_8 
REMARK       I    between atoms: N_5  and  C_19 
REMARK    6  A    between atoms: C_6  and  C_7 
REMARK    7  A    between atoms: C_7  and  C_9 
REMARK    8  A    between atoms: C_13  and  C_18 
REMARK    9  A    between atoms: C_18  and  C_19 
ROOT
HETATM    1  C   UNK N   1       4.921   0.147   0.231  0.00  0.00     0.068 A 
HETATM    2  C   UNK N   1       4.581   2.929  -0.023  0.00  0.00    -0.049 A 
HETATM    3  C   UNK N   1       6.032   0.984   0.132  0.00  0.00     0.037 A 
HETATM    4  C   UNK N   1       3.630   0.705   0.183  0.00  0.00     0.037 A 
HETATM    5  C   UNK N   1       5.864   2.364   0.007  0.00  0.00     0.010 A 
HETATM    6  C   UNK N   1       3.465   2.088   0.058  0.00  0.00     0.010 A 
ENDROOT
BRANCH   1   7
HETATM    7  O   UNK N   1       5.114  -1.184   0.390  0.00  0.00    -0.349 OA
BRANCH   7   8
HETATM    8  C   UNK N   1       4.075  -2.081   0.477  0.00  0.00     0.209 C 
BRANCH   8   9
HETATM    9  C   UNK N   1       4.256  -3.164  -0.566  0.00  0.00     0.159 C 
BRANCH   9  10
HETATM   10  O   UNK N   1       5.151  -4.131  -0.105  0.00  0.00    -0.392 OA
HETATM   11  H   UNK N   1       4.879  -5.006   0.216  0.00  0.00     0.210 HD
ENDBRANCH   9  10
BRANCH   9  12
HETATM   12  C   UNK N   1       2.923  -3.796  -0.930  0.00  0.00     0.147 C 
BRANCH  12  13
HETATM   13  N   UNK N   1       2.333  -4.479   0.212  0.00  0.00    -0.415 N 
HETATM   14  H   UNK N   1       2.725  -4.548   1.151  0.00  0.00     0.153 HD
BRANCH  13  15
HETATM   15  C   UNK N   1       1.077  -5.044  -0.249  0.00  0.00     0.068 C 
HETATM   16  C   UNK N   1       0.928  -6.450   0.289  0.00  0.00     0.031 C 
HETATM   17  C   UNK N   1      -0.077  -4.190   0.236  0.00  0.00     0.031 C 
ENDBRANCH  13  15
ENDBRANCH  12  13
ENDBRANCH   9  12
ENDBRANCH   8   9
ENDBRANCH   7   8
ENDBRANCH   1   7
BRANCH   2  18
HETATM   18  C   UNK N   1       4.349   4.418  -0.098  0.00  0.00     0.141 C 
BRANCH  18  19
HETATM   19  C   UNK N   1       5.541   5.348  -0.088  0.00  0.00     0.219 C 
HETATM   20  O   UNK N   1       6.685   4.926  -0.113  0.00  0.00    -0.273 OA
HETATM   21  N   UNK N   1       5.330   6.677  -0.043  0.00  0.00    -0.370 N 
HETATM   22  H   UNK N   1       6.095   7.296  -0.010  0.00  0.00     0.159 HD
HETATM   23  H   UNK N   1       4.411   7.030  -0.043  0.00  0.00     0.159 HD
ENDBRANCH  18  19
ENDBRANCH   2  18
TORSDOF 9
