REMARK  4 active torsions:
REMARK  status: ('A' for Active; 'I' for Inactive)
REMARK    1  A    between atoms: N_1  and  C_9 
REMARK    2  A    between atoms: C_2  and  C_3 
REMARK    3  A    between atoms: C_3  and  C_6 
REMARK    4  A    between atoms: C_6  and  C_9 
ROOT
HETATM    1  C   UNK N   1       4.158   0.512  -0.121  0.00  0.00     0.053 A 
HETATM    2  C   UNK N   1       5.533   1.159  -0.035  0.00  0.00    -0.039 A 
HETATM    3  C   UNK N   1       2.771   1.151  -0.103  0.00  0.00    -0.039 A 
HETATM    4  C   UNK N   1       5.793   2.545   0.125  0.00  0.00    -0.029 A 
HETATM    5  C   UNK N   1       2.495   2.533   0.052  0.00  0.00    -0.029 A 
HETATM    6  C   UNK N   1       6.644   0.291  -0.132  0.00  0.00     0.009 A 
HETATM    7  C   UNK N   1       1.676   0.277  -0.260  0.00  0.00     0.009 A 
HETATM    8  C   UNK N   1       4.798   3.609   0.250  0.00  0.00     0.013 A 
HETATM    9  C   UNK N   1       3.472   3.604   0.222  0.00  0.00     0.013 A 
HETATM   10  C   UNK N   1       7.119   2.996   0.176  0.00  0.00     0.012 A 
HETATM   11  C   UNK N   1       1.161   2.970   0.046  0.00  0.00     0.012 A 
HETATM   12  C   UNK N   1       7.954   0.760  -0.080  0.00  0.00     0.001 A 
HETATM   13  C   UNK N   1       0.360   0.729  -0.263  0.00  0.00     0.001 A 
HETATM   14  C   UNK N   1       8.193   2.117   0.073  0.00  0.00     0.001 A 
HETATM   15  C   UNK N   1       0.102   2.082  -0.109  0.00  0.00     0.001 A 
ENDROOT
BRANCH   1  16
HETATM   16  C   UNK N   1       4.167  -1.015  -0.343  0.00  0.00     0.016 C 
BRANCH  16  17
HETATM   17  C   UNK N   1       3.727  -1.759   0.908  0.00  0.00     0.020 C 
BRANCH  17  18
HETATM   18  C   UNK N   1       3.089  -3.088   0.533  0.00  0.00     0.113 C 
BRANCH  18  19
HETATM   19  N   UNK N   1       1.802  -2.859  -0.105  0.00  0.00    -0.425 N 
HETATM   20  C   UNK N   1       1.093  -4.125  -0.105  0.00  0.00     0.139 C 
HETATM   21  H   UNK N   1       1.462  -1.975  -0.482  0.00  0.00     0.152 HD
ENDBRANCH  18  19
ENDBRANCH  17  18
ENDBRANCH  16  17
ENDBRANCH   1  16
TORSDOF 4
