REMARK  4 active torsions:
REMARK  status: ('A' for Active; 'I' for Inactive)
REMARK    1  A    between atoms: N_1  and  C_14 
REMARK    2  A    between atoms: N_2  and  C_15 
REMARK    3  A    between atoms: C_4  and  C_5 
REMARK    4  A    between atoms: C_4  and  C_6 
ROOT
HETATM    1  N   UNK N   1       5.304  -4.760   0.040  0.00  0.00    -0.390 N 
HETATM    2  C   UNK N   1       5.284   0.835  -0.014  0.00  0.00    -0.005 C 
HETATM    3  C   UNK N   1       5.291  -0.558  -0.009  0.00  0.00    -0.024 A 
HETATM    4  C   UNK N   1       6.547  -1.350  -0.159  0.00  0.00     0.014 A 
HETATM    5  C   UNK N   1       4.041  -1.356   0.152  0.00  0.00     0.014 A 
HETATM    6  C   UNK N   1       5.299  -3.460   0.022  0.00  0.00     0.029 A 
HETATM    7  C   UNK N   1       6.557  -2.689  -0.154  0.00  0.00     0.030 A 
HETATM    8  C   UNK N   1       4.039  -2.694   0.176  0.00  0.00     0.030 A 
HETATM    9  C   UNK N   1       4.081  -5.507   0.226  0.00  0.00     0.149 C 
HETATM   10  C   UNK N   1       6.528  -5.506  -0.124  0.00  0.00     0.149 C 
ENDROOT
BRANCH   2  11
HETATM   11  C   UNK N   1       6.600   1.627  -0.084  0.00  0.00    -0.024 A 
HETATM   12  C   UNK N   1       6.603   3.014  -0.320  0.00  0.00     0.014 A 
HETATM   13  C   UNK N   1       7.788   3.754  -0.337  0.00  0.00     0.030 A 
HETATM   14  C   UNK N   1       9.021   3.125  -0.120  0.00  0.00     0.029 A 
HETATM   15  C   UNK N   1       9.040   1.743   0.098  0.00  0.00     0.030 A 
HETATM   16  C   UNK N   1       7.850   1.014   0.116  0.00  0.00     0.014 A 
BRANCH  14  17
HETATM   17  N   UNK N   1      10.233   3.879  -0.102  0.00  0.00    -0.390 N 
HETATM   18  C   UNK N   1      10.214   5.313  -0.255  0.00  0.00     0.149 C 
HETATM   19  C   UNK N   1      11.503   3.232   0.115  0.00  0.00     0.149 C 
ENDBRANCH  14  17
ENDBRANCH   2  11
BRANCH   2  20
HETATM   20  C   UNK N   1       3.959   1.610   0.054  0.00  0.00    -0.024 A 
HETATM   21  C   UNK N   1       2.720   0.982  -0.175  0.00  0.00     0.014 A 
HETATM   22  C   UNK N   1       1.519   1.690  -0.151  0.00  0.00     0.030 A 
HETATM   23  C   UNK N   1       1.513   3.066   0.101  0.00  0.00     0.029 A 
HETATM   24  C   UNK N   1       2.733   3.711   0.344  0.00  0.00     0.030 A 
HETATM   25  C   UNK N   1       3.931   2.991   0.321  0.00  0.00     0.014 A 
BRANCH  23  26
HETATM   26  N   UNK N   1       0.287   3.797   0.096  0.00  0.00    -0.390 N 
HETATM   27  C   UNK N   1       0.277   5.226   0.284  0.00  0.00     0.149 C 
HETATM   28  C   UNK N   1      -0.970   3.129  -0.136  0.00  0.00     0.149 C 
ENDBRANCH  23  26
ENDBRANCH   2  20
TORSDOF 4
