REMARK  0 active torsions:
REMARK  status: ('A' for Active; 'I' for Inactive)
ROOT
HETATM    1  O   UNK N   1       2.374   1.180  -0.000  0.00  0.00    -0.283 OA
HETATM    2  O   UNK N   1       5.169  -0.797  -0.000  0.00  0.00    -0.269 OA
HETATM    3  O   UNK N   1       0.762  -0.412   0.000  0.00  0.00    -0.238 OA
HETATM    4  N   UNK N   1       2.937  -0.956   0.000  0.00  0.00    -0.266 N 
HETATM    5  C   UNK N   1       3.780   1.273   0.000  0.00  0.00     0.146 A 
HETATM    6  C   UNK N   1       4.068  -0.255  -0.000  0.00  0.00     0.262 A 
HETATM    7  C   UNK N   1       5.220   1.771  -0.001  0.00  0.00     0.057 C 
HETATM    8  C   UNK N   1       3.679   2.783   0.000  0.00  0.00     0.057 C 
HETATM    9  C   UNK N   1       1.941  -0.094   0.000  0.00  0.00     0.370 A 
HETATM   10  C   UNK N   1       2.822  -2.394   0.000  0.00  0.00     0.165 C 
ENDROOT
TORSDOF 0
