REMARK  3 active torsions:
REMARK  status: ('A' for Active; 'I' for Inactive)
REMARK    1  A    between atoms: N_4  and  C_17 
REMARK    2  A    between atoms: C_5  and  C_7 
REMARK    3  A    between atoms: C_5  and  C_8 
ROOT
HETATM    1  O   UNK N   1       1.660  -0.807  -1.516  0.00  0.00    -0.272 OA
HETATM    2  O   UNK N   1       3.847  -4.444  -0.167  0.00  0.00    -0.273 OA
HETATM    3  N   UNK N   1       2.725  -2.637  -0.836  0.00  0.00    -0.297 N 
HETATM    4  C   UNK N   1       2.819  -0.525   0.556  0.00  0.00     0.068 C 
HETATM    5  C   UNK N   1       3.506  -1.442   1.585  0.00  0.00     0.033 C 
HETATM    6  C   UNK N   1       4.434  -2.454   0.941  0.00  0.00     0.105 C 
HETATM    7  C   UNK N   1       2.367  -1.334  -0.672  0.00  0.00     0.237 C 
HETATM    8  C   UNK N   1       3.638  -3.249  -0.044  0.00  0.00     0.224 C 
HETATM    9  H   UNK N   1       2.303  -3.155  -1.558  0.00  0.00     0.171 HD
ENDROOT
BRANCH   4  10
HETATM   10  C   UNK N   1       1.580  -0.001   1.316  0.00  0.00     0.020 C 
HETATM   11  C   UNK N   1       0.665   0.923   0.521  0.00  0.00     0.006 C 
ENDBRANCH   4  10
BRANCH   4  12
HETATM   12  C   UNK N   1       3.790   0.591   0.156  0.00  0.00    -0.040 A 
HETATM   13  C   UNK N   1       3.507   1.943   0.427  0.00  0.00     0.011 A 
HETATM   14  C   UNK N   1       4.431   2.944   0.118  0.00  0.00     0.029 A 
HETATM   15  C   UNK N   1       5.657   2.609  -0.458  0.00  0.00     0.025 A 
HETATM   16  C   UNK N   1       5.951   1.274  -0.745  0.00  0.00     0.029 A 
HETATM   17  C   UNK N   1       5.023   0.272  -0.443  0.00  0.00     0.011 A 
BRANCH  15  18
HETATM   18  N   UNK N   1       6.601   3.617  -0.739  0.00  0.00    -0.399 N 
HETATM   19  H   UNK N   1       7.540   3.397  -0.936  0.00  0.00     0.156 HD
HETATM   20  H   UNK N   1       6.315   4.559  -0.739  0.00  0.00     0.156 HD
ENDBRANCH  15  18
ENDBRANCH   4  12
TORSDOF 3
