REMARK  5 active torsions:
REMARK  status: ('A' for Active; 'I' for Inactive)
REMARK    1  A    between atoms: O_7  and  C_13 
REMARK    2  A    between atoms: C_11  and  C_13 
REMARK    3  A    between atoms: C_13  and  C_17 
REMARK    4  A    between atoms: C_21  and  C_26 
REMARK    5  A    between atoms: C_23  and  C_27 
ROOT
HETATM    1  N   UNK N   1       3.696  -1.801   0.218  0.00  0.00    -0.351 N 
ATOM      2  HN  UNK N   1       3.700  -2.820   0.156  1.00  0.00     0.166 HD
HETATM    3  C   UNK N   1       3.667   0.974   0.397  0.00  0.00    -0.013 A 
HETATM    4  C   UNK N   1       4.894   0.286   0.233  0.00  0.00     0.000 A 
HETATM    5  C   UNK N   1       2.487   0.233   0.461  0.00  0.00     0.045 A 
HETATM    6  C   UNK N   1       4.882  -1.131   0.162  0.00  0.00     0.058 A 
HETATM    7  C   UNK N   1       2.510  -1.155   0.353  0.00  0.00     0.117 A 
HETATM    8  C   UNK N   1       6.120   0.964   0.159  0.00  0.00     0.014 A 
HETATM    9  C   UNK N   1       6.094  -1.847   0.060  0.00  0.00     0.075 A 
HETATM   10  C   UNK N   1       7.314   0.255   0.028  0.00  0.00     0.002 A 
HETATM   11  C   UNK N   1       7.303  -1.140  -0.008  0.00  0.00     0.018 A 
ENDROOT
BRANCH   3  12
HETATM   12  C   UNK N   1       3.537   2.471   0.573  0.00  0.00     0.174 C 
BRANCH  12  13
HETATM   13  O   UNK N   1       4.644   3.053   1.196  0.00  0.00    -0.389 OA
HETATM   14  H   UNK N   1       5.379   2.589   1.629  0.00  0.00     0.210 HD
ENDBRANCH  12  13
BRANCH  12  15
HETATM   15  C   UNK N   1       3.106   3.258  -0.675  0.00  0.00     0.109 C 
HETATM   16  N   UNK N   1       2.015   2.610  -1.421  0.00  0.00    -0.414 N 
HETATM   17  C   UNK N   1       0.731   2.544  -0.697  0.00  0.00     0.114 C 
HETATM   18  H   UNK N   1       2.137   2.236  -2.363  0.00  0.00     0.153 HD
HETATM   19  C   UNK N   1       0.629   3.499   0.496  0.00  0.00     0.019 C 
HETATM   20  C   UNK N   1       1.255   4.841   0.146  0.00  0.00     0.004 C 
HETATM   21  C   UNK N   1       2.717   4.698  -0.303  0.00  0.00     0.028 C 
ENDBRANCH  12  15
ENDBRANCH   3  12
BRANCH   7  22
HETATM   22  C   UNK N   1       1.233  -1.939   0.388  0.00  0.00     0.432 C 
HETATM   23  F   UNK N   1       0.140  -1.108   0.572  0.00  0.00    -0.165 F 
HETATM   24  F   UNK N   1       1.081  -2.617  -0.807  0.00  0.00    -0.165 F 
HETATM   25  F   UNK N   1       1.281  -2.851   1.425  0.00  0.00    -0.165 F 
ENDBRANCH   7  22
BRANCH   9  26
HETATM   26  C   UNK N   1       6.106  -3.356   0.059  0.00  0.00     0.419 C 
HETATM   27  F   UNK N   1       5.511  -3.818   1.221  0.00  0.00    -0.166 F 
HETATM   28  F   UNK N   1       7.399  -3.848   0.006  0.00  0.00    -0.166 F 
HETATM   29  F   UNK N   1       5.403  -3.834  -1.031  0.00  0.00    -0.166 F 
ENDBRANCH   9  26
TORSDOF 5
