REMARK  10 active torsions:
REMARK  status: ('A' for Active; 'I' for Inactive)
REMARK    1  A    between atoms: P_1  and  O_4 
REMARK    2  A    between atoms: P_1  and  O_5 
REMARK    3  A    between atoms: P_1  and  C_15 
REMARK    4  A    between atoms: C_12  and  O_2 
REMARK    5  A    between atoms: O_2  and  C_15 
REMARK    6  A    between atoms: O_3  and  C_14 
REMARK    7  A    between atoms: N_8  and  C_13 
REMARK    8  A    between atoms: N_11  and  C_19 
REMARK    9  A    between atoms: C_12  and  C_13 
REMARK   10  A    between atoms: C_12  and  C_14 
ROOT
HETATM    1  C   UNK N   1       3.739  -0.687  -0.322  0.00  0.00     0.164 C 
ENDROOT
BRANCH   1   2
HETATM    2  O   UNK N   1       3.982  -1.958   0.187  0.00  0.00    -0.371 OA
BRANCH   2   3
HETATM    3  C   UNK N   1       3.955  -2.896  -0.843  0.00  0.00     0.292 C 
BRANCH   3   4
HETATM    4  P   UNK N   1       4.760  -4.385  -0.098  0.00  0.00     0.260 P 
HETATM    5  O   UNK N   1       3.984  -4.697   1.208  0.00  0.00    -0.652 OA
BRANCH   4   6
HETATM    6  O   UNK N   1       4.788  -5.906  -0.934  0.00  0.00    -0.328 OA
HETATM    7  H   UNK N   1       4.059  -6.345  -1.400  0.00  0.00     0.220 HD
ENDBRANCH   4   6
BRANCH   4   8
HETATM    8  O   UNK N   1       6.358  -4.055   0.489  0.00  0.00    -0.328 OA
HETATM    9  H   UNK N   1       6.965  -4.736   0.818  0.00  0.00     0.220 HD
ENDBRANCH   4   8
ENDBRANCH   3   4
ENDBRANCH   2   3
ENDBRANCH   1   2
BRANCH   1  10
HETATM   10  C   UNK N   1       3.171   0.111   0.852  0.00  0.00     0.167 C 
BRANCH  10  11
HETATM   11  N   UNK N   1       3.037   1.524   0.545  0.00  0.00    -0.307 N 
HETATM   12  C   UNK N   1       3.951   2.384   1.069  0.00  0.00     0.099 A 
HETATM   13  C   UNK N   1       3.877   3.743   0.790  0.00  0.00     0.065 A 
HETATM   14  C   UNK N   1       2.847   4.204  -0.024  0.00  0.00     0.103 A 
HETATM   15  N   UNK N   1       1.930   3.334  -0.523  0.00  0.00    -0.295 N 
HETATM   16  C   UNK N   1       2.014   1.996  -0.246  0.00  0.00     0.328 A 
ATOM     17  HN  UNK N   1       1.172   3.681  -1.111  1.00  0.00     0.172 HD
HETATM   18  O   UNK N   1       1.178   1.232  -0.700  0.00  0.00    -0.246 OA
BRANCH  14  19
HETATM   19  N   UNK N   1       2.757   5.574  -0.332  0.00  0.00    -0.385 N 
HETATM   20  H   UNK N   1       3.555   6.108  -0.547  0.00  0.00     0.157 HD
HETATM   21  H   UNK N   1       1.874   6.009  -0.332  0.00  0.00     0.157 HD
ENDBRANCH  14  19
ENDBRANCH  10  11
ENDBRANCH   1  10
BRANCH   1  22
HETATM   22  C   UNK N   1       5.052  -0.071  -0.821  0.00  0.00     0.197 C 
BRANCH  22  23
HETATM   23  O   UNK N   1       5.999  -0.019   0.206  0.00  0.00    -0.398 OA
HETATM   24  H   UNK N   1       6.359  -0.570   0.918  0.00  0.00     0.209 HD
ENDBRANCH  22  23
ENDBRANCH   1  22
TORSDOF 10
