REMARK  0 active torsions:
REMARK  status: ('A' for Active; 'I' for Inactive)
ROOT
HETATM    1  N   UNK N   1       3.745  -1.152  -0.373  0.00  0.00    -0.354 N 
HETATM    2  N   UNK N   1       1.389  -2.719  -0.397  0.00  0.00     0.088 N 
HETATM    3  N   UNK N   1       5.983  -1.245   0.504  0.00  0.00    -0.352 N 
ATOM      4  HN  UNK N   1       5.764  -2.194   0.807  1.00  0.00     0.166 HD
HETATM    5  C   UNK N   1       2.463  -0.478  -0.663  0.00  0.00     0.147 C 
HETATM    6  C   UNK N   1       1.302  -1.306  -0.055  0.00  0.00     0.301 C 
HETATM    7  C   UNK N   1       3.786  -2.593  -0.541  0.00  0.00     0.155 C 
HETATM    8  C   UNK N   1       2.620  -3.243   0.173  0.00  0.00     0.291 C 
HETATM    9  C   UNK N   1       2.308   0.987  -0.230  0.00  0.00    -0.027 A 
HETATM   10  C   UNK N   1       5.010  -0.518  -0.129  0.00  0.00     0.110 A 
HETATM   11  C   UNK N   1       3.222   1.971  -0.632  0.00  0.00    -0.045 A 
HETATM   12  C   UNK N   1       4.415   1.607  -1.414  0.00  0.00     0.081 C 
HETATM   13  C   UNK N   1       5.338   0.781  -0.589  0.00  0.00    -0.010 A 
HETATM   14  C   UNK N   1       0.294  -3.387   0.281  0.00  0.00     0.310 C 
HETATM   15  C   UNK N   1       1.181   1.394   0.519  0.00  0.00     0.010 A 
HETATM   16  C   UNK N   1       3.017   3.316  -0.299  0.00  0.00     0.008 A 
HETATM   17  C   UNK N   1       6.617   1.289  -0.346  0.00  0.00     0.012 A 
HETATM   18  C   UNK N   1       0.978   2.735   0.851  0.00  0.00     0.001 A 
HETATM   19  C   UNK N   1       1.896   3.699   0.437  0.00  0.00     0.001 A 
HETATM   20  C   UNK N   1       7.563   0.527   0.334  0.00  0.00     0.018 A 
HETATM   21  C   UNK N   1       7.226  -0.757   0.747  0.00  0.00     0.089 A 
ENDROOT
TORSDOF 0
