REMARK  8 active torsions:
REMARK  status: ('A' for Active; 'I' for Inactive)
REMARK    1  A    between atoms: O_1  and  C_9 
REMARK    2  A    between atoms: O_1  and  C_14 
REMARK    3  A    between atoms: O_2  and  C_10 
REMARK    4  A    between atoms: O_2  and  C_15 
REMARK       I    between atoms: N_5  and  C_14 
REMARK       I    between atoms: N_6  and  C_15 
REMARK    5  A    between atoms: C_7  and  C_8 
REMARK    6  A    between atoms: C_7  and  C_9 
REMARK    7  A    between atoms: C_7  and  C_10 
REMARK    8  A    between atoms: C_8  and  C_12 
ROOT
HETATM    1  C   UNK N   1       5.000  -0.626  -0.138  0.00  0.00     0.000 C 
HETATM    2  C   UNK N   1       5.346  -1.526  -1.310  0.00  0.00     0.019 C 
ENDROOT
BRANCH   1   3
HETATM    3  C   UNK N   1       4.574   0.738  -0.712  0.00  0.00     0.013 C 
BRANCH   3   4
HETATM    4  C   UNK N   1       4.242   1.764   0.360  0.00  0.00    -0.004 C 
HETATM    5  C   UNK N   1       3.875   3.072  -0.305  0.00  0.00     0.005 C 
ENDBRANCH   3   4
ENDBRANCH   1   3
BRANCH   1   6
HETATM    6  C   UNK N   1       6.231  -0.500   0.770  0.00  0.00     0.192 C 
BRANCH   6   7
HETATM    7  O   UNK N   1       7.078   0.507   0.351  0.00  0.00    -0.303 OA
BRANCH   7   8
HETATM    8  C   UNK N   1       8.389   0.323   0.077  0.00  0.00     0.358 C 
HETATM    9  O   UNK N   1       9.075   1.285  -0.230  0.00  0.00    -0.239 OA
HETATM   10  N   UNK N   1       8.949  -0.902   0.144  0.00  0.00    -0.346 N 
HETATM   11  H   UNK N   1       8.380  -1.703   0.193  0.00  0.00     0.161 HD
HETATM   12  H   UNK N   1       9.930  -0.994   0.144  0.00  0.00     0.161 HD
ENDBRANCH   7   8
ENDBRANCH   6   7
ENDBRANCH   1   6
BRANCH   1  13
HETATM   13  C   UNK N   1       3.890  -1.299   0.685  0.00  0.00     0.192 C 
BRANCH  13  14
HETATM   14  O   UNK N   1       2.646  -0.753   0.435  0.00  0.00    -0.303 OA
BRANCH  14  15
HETATM   15  C   UNK N   1       1.563  -1.475   0.071  0.00  0.00     0.358 C 
HETATM   16  O   UNK N   1       1.634  -2.688  -0.067  0.00  0.00    -0.239 OA
HETATM   17  N   UNK N   1       0.388  -0.849  -0.130  0.00  0.00    -0.346 N 
HETATM   18  H   UNK N   1       0.356   0.124  -0.277  0.00  0.00     0.161 HD
HETATM   19  H   UNK N   1      -0.447  -1.369  -0.130  0.00  0.00     0.161 HD
ENDBRANCH  14  15
ENDBRANCH  13  14
ENDBRANCH   1  13
TORSDOF 8
