REMARK  13 active torsions:
REMARK  status: ('A' for Active; 'I' for Inactive)
REMARK    1  A    between atoms: N_3  and  C_11 
REMARK    2  A    between atoms: N_3  and  C_12 
REMARK    3  A    between atoms: N_4  and  C_13 
REMARK    4  A    between atoms: N_4  and  C_15 
REMARK    5  A    between atoms: N_5  and  C_14 
REMARK    6  A    between atoms: N_5  and  C_16 
REMARK    7  A    between atoms: N_6  and  C_17 
REMARK    8  A    between atoms: N_7  and  C_18 
REMARK    9  A    between atoms: C_8  and  C_10 
REMARK   10  A    between atoms: C_11  and  C_13 
REMARK   11  A    between atoms: C_12  and  C_14 
REMARK   12  A    between atoms: C_15  and  C_17 
REMARK   13  A    between atoms: C_16  and  C_18 
ROOT
HETATM    1  O   UNK N   1       5.750   0.942   0.444  0.00  0.00    -0.380 OA
HETATM    2  C   UNK N   1       4.760   0.418  -0.412  0.00  0.00     0.159 A 
HETATM    3  C   UNK N   1       6.132  -0.139  -0.370  0.00  0.00     0.201 A 
ENDROOT
BRANCH   2   4
HETATM    4  C   UNK N   1       3.833  -0.459   0.401  0.00  0.00     0.148 C 
HETATM    5 Cl   UNK N   1       2.148  -0.115  -0.049  0.00  0.00    -0.128 Cl
ENDBRANCH   2   4
TORSDOF 13
