REMARK  6 active torsions:
REMARK  status: ('A' for Active; 'I' for Inactive)
REMARK    1  A    between atoms: O_1  and  C_4 
REMARK    2  A    between atoms: N_2  and  C_11 
REMARK    3  A    between atoms: C_3  and  C_4 
REMARK    4  A    between atoms: C_4  and  C_7 
REMARK    5  A    between atoms: C_4  and  C_12 
REMARK    6  A    between atoms: C_7  and  C_11 
ROOT
HETATM    1  C   UNK N   1       2.157   0.042   0.706  0.00  0.00     0.090 C 
ENDROOT
BRANCH   1   2
HETATM    2  O   UNK N   1       1.047   0.144   1.548  0.00  0.00    -0.385 OA
HETATM    3  H   UNK N   1       0.723   0.847   2.133  0.00  0.00     0.211 HD
ENDBRANCH   1   2
BRANCH   1   4
HETATM    4  C   UNK N   1       1.885   0.970  -0.520  0.00  0.00     0.025 C 
HETATM    5  C   UNK N   1       3.073   1.369  -1.406  0.00  0.00     0.008 C 
HETATM    6  C   UNK N   1       3.815   2.590  -0.842  0.00  0.00     0.000 C 
HETATM    7  C   UNK N   1       2.867   3.757  -0.582  0.00  0.00     0.000 C 
HETATM    8  C   UNK N   1       1.769   3.331   0.380  0.00  0.00     0.000 C 
HETATM    9  C   UNK N   1       0.984   2.185  -0.240  0.00  0.00     0.008 C 
ENDBRANCH   1   4
BRANCH   1  10
HETATM   10  C   UNK N   1       3.375   0.527   1.551  0.00  0.00     0.073 C 
BRANCH  10  11
HETATM   11  C   UNK N   1       4.772  -0.088   1.332  0.00  0.00     0.276 C 
BRANCH  11  12
HETATM   12  N   UNK N   1       5.313   0.141  -0.006  0.00  0.00     0.088 N 
HETATM   13  C   UNK N   1       5.679  -1.130  -0.648  0.00  0.00     0.272 C 
HETATM   14  C   UNK N   1       6.860  -1.816   0.046  0.00  0.00     0.030 C 
HETATM   15  C   UNK N   1       8.056  -0.878   0.053  0.00  0.00     0.003 C 
HETATM   16  C   UNK N   1       7.677   0.421   0.747  0.00  0.00     0.030 C 
HETATM   17  C   UNK N   1       6.466   1.051   0.051  0.00  0.00     0.272 C 
ENDBRANCH  11  12
ENDBRANCH  10  11
ENDBRANCH   1  10
BRANCH   1  18
HETATM   18  C   UNK N   1       2.180  -1.421   0.261  0.00  0.00    -0.024 A 
HETATM   19  C   UNK N   1       3.166  -2.329   0.674  0.00  0.00     0.010 A 
HETATM   20  C   UNK N   1       3.118  -3.671   0.286  0.00  0.00     0.001 A 
HETATM   21  C   UNK N   1       2.069  -4.127  -0.515  0.00  0.00     0.000 A 
HETATM   22  C   UNK N   1       1.069  -3.243  -0.921  0.00  0.00     0.001 A 
HETATM   23  C   UNK N   1       1.118  -1.902  -0.529  0.00  0.00     0.010 A 
ENDBRANCH   1  18
TORSDOF 6
