REMARK  4 active torsions:
REMARK  status: ('A' for Active; 'I' for Inactive)
REMARK    1  A    between atoms: O_1  and  C_4 
REMARK    2  A    between atoms: O_1  and  C_5 
REMARK    3  A    between atoms: N_2  and  C_3 
REMARK    4  A    between atoms: C_3  and  C_4 
ROOT
HETATM    1  C   UNK N   1       2.821  -0.817   0.019  0.00  0.00     0.080 A 
HETATM    2  C   UNK N   1       4.076  -1.497   0.005  0.00  0.00    -0.028 A 
HETATM    3  C   UNK N   1       1.639  -1.586  -0.021  0.00  0.00    -0.028 A 
HETATM    4  C   UNK N   1       4.109  -2.894  -0.025  0.00  0.00     0.009 A 
HETATM    5  C   UNK N   1       1.699  -2.981  -0.046  0.00  0.00     0.009 A 
HETATM    6  C   UNK N   1       2.929  -3.634  -0.042  0.00  0.00     0.001 A 
HETATM    7  C   UNK N   1       5.389  -0.787   0.001  0.00  0.00     0.051 C 
HETATM    8  C   UNK N   1       0.302  -0.927  -0.017  0.00  0.00     0.051 C 
ENDROOT
BRANCH   1   9
HETATM    9  O   UNK N   1       2.700   0.540   0.078  0.00  0.00    -0.348 OA
BRANCH   9  10
HETATM   10  C   UNK N   1       3.708   1.410   0.436  0.00  0.00     0.199 C 
BRANCH  10  11
HETATM   11  C   UNK N   1       3.637   2.699  -0.358  0.00  0.00     0.094 C 
HETATM   12  C   UNK N   1       2.417   3.498   0.056  0.00  0.00     0.034 C 
BRANCH  11  13
HETATM   13  N   UNK N   1       4.829   3.481  -0.085  0.00  0.00    -0.424 N 
HETATM   14  H   UNK N   1       5.724   3.030   0.107  0.00  0.00     0.150 HD
HETATM   15  H   UNK N   1       4.771   4.499  -0.085  0.00  0.00     0.150 HD
ENDBRANCH  11  13
ENDBRANCH  10  11
ENDBRANCH   9  10
ENDBRANCH   1   9
TORSDOF 4
