REMARK  3 active torsions:
REMARK  status: ('A' for Active; 'I' for Inactive)
REMARK    1  A    between atoms: N_9  and  C_16 
REMARK    2  A    between atoms: N_10  and  C_17 
REMARK       I    between atoms: N_11  and  C_20 
REMARK    3  A    between atoms: C_12  and  C_14 
ROOT
HETATM    1  N   UNK N   1       4.709  -0.791   0.000  0.00  0.00    -0.346 N 
ATOM      2  HN  UNK N   1       4.690  -1.811   0.000  1.00  0.00     0.166 HD
HETATM    3  N   UNK N   1       4.783   1.945  -0.000  0.00  0.00    -0.325 N 
ATOM      4  HN  UNK N   1       4.815   2.964  -0.000  1.00  0.00     0.169 HD
HETATM    5  N   UNK N   1       7.141   1.879  -0.000  0.00  0.00    -0.174 N 
ATOM      6  HN  UNK N   1       7.172   2.899  -0.000  1.00  0.00     0.186 HD
HETATM    7  N   UNK N   1       8.276  -0.193   0.000  0.00  0.00    -0.175 N 
ATOM      8  HN  UNK N   1       9.154  -0.713   0.000  1.00  0.00     0.186 HD
HETATM    9  N   UNK N   1       9.538   1.844  -0.000  0.00  0.00    -0.234 N 
HETATM   10  C   UNK N   1       3.534  -0.108  -0.000  0.00  0.00     0.087 A 
HETATM   11  C   UNK N   1       5.902  -0.156  -0.000  0.00  0.00     0.122 A 
HETATM   12  C   UNK N   1       5.943   1.241  -0.000  0.00  0.00     0.153 A 
HETATM   13  C   UNK N   1       3.576   1.313  -0.000  0.00  0.00     0.128 A 
HETATM   14  C   UNK N   1       7.098  -0.868   0.000  0.00  0.00     0.145 A 
HETATM   15  C   UNK N   1       8.303   1.168  -0.000  0.00  0.00     0.679 A 
HETATM   16  H   UNK N   1      10.378   1.332  -0.000  0.00  0.00     0.174 HD
HETATM   17  H   UNK N   1       9.560   2.828  -0.000  0.00  0.00     0.174 HD
ENDROOT
BRANCH  10  18
HETATM   18  C   UNK N   1       2.284  -0.905  -0.000  0.00  0.00    -0.006 A 
HETATM   19  C   UNK N   1       2.380  -2.307   0.000  0.00  0.00     0.014 A 
HETATM   20  C   UNK N   1       1.234  -3.100   0.000  0.00  0.00     0.001 A 
HETATM   21  C   UNK N   1      -0.025  -2.500   0.000  0.00  0.00     0.000 A 
HETATM   22  C   UNK N   1      -0.136  -1.107  -0.000  0.00  0.00     0.001 A 
HETATM   23  C   UNK N   1       1.013  -0.313  -0.000  0.00  0.00     0.014 A 
ENDBRANCH  10  18
BRANCH  13  24
HETATM   24  N   UNK N   1       2.399   2.091  -0.000  0.00  0.00    -0.384 N 
HETATM   25  H   UNK N   1       2.458   3.073  -0.000  0.00  0.00     0.157 HD
HETATM   26  H   UNK N   1       1.518   1.651  -0.000  0.00  0.00     0.157 HD
ENDBRANCH  13  24
BRANCH  14  27
HETATM   27  N   UNK N   1       7.093  -2.279   0.000  0.00  0.00    -0.383 N 
HETATM   28  H   UNK N   1       6.239  -2.769   0.000  0.00  0.00     0.157 HD
HETATM   29  H   UNK N   1       7.944  -2.774   0.000  0.00  0.00     0.157 HD
ENDBRANCH  14  27
TORSDOF 3
