REMARK  6 active torsions:
REMARK  status: ('A' for Active; 'I' for Inactive)
REMARK    1  A    between atoms: O_1  and  C_4 
REMARK    2  A    between atoms: N_2  and  C_11 
REMARK    3  A    between atoms: C_3  and  C_4 
REMARK    4  A    between atoms: C_4  and  C_7 
REMARK    5  A    between atoms: C_4  and  C_12 
REMARK    6  A    between atoms: C_7  and  C_11 
ROOT
HETATM    1  C   UNK N   1       2.271   0.108   0.868  0.00  0.00     0.090 C 
ENDROOT
BRANCH   1   2
HETATM    2  O   UNK N   1       1.303   0.041   1.882  0.00  0.00    -0.385 OA
HETATM    3  H   UNK N   1       0.928   0.598   2.582  0.00  0.00     0.211 HD
ENDBRANCH   1   2
BRANCH   1   4
HETATM    4  C   UNK N   1       1.753   1.155  -0.163  0.00  0.00     0.025 C 
HETATM    5  C   UNK N   1       2.621   1.468  -1.400  0.00  0.00     0.008 C 
HETATM    6  C   UNK N   1       3.607   2.618  -1.169  0.00  0.00     0.000 C 
HETATM    7  C   UNK N   1       2.911   3.844  -0.592  0.00  0.00     0.000 C 
HETATM    8  C   UNK N   1       2.226   3.480   0.716  0.00  0.00     0.000 C 
HETATM    9  C   UNK N   1       1.157   2.432   0.445  0.00  0.00     0.008 C 
ENDBRANCH   1   4
BRANCH   1  10
HETATM   10  C   UNK N   1       3.580   0.503   1.592  0.00  0.00     0.073 C 
BRANCH  10  11
HETATM   11  C   UNK N   1       4.833   0.783   0.760  0.00  0.00     0.276 C 
BRANCH  11  12
HETATM   12  N   UNK N   1       5.519  -0.431   0.349  0.00  0.00     0.088 N 
HETATM   13  C   UNK N   1       6.456  -0.055  -0.698  0.00  0.00     0.272 C 
HETATM   14  C   UNK N   1       7.703  -0.898  -0.526  0.00  0.00     0.032 C 
HETATM   15  C   UNK N   1       7.542  -1.582   0.810  0.00  0.00     0.032 C 
HETATM   16  C   UNK N   1       6.349  -0.907   1.443  0.00  0.00     0.272 C 
ENDBRANCH  11  12
ENDBRANCH  10  11
ENDBRANCH   1  10
BRANCH   1  17
HETATM   17  C   UNK N   1       2.360  -1.275   0.228  0.00  0.00    -0.024 A 
HETATM   18  C   UNK N   1       3.202  -1.521  -0.874  0.00  0.00     0.010 A 
HETATM   19  C   UNK N   1       3.268  -2.792  -1.450  0.00  0.00     0.001 A 
HETATM   20  C   UNK N   1       2.490  -3.834  -0.942  0.00  0.00     0.000 A 
HETATM   21  C   UNK N   1       1.642  -3.605   0.143  0.00  0.00     0.001 A 
HETATM   22  C   UNK N   1       1.579  -2.335   0.720  0.00  0.00     0.010 A 
ENDBRANCH   1  17
TORSDOF 6
