REMARK  7 active torsions:
REMARK  status: ('A' for Active; 'I' for Inactive)
REMARK    1  A    between atoms: S_1  and  N_8 
REMARK    2  A    between atoms: S_1  and  C_20 
REMARK    3  A    between atoms: O_3  and  C_19 
REMARK    4  A    between atoms: N_6  and  C_14 
REMARK    5  A    between atoms: N_7  and  C_13 
REMARK       I    between atoms: N_7  and  C_16 
REMARK    6  A    between atoms: C_9  and  C_13 
REMARK    7  A    between atoms: C_16  and  C_17 
ROOT
HETATM    1  C   UNK N   1       3.243  -0.415   0.215  0.00  0.00     0.066 A 
HETATM    2  C   UNK N   1       4.444  -1.153   0.261  0.00  0.00     0.045 A 
HETATM    3  C   UNK N   1       2.026  -1.117  -0.013  0.00  0.00     0.084 A 
HETATM    4  C   UNK N   1       4.451  -2.536   0.114  0.00  0.00     0.080 A 
HETATM    5  C   UNK N   1       2.048  -2.513  -0.119  0.00  0.00     0.039 A 
HETATM    6  C   UNK N   1       3.252  -3.216  -0.075  0.00  0.00     0.028 A 
ENDROOT
BRANCH   1   7
HETATM    7  C   UNK N   1       3.367   1.057   0.382  0.00  0.00     0.254 C 
HETATM    8  O   UNK N   1       2.392   1.799   0.314  0.00  0.00    -0.268 OA
HETATM    9  N   UNK N   1       4.593   1.574   0.581  0.00  0.00    -0.355 N 
HETATM   10  H   UNK N   1       5.334   0.943   0.731  0.00  0.00     0.162 HD
BRANCH   9  11
HETATM   11  C   UNK N   1       4.906   2.975   0.592  0.00  0.00     0.158 C 
BRANCH  11  12
HETATM   12  C   UNK N   1       5.846   3.264  -0.593  0.00  0.00     0.240 C 
HETATM   13  N   UNK N   1       7.189   2.668  -0.488  0.00  0.00     0.094 N 
HETATM   14  C   UNK N   1       7.934   3.563   0.382  0.00  0.00     0.273 C 
HETATM   15  C   UNK N   1       7.383   4.956   0.135  0.00  0.00     0.032 C 
HETATM   16  C   UNK N   1       6.099   4.753  -0.651  0.00  0.00     0.039 C 
BRANCH  13  17
HETATM   17  C   UNK N   1       7.227   1.300   0.028  0.00  0.00     0.268 C 
HETATM   18  C   UNK N   1       8.511   0.605  -0.380  0.00  0.00     0.037 C 
ENDBRANCH  13  17
ENDBRANCH  11  12
ENDBRANCH   9  11
ENDBRANCH   1   7
BRANCH   3  19
HETATM   19  O   UNK N   1       0.827  -0.502  -0.147  0.00  0.00    -0.355 OA
HETATM   20  C   UNK N   1       0.587   0.427  -1.133  0.00  0.00     0.210 C 
ENDBRANCH   3  19
BRANCH   4  21
HETATM   21  S   UNK N   1       5.998  -3.390  -0.146  0.00  0.00     0.256 S 
HETATM   22  O   UNK N   1       6.087  -3.207  -1.661  0.00  0.00    -0.201 OA
HETATM   23  O   UNK N   1       6.010  -4.927  -0.150  0.00  0.00    -0.201 OA
BRANCH  21  24
HETATM   24  N   UNK N   1       7.612  -2.787   0.245  0.00  0.00    -0.324 N 
HETATM   25  H   UNK N   1       8.379  -3.420   0.471  0.00  0.00     0.169 HD
HETATM   26  H   UNK N   1       7.781  -1.781   0.245  0.00  0.00     0.169 HD
ENDBRANCH  21  24
ENDBRANCH   4  21
TORSDOF 7
