REMARK  9 active torsions:
REMARK  status: ('A' for Active; 'I' for Inactive)
REMARK    1  A    between atoms: O_1  and  C_9 
REMARK    2  A    between atoms: O_1  and  C_14 
REMARK    3  A    between atoms: O_2  and  C_10 
REMARK    4  A    between atoms: O_2  and  C_16 
REMARK       I    between atoms: N_5  and  C_14 
REMARK    5  A    between atoms: N_5  and  C_15 
REMARK       I    between atoms: N_6  and  C_16 
REMARK    6  A    between atoms: C_7  and  C_8 
REMARK    7  A    between atoms: C_7  and  C_9 
REMARK    8  A    between atoms: C_7  and  C_10 
REMARK    9  A    between atoms: C_8  and  C_12 
ROOT
HETATM    1  C   UNK N   1       4.713  -0.778  -0.200  0.00  0.00     0.000 C 
HETATM    2  C   UNK N   1       4.622  -1.874  -1.243  0.00  0.00     0.019 C 
ENDROOT
BRANCH   1   3
HETATM    3  C   UNK N   1       4.446   0.562  -0.915  0.00  0.00     0.013 C 
BRANCH   3   4
HETATM    4  C   UNK N   1       4.273   1.731   0.052  0.00  0.00    -0.004 C 
HETATM    5  C   UNK N   1       3.740   2.935  -0.693  0.00  0.00     0.005 C 
ENDBRANCH   3   4
ENDBRANCH   1   3
BRANCH   1   6
HETATM    6  C   UNK N   1       6.119  -0.869   0.422  0.00  0.00     0.192 C 
BRANCH   6   7
HETATM    7  O   UNK N   1       6.668   0.375   0.645  0.00  0.00    -0.303 OA
BRANCH   7   8
HETATM    8  C   UNK N   1       7.937   0.690   0.288  0.00  0.00     0.360 C 
HETATM    9  O   UNK N   1       8.263   1.863   0.224  0.00  0.00    -0.239 OA
HETATM   10  N   UNK N   1       8.842  -0.293   0.023  0.00  0.00    -0.333 N 
HETATM   11  H   UNK N   1       8.551  -1.231   0.097  0.00  0.00     0.165 HD
BRANCH  10  12
HETATM   12  C   UNK N   1      10.211  -0.024  -0.363  0.00  0.00     0.078 C 
HETATM   13  C   UNK N   1      10.942   0.760   0.715  0.00  0.00     0.032 C 
HETATM   14  C   UNK N   1      10.933  -1.338  -0.574  0.00  0.00     0.032 C 
ENDBRANCH  10  12
ENDBRANCH   7   8
ENDBRANCH   6   7
ENDBRANCH   1   6
BRANCH   1  15
HETATM   15  C   UNK N   1       3.658  -1.065   0.878  0.00  0.00     0.192 C 
BRANCH  15  16
HETATM   16  O   UNK N   1       2.402  -0.659   0.469  0.00  0.00    -0.303 OA
BRANCH  16  17
HETATM   17  C   UNK N   1       1.385  -1.506   0.191  0.00  0.00     0.358 C 
HETATM   18  O   UNK N   1       1.546  -2.717   0.236  0.00  0.00    -0.239 OA
HETATM   19  N   UNK N   1       0.184  -1.006  -0.156  0.00  0.00    -0.346 N 
HETATM   20  H   UNK N   1       0.061  -0.062  -0.410  0.00  0.00     0.161 HD
HETATM   21  H   UNK N   1      -0.599  -1.603  -0.156  0.00  0.00     0.161 HD
ENDBRANCH  16  17
ENDBRANCH  15  16
ENDBRANCH   1  15
TORSDOF 9
