REMARK  3 active torsions:
REMARK  status: ('A' for Active; 'I' for Inactive)
REMARK    1  A    between atoms: O_3  and  C_12 
REMARK    2  A    between atoms: O_6  and  C_18 
REMARK    3  A    between atoms: O_7  and  C_21 
ROOT
HETATM    1 Cl   UNK N   1       6.688   1.939   1.771  0.00  0.00    -0.078 Cl
HETATM    2  O   UNK N   1       4.822  -0.349   0.865  0.00  0.00    -0.322 OA
HETATM    3  O   UNK N   1       2.019  -0.806  -1.096  0.00  0.00    -0.288 OA
HETATM    4  O   UNK N   1       4.111  -5.378   0.563  0.00  0.00    -0.293 OA
HETATM    5  C   UNK N   1       3.975  -1.298   0.297  0.00  0.00     0.184 A 
HETATM    6  C   UNK N   1       3.315  -2.150   1.421  0.00  0.00     0.039 C 
HETATM    7  C   UNK N   1       2.768  -3.465   0.899  0.00  0.00     0.091 C 
HETATM    8  C   UNK N   1       2.969  -0.419  -0.438  0.00  0.00     0.207 A 
HETATM    9  C   UNK N   1       4.833  -2.132  -0.654  0.00  0.00     0.092 C 
HETATM   10  C   UNK N   1       2.263  -1.403   2.230  0.00  0.00     0.014 C 
HETATM   11  C   UNK N   1       3.356   0.951  -0.233  0.00  0.00     0.082 A 
HETATM   12  C   UNK N   1       4.486   0.915   0.517  0.00  0.00     0.112 A 
HETATM   13  C   UNK N   1       3.920  -4.203   0.300  0.00  0.00     0.152 C 
HETATM   14  C   UNK N   1       4.835  -3.483  -0.599  0.00  0.00     0.086 C 
HETATM   15  C   UNK N   1       2.800   2.169  -0.654  0.00  0.00     0.087 A 
HETATM   16  C   UNK N   1       5.197   2.058   0.850  0.00  0.00     0.101 A 
HETATM   17  C   UNK N   1       3.499   3.353  -0.332  0.00  0.00     0.076 A 
HETATM   18  C   UNK N   1       4.713   3.305   0.401  0.00  0.00     0.095 A 
ENDROOT
BRANCH   9  19
HETATM   19  O   UNK N   1       5.651  -1.470  -1.517  0.00  0.00    -0.356 OA
HETATM   20  C   UNK N   1       6.611  -2.088  -2.287  0.00  0.00     0.209 C 
ENDBRANCH   9  19
BRANCH  15  21
HETATM   21  O   UNK N   1       1.631   2.186  -1.335  0.00  0.00    -0.355 OA
HETATM   22  C   UNK N   1       0.962   3.353  -1.637  0.00  0.00     0.210 C 
ENDBRANCH  15  21
BRANCH  18  23
HETATM   23  O   UNK N   1       5.422   4.425   0.674  0.00  0.00    -0.354 OA
HETATM   24  C   UNK N   1       5.079   5.670   0.196  0.00  0.00     0.210 C 
ENDBRANCH  18  23
TORSDOF 3
