REMARK  8 active torsions:
REMARK  status: ('A' for Active; 'I' for Inactive)
REMARK    1  A    between atoms: O_1  and  C_15 
REMARK    2  A    between atoms: O_1  and  C_22 
REMARK    3  A    between atoms: O_2  and  C_19 
REMARK    4  A    between atoms: N_8  and  C_16 
REMARK    5  A    between atoms: C_9  and  C_12 
REMARK    6  A    between atoms: C_10  and  C_15 
REMARK    7  A    between atoms: C_11  and  C_19 
REMARK    8  A    between atoms: C_21  and  C_22 
ROOT
HETATM    1  N   UNK N   1       5.845  -3.054  -0.171  0.00  0.00    -0.362 N 
HETATM    2  C   UNK N   1       5.998  -0.242  -0.162  0.00  0.00     0.103 A 
HETATM    3  C   UNK N   1       4.691  -0.967  -0.539  0.00  0.00     0.052 A 
HETATM    4  C   UNK N   1       7.232  -1.107   0.160  0.00  0.00     0.052 A 
HETATM    5  C   UNK N   1       4.681  -2.328  -0.522  0.00  0.00     0.018 A 
HETATM    6  C   UNK N   1       7.096  -2.458   0.122  0.00  0.00     0.018 A 
HETATM    7  C   UNK N   1       3.503  -3.136  -0.959  0.00  0.00     0.069 C 
HETATM    8  C   UNK N   1       8.232  -3.387   0.426  0.00  0.00     0.069 C 
HETATM    9  H   UNK N   1       5.781  -4.035  -0.128  0.00  0.00     0.165 HD
ENDROOT
BRANCH   2  10
HETATM   10  C   UNK N   1       5.910   1.244   0.185  0.00  0.00    -0.012 A 
HETATM   11  C   UNK N   1       6.742   2.272  -0.369  0.00  0.00     0.110 A 
HETATM   12  C   UNK N   1       6.543   3.600   0.048  0.00  0.00     0.037 A 
HETATM   13  C   UNK N   1       5.536   3.934   0.950  0.00  0.00     0.002 A 
HETATM   14  C   UNK N   1       4.722   2.940   1.480  0.00  0.00     0.001 A 
HETATM   15  C   UNK N   1       4.918   1.610   1.112  0.00  0.00     0.011 A 
BRANCH  11  16
HETATM   16  N   UNK N   1       7.786   2.019  -1.312  0.00  0.00    -0.115 N 
HETATM   17  O   UNK N   1       8.676   2.955  -1.569  0.00  0.00    -0.532 OA
HETATM   18  O   UNK N   1       7.871   0.968  -1.872  0.00  0.00    -0.532 OA
ENDBRANCH  11  16
ENDBRANCH   2  10
BRANCH   3  19
HETATM   19  C   UNK N   1       3.492  -0.153  -0.982  0.00  0.00     0.292 C 
HETATM   20  O   UNK N   1       3.692   0.924  -1.521  0.00  0.00    -0.259 OA
BRANCH  19  21
HETATM   21  O   UNK N   1       2.199  -0.545  -0.824  0.00  0.00    -0.317 OA
BRANCH  21  22
HETATM   22  C   UNK N   1       1.736  -1.300   0.232  0.00  0.00     0.183 C 
BRANCH  22  23
HETATM   23  C   UNK N   1       0.250  -1.572   0.056  0.00  0.00     0.002 C 
HETATM   24  C   UNK N   1      -0.547  -0.292   0.225  0.00  0.00     0.011 C 
HETATM   25  C   UNK N   1      -0.212  -2.586   1.082  0.00  0.00     0.011 C 
ENDBRANCH  22  23
ENDBRANCH  21  22
ENDBRANCH  19  21
ENDBRANCH   3  19
BRANCH   4  26
HETATM   26  C   UNK N   1       8.571  -0.491   0.449  0.00  0.00     0.291 C 
HETATM   27  O   UNK N   1       8.647   0.638   0.910  0.00  0.00    -0.260 OA
BRANCH  26  28
HETATM   28  O   UNK N   1       9.704  -1.157   0.108  0.00  0.00    -0.323 OA
HETATM   29  C   UNK N   1      10.941  -0.556   0.084  0.00  0.00     0.213 C 
ENDBRANCH  26  28
ENDBRANCH   4  26
TORSDOF 8
