REMARK  10 active torsions:
REMARK  status: ('A' for Active; 'I' for Inactive)
REMARK    1  A    between atoms: C_17  and  O_1 
REMARK    2  A    between atoms: C_19  and  O_2 
REMARK    3  A    between atoms: O_4  and  C_33 
REMARK    4  A    between atoms: O_5  and  C_38 
REMARK    5  A    between atoms: C_42  and  O_7 
REMARK       I    between atoms: N_10  and  C_27 
REMARK    6  A    between atoms: C_16  and  C_22 
REMARK    7  A    between atoms: C_17  and  C_27 
REMARK    8  A    between atoms: C_32  and  C_34 
REMARK    9  A    between atoms: C_34  and  C_38 
REMARK   10  A    between atoms: C_42  and  C_49 
ROOT
HETATM    1  N   UNK N   1       2.766  -2.479   0.094  0.00  0.00     0.098 N 
HETATM    2  N   UNK N   1       7.366  -2.593  -0.698  0.00  0.00    -0.375 N 
HETATM    3  C   UNK N   1       5.136  -2.665   0.220  0.00  0.00     0.047 C 
HETATM    4  C   UNK N   1       3.899  -3.282  -0.435  0.00  0.00     0.253 C 
HETATM    5  C   UNK N   1       6.494  -3.469   0.073  0.00  0.00     0.146 C 
HETATM    6  C   UNK N   1       3.760  -4.845  -0.146  0.00  0.00     0.038 C 
HETATM    7  C   UNK N   1       6.311  -4.856  -0.589  0.00  0.00     0.186 C 
HETATM    8  C   UNK N   1       4.642  -2.463   1.639  0.00  0.00     0.049 C 
HETATM    9  C   UNK N   1       5.129  -5.550   0.112  0.00  0.00     0.178 C 
HETATM   10  C   UNK N   1       5.527  -1.339  -0.366  0.00  0.00    -0.018 C 
HETATM   11  C   UNK N   1       3.191  -2.009   1.428  0.00  0.00     0.274 C 
HETATM   12  C   UNK N   1       6.760  -1.367  -0.899  0.00  0.00     0.040 C 
HETATM   13  C   UNK N   1       2.806  -5.130   1.002  0.00  0.00    -0.015 C 
HETATM   14  C   UNK N   1       1.508  -3.233   0.214  0.00  0.00     0.300 C 
HETATM   15  C   UNK N   1       1.697  -4.402   1.137  0.00  0.00    -0.000 C 
HETATM   16  C   UNK N   1       4.887  -0.150  -0.153  0.00  0.00     0.022 C 
HETATM   17  C   UNK N   1       8.790  -2.773  -0.830  0.00  0.00     0.150 C 
HETATM   18  C   UNK N   1       7.368  -0.230  -1.400  0.00  0.00     0.067 C 
HETATM   19  C   UNK N   1       5.523   1.073  -0.433  0.00  0.00     0.000 C 
HETATM   20  C   UNK N   1       6.752   1.021  -1.199  0.00  0.00     0.078 C 
ENDROOT
BRANCH  19  21
HETATM   21  C   UNK N   1       4.936   2.251   0.413  0.00  0.00     0.121 C 
HETATM   22  C   UNK N   1       5.723   3.474   0.904  0.00  0.00     0.038 C 
HETATM   23  C   UNK N   1       6.890   4.044   0.180  0.00  0.00     0.018 C 
HETATM   24  C   UNK N   1       7.478   5.173   1.023  0.00  0.00     0.046 C 
HETATM   25  C   UNK N   1       6.403   4.544  -1.196  0.00  0.00     0.277 C 
HETATM   26  C   UNK N   1       8.012   6.280   0.127  0.00  0.00     0.084 C 
HETATM   27  C   UNK N   1       6.781   6.875  -0.606  0.00  0.00     0.310 C 
HETATM   28  N   UNK N   1       5.802   5.876  -1.098  0.00  0.00     0.092 N 
HETATM   29  C   UNK N   1       4.604   5.822  -0.243  0.00  0.00     0.277 C 
HETATM   30  C   UNK N   1       3.499   5.084  -0.994  0.00  0.00     0.072 C 
HETATM   31  C   UNK N   1       2.907   3.791  -0.456  0.00  0.00    -0.020 A 
HETATM   32  C   UNK N   1       3.489   2.596   0.042  0.00  0.00     0.040 A 
HETATM   33  C   UNK N   1       1.539   3.552  -0.459  0.00  0.00    -0.001 A 
HETATM   34  N   UNK N   1       2.505   1.678   0.269  0.00  0.00    -0.357 N 
HETATM   35  C   UNK N   1       1.352   2.269  -0.027  0.00  0.00     0.043 A 
HETATM   36  H   UNK N   1       2.626   0.755   0.589  0.00  0.00     0.166 HD
HETATM   37  C   UNK N   1       0.082   1.700   0.081  0.00  0.00     0.030 A 
HETATM   38  C   UNK N   1      -1.023   2.495  -0.260  0.00  0.00     0.002 A 
HETATM   39  C   UNK N   1      -0.834   3.824  -0.702  0.00  0.00     0.001 A 
HETATM   40  C   UNK N   1       0.465   4.363  -0.814  0.00  0.00     0.014 A 
BRANCH  26  41
HETATM   41  O   UNK N   1       8.598   7.270   0.913  0.00  0.00    -0.388 OA
HETATM   42  H   UNK N   1       9.399   7.262   1.460  0.00  0.00     0.210 HD
ENDBRANCH  26  41
BRANCH  26  43
HETATM   43  C   UNK N   1       9.063   5.753  -0.873  0.00  0.00     0.035 C 
HETATM   44  C   UNK N   1      10.217   5.029  -0.187  0.00  0.00     0.008 C 
ENDBRANCH  26  43
BRANCH  21  45
HETATM   45  C   UNK N   1       4.937   1.619   1.831  0.00  0.00     0.278 C 
HETATM   46  O   UNK N   1       3.903   1.484   2.478  0.00  0.00    -0.264 OA
BRANCH  45  47
HETATM   47  O   UNK N   1       6.107   1.120   2.317  0.00  0.00    -0.325 OA
HETATM   48  C   UNK N   1       6.174   0.350   3.454  0.00  0.00     0.213 C 
ENDBRANCH  45  47
ENDBRANCH  21  45
ENDBRANCH  19  21
BRANCH  20  49
HETATM   49  O   UNK N   1       7.375   2.120  -1.668  0.00  0.00    -0.355 OA
HETATM   50  C   UNK N   1       8.618   2.105  -2.271  0.00  0.00     0.210 C 
ENDBRANCH  20  49
BRANCH   6  51
HETATM   51  C   UNK N   1       3.130  -5.474  -1.406  0.00  0.00     0.014 C 
HETATM   52  C   UNK N   1       2.978  -6.990  -1.316  0.00  0.00     0.006 C 
ENDBRANCH   6  51
BRANCH   7  53
HETATM   53  O   UNK N   1       6.023  -4.687  -1.949  0.00  0.00    -0.376 OA
HETATM   54  H   UNK N   1       6.025  -4.456  -2.891  0.00  0.00     0.211 HD
ENDBRANCH   7  53
BRANCH   7  55
HETATM   55  C   UNK N   1       7.536  -5.746  -0.472  0.00  0.00     0.255 C 
HETATM   56  O   UNK N   1       7.532  -6.843  -1.006  0.00  0.00    -0.270 OA
HETATM   57  N   UNK N   1       8.617  -5.370   0.243  0.00  0.00    -0.367 N 
HETATM   58  H   UNK N   1       9.249  -5.915   0.764  0.00  0.00     0.159 HD
HETATM   59  H   UNK N   1       8.801  -4.402   0.243  0.00  0.00     0.159 HD
ENDBRANCH   7  55
BRANCH   9  60
HETATM   60  O   UNK N   1       5.406  -5.646   1.485  0.00  0.00    -0.391 OA
HETATM   61  H   UNK N   1       5.444  -5.844   2.434  0.00  0.00     0.210 HD
ENDBRANCH   9  60
TORSDOF 10
