REMARK  6 active torsions:
REMARK  status: ('A' for Active; 'I' for Inactive)
REMARK    1  A    between atoms: O_3  and  C_16 
REMARK    2  A    between atoms: O_6  and  C_18 
REMARK    3  A    between atoms: O_6  and  C_19 
REMARK    4  A    between atoms: C_12  and  N_8 
REMARK       I    between atoms: N_8  and  C_17 
REMARK    5  A    between atoms: C_11  and  C_16 
REMARK    6  A    between atoms: C_17  and  C_18 
ROOT
HETATM    1  S   UNK N   1       8.905   0.906   0.876  0.00  0.00    -0.135 SA
HETATM    2  O   UNK N   1       6.506  -1.704  -1.708  0.00  0.00    -0.277 OA
HETATM    3  N   UNK N   1       8.236  -0.286  -1.324  0.00  0.00    -0.219 NA
HETATM    4  C   UNK N   1       7.965   0.959  -0.692  0.00  0.00     0.160 A 
HETATM    5  C   UNK N   1      10.142  -0.157   0.025  0.00  0.00     0.029 C 
HETATM    6  C   UNK N   1       9.330  -1.127  -0.865  0.00  0.00     0.182 C 
HETATM    7  C   UNK N   1       6.392   0.565  -0.744  0.00  0.00     0.199 A 
HETATM    8  C   UNK N   1       6.978  -0.605  -1.448  0.00  0.00     0.227 A 
HETATM    9  C   UNK N   1      11.061  -0.833   1.033  0.00  0.00     0.029 C 
HETATM   10  C   UNK N   1      11.013   0.725  -0.856  0.00  0.00     0.029 C 
ENDROOT
BRANCH   7  11
HETATM   11  N   UNK N   1       5.945   0.099   0.550  0.00  0.00    -0.344 N 
HETATM   12  C   UNK N   1       4.651  -0.207   0.809  0.00  0.00     0.242 C 
HETATM   13  O   UNK N   1       4.345  -0.636   1.908  0.00  0.00    -0.271 OA
HETATM   14  H   UNK N   1       6.607   0.001   1.272  0.00  0.00     0.163 HD
BRANCH  12  15
HETATM   15  C   UNK N   1       3.586  -0.018  -0.225  0.00  0.00     0.278 C 
BRANCH  15  16
HETATM   16  O   UNK N   1       3.509   1.321  -0.530  0.00  0.00    -0.342 OA
BRANCH  16  17
HETATM   17  C   UNK N   1       2.432   2.084  -0.242  0.00  0.00     0.069 A 
HETATM   18  C   UNK N   1       1.236   1.519   0.238  0.00  0.00     0.037 A 
HETATM   19  C   UNK N   1       0.147   2.339   0.543  0.00  0.00     0.003 A 
HETATM   20  C   UNK N   1       0.246   3.723   0.378  0.00  0.00     0.000 A 
HETATM   21  C   UNK N   1       1.433   4.288  -0.098  0.00  0.00     0.003 A 
HETATM   22  C   UNK N   1       2.521   3.469  -0.410  0.00  0.00     0.037 A 
ENDBRANCH  16  17
ENDBRANCH  15  16
ENDBRANCH  12  15
ENDBRANCH   7  11
BRANCH   6  23
HETATM   23  C   UNK N   1       8.889  -2.357  -0.063  0.00  0.00     0.160 C 
HETATM   24  O   UNK N   1       9.698  -3.243   0.158  0.00  0.00    -0.649 OA
BRANCH  23  25
HETATM   25  O   UNK N   1       7.666  -2.440   0.499  0.00  0.00    -0.775 OA
HETATM   26  H   UNK N   1       7.192  -1.733   0.890  0.00  0.00     0.167 HD
ENDBRANCH  23  25
ENDBRANCH   6  23
TORSDOF 6
