REMARK  8 active torsions:
REMARK  status: ('A' for Active; 'I' for Inactive)
REMARK    1  A    between atoms: C_7  and  O_1 
REMARK    2  A    between atoms: C_8  and  O_2 
REMARK    3  A    between atoms: C_9  and  O_3 
REMARK    4  A    between atoms: O_4  and  C_12 
REMARK    5  A    between atoms: N_5  and  C_11 
REMARK    6  A    between atoms: C_6  and  C_12 
REMARK    7  A    between atoms: C_11  and  C_13 
REMARK    8  A    between atoms: C_13  and  C_14 
ROOT
HETATM    1  N   UNK N   1       3.268   0.242  -0.218  0.00  0.00     0.100 N 
HETATM    2  C   UNK N   1       4.467  -0.495   0.237  0.00  0.00     0.277 C 
HETATM    3  C   UNK N   1       4.402  -1.963  -0.215  0.00  0.00     0.184 C 
HETATM    4  C   UNK N   1       3.115  -2.622   0.272  0.00  0.00     0.179 C 
HETATM    5  C   UNK N   1       1.922  -1.815  -0.217  0.00  0.00     0.177 C 
HETATM    6  C   UNK N   1       2.055  -0.395   0.308  0.00  0.00     0.307 C 
ENDROOT
BRANCH   1   7
HETATM    7  C   UNK N   1       3.285   1.589   0.337  0.00  0.00     0.273 C 
BRANCH   7   8
HETATM    8  C   UNK N   1       2.438   2.523  -0.511  0.00  0.00     0.030 C 
BRANCH   8   9
HETATM    9  C   UNK N   1       2.927   3.945  -0.335  0.00  0.00    -0.003 C 
HETATM   10  C   UNK N   1       1.871   4.776   0.362  0.00  0.00     0.005 C 
ENDBRANCH   8   9
ENDBRANCH   7   8
ENDBRANCH   1   7
BRANCH   2  11
HETATM   11  C   UNK N   1       5.745   0.110  -0.358  0.00  0.00     0.202 C 
BRANCH  11  12
HETATM   12  O   UNK N   1       6.080   1.306   0.277  0.00  0.00    -0.399 OA
HETATM   13  H   UNK N   1       6.916   1.520   0.719  0.00  0.00     0.209 HD
ENDBRANCH  11  12
ENDBRANCH   2  11
BRANCH   3  14
HETATM   14  O   UNK N   1       5.500  -2.669   0.284  0.00  0.00    -0.391 OA
HETATM   15  H   UNK N   1       5.457  -3.574   0.630  0.00  0.00     0.210 HD
ENDBRANCH   3  14
BRANCH   5  16
HETATM   16  O   UNK N   1       0.739  -2.377   0.267  0.00  0.00    -0.391 OA
HETATM   17  H   UNK N   1      -0.010  -1.860   0.604  0.00  0.00     0.210 HD
ENDBRANCH   5  16
BRANCH   4  18
HETATM   18  O   UNK N   1       3.037  -3.927  -0.214  0.00  0.00    -0.390 OA
HETATM   19  H   UNK N   1       2.224  -4.335  -0.552  0.00  0.00     0.210 HD
ENDBRANCH   4  18
TORSDOF 8
