REMARK  2 active torsions:
REMARK  status: ('A' for Active; 'I' for Inactive)
REMARK    1  A    between atoms: S_1  and  C_16 
REMARK    2  A    between atoms: S_1  and  C_28 
ROOT
HETATM    1  O   UNK N   1       6.370  -4.594   0.693  0.00  0.00    -0.309 OA
HETATM    2  O   UNK N   1       7.919  -5.985  -0.122  0.00  0.00    -0.265 OA
HETATM    3  O   UNK N   1       5.763   5.857   0.443  0.00  0.00    -0.293 OA
HETATM    4  C   UNK N   1       5.655  -2.326   0.362  0.00  0.00    -0.008 C 
HETATM    5  C   UNK N   1       4.279  -1.699   0.163  0.00  0.00     0.002 C 
HETATM    6  C   UNK N   1       4.314  -0.150   0.347  0.00  0.00     0.010 C 
HETATM    7  C   UNK N   1       5.330  -3.817   0.250  0.00  0.00     0.079 C 
HETATM    8  C   UNK N   1       5.360   0.419  -0.658  0.00  0.00     0.004 C 
HETATM    9  C   UNK N   1       6.631  -1.809  -0.691  0.00  0.00     0.013 C 
HETATM   10  C   UNK N   1       3.401  -2.551   1.084  0.00  0.00     0.009 C 
HETATM   11  C   UNK N   1       5.579   1.944  -0.483  0.00  0.00    -0.016 C 
HETATM   12  C   UNK N   1       6.734  -0.292  -0.592  0.00  0.00     0.007 C 
HETATM   13  C   UNK N   1       4.049  -3.956   1.080  0.00  0.00     0.040 C 
HETATM   14  C   UNK N   1       2.937   0.500   0.016  0.00  0.00     0.064 C 
HETATM   15  C   UNK N   1       6.215  -2.023   1.768  0.00  0.00     0.019 C 
HETATM   16  C   UNK N   1       5.063  -4.277  -1.207  0.00  0.00     0.049 C 
HETATM   17  C   UNK N   1       4.293   2.702  -0.167  0.00  0.00    -0.067 C 
HETATM   18  C   UNK N   1       2.956   2.033  -0.015  0.00  0.00     0.051 C 
HETATM   19  C   UNK N   1       6.560   2.283   0.660  0.00  0.00     0.022 C 
HETATM   20  C   UNK N   1       6.178   2.459  -1.799  0.00  0.00     0.020 C 
HETATM   21  C   UNK N   1       6.248  -5.163  -1.594  0.00  0.00     0.114 C 
HETATM   22  C   UNK N   1       6.916  -5.313  -0.288  0.00  0.00     0.259 C 
HETATM   23  C   UNK N   1       6.897   3.790   0.667  0.00  0.00     0.084 C 
HETATM   24  C   UNK N   1       4.364   3.998   0.181  0.00  0.00     0.053 C 
HETATM   25  C   UNK N   1       5.677   4.641   0.399  0.00  0.00     0.149 C 
ENDROOT
BRANCH  14  26
HETATM   26  S   UNK N   1       1.667   0.020   1.248  0.00  0.00    -0.087 SA
BRANCH  26  27
HETATM   27  C   UNK N   1       0.288   0.036   0.102  0.00  0.00     0.182 C 
HETATM   28  O   UNK N   1      -0.344   1.064  -0.077  0.00  0.00    -0.286 OA
HETATM   29  C   UNK N   1      -0.103  -1.213  -0.608  0.00  0.00     0.104 C 
ENDBRANCH  26  27
ENDBRANCH  14  26
TORSDOF 2
