REMARK  9 active torsions:
REMARK  status: ('A' for Active; 'I' for Inactive)
REMARK    1  A    between atoms: O_1  and  C_16 
REMARK    2  A    between atoms: O_1  and  C_22 
REMARK    3  A    between atoms: O_2  and  C_17 
REMARK    4  A    between atoms: O_2  and  C_23 
REMARK    5  A    between atoms: N_5  and  C_15 
REMARK       I    between atoms: N_12  and  C_24 
REMARK    6  A    between atoms: C_13  and  C_14 
REMARK    7  A    between atoms: C_13  and  C_16 
REMARK    8  A    between atoms: C_13  and  C_17 
REMARK    9  A    between atoms: C_14  and  C_15 
ROOT
HETATM    1  N   UNK N   1       4.660  -2.068  -0.052  0.00  0.00    -0.327 N 
HETATM    2  N   UNK N   1       4.548  -4.310   0.054  0.00  0.00    -0.348 N 
ATOM      3  HN  UNK N   1       4.810  -5.295   0.099  1.00  0.00     0.167 HD
HETATM    4  N   UNK N   1       2.286  -1.651  -0.064  0.00  0.00    -0.174 N 
ATOM      5  HN  UNK N   1       2.373  -0.636  -0.110  1.00  0.00     0.186 HD
HETATM    6  N   UNK N   1       0.961  -3.625   0.028  0.00  0.00    -0.200 N 
ATOM      7  HN  UNK N   1       0.038  -4.059   0.049  1.00  0.00     0.183 HD
HETATM    8  N   UNK N   1      -0.108  -1.466  -0.053  0.00  0.00    -0.234 N 
HETATM    9  C   UNK N   1       3.381  -2.444  -0.033  0.00  0.00     0.152 A 
HETATM   10  C   UNK N   1       5.373  -3.224   0.004  0.00  0.00     0.185 A 
HETATM   11  C   UNK N   1       3.308  -3.786   0.029  0.00  0.00     0.094 A 
HETATM   12  C   UNK N   1       2.076  -4.417   0.059  0.00  0.00     0.139 A 
HETATM   13  C   UNK N   1       1.059  -2.254  -0.030  0.00  0.00     0.677 A 
HETATM   14  H   UNK N   1      -0.039  -0.484  -0.068  0.00  0.00     0.174 HD
HETATM   15  H   UNK N   1      -0.993  -1.897  -0.053  0.00  0.00     0.174 HD
ENDROOT
BRANCH   1  16
HETATM   16  C   UNK N   1       5.130  -0.690  -0.131  0.00  0.00     0.132 C 
BRANCH  16  17
HETATM   17  C   UNK N   1       6.634  -0.561   0.048  0.00  0.00     0.029 C 
BRANCH  17  18
HETATM   18  C   UNK N   1       7.124   0.853  -0.263  0.00  0.00     0.036 C 
BRANCH  18  19
HETATM   19  C   UNK N   1       6.459   1.905   0.632  0.00  0.00     0.185 C 
BRANCH  19  20
HETATM   20  O   UNK N   1       5.137   2.082   0.283  0.00  0.00    -0.321 OA
BRANCH  20  21
HETATM   21  C   UNK N   1       4.592   3.292   0.008  0.00  0.00     0.254 C 
HETATM   22  O   UNK N   1       3.411   3.362  -0.292  0.00  0.00    -0.266 OA
HETATM   23  C   UNK N   1       5.399   4.551   0.081  0.00  0.00     0.126 C 
ENDBRANCH  20  21
ENDBRANCH  19  20
ENDBRANCH  18  19
BRANCH  18  24
HETATM   24  C   UNK N   1       8.628   0.858  -0.043  0.00  0.00     0.185 C 
BRANCH  24  25
HETATM   25  O   UNK N   1       9.150   2.120  -0.216  0.00  0.00    -0.321 OA
BRANCH  25  26
HETATM   26  C   UNK N   1      10.470   2.380  -0.061  0.00  0.00     0.254 C 
HETATM   27  O   UNK N   1      11.266   1.480   0.160  0.00  0.00    -0.266 OA
HETATM   28  C   UNK N   1      10.955   3.785  -0.148  0.00  0.00     0.126 C 
ENDBRANCH  25  26
ENDBRANCH  24  25
ENDBRANCH  18  24
ENDBRANCH  17  18
ENDBRANCH  16  17
ENDBRANCH   1  16
TORSDOF 9
