REMARK  4 active torsions:
REMARK  status: ('A' for Active; 'I' for Inactive)
REMARK    1  A    between atoms: N_3  and  C_8 
REMARK    2  A    between atoms: N_5  and  C_12 
REMARK    3  A    between atoms: C_8  and  C_11 
REMARK    4  A    between atoms: C_11  and  C_12 
ROOT
HETATM    1 Cl   UNK N   1      10.598  -0.966  -0.047  0.00  0.00    -0.084 Cl
HETATM    2  S   UNK N   1       5.410  -4.587   0.137  0.00  0.00    -0.086 SA
HETATM    3  N   UNK N   1       5.434  -1.385  -0.170  0.00  0.00    -0.345 N 
HETATM    4  C   UNK N   1       6.693  -2.068  -0.055  0.00  0.00     0.053 A 
HETATM    5  C   UNK N   1       4.162  -2.056  -0.111  0.00  0.00     0.052 A 
HETATM    6  C   UNK N   1       6.798  -3.473   0.082  0.00  0.00     0.032 A 
HETATM    7  C   UNK N   1       4.036  -3.457   0.036  0.00  0.00     0.032 A 
HETATM    8  C   UNK N   1       7.888  -1.316  -0.094  0.00  0.00     0.054 A 
HETATM    9  C   UNK N   1       2.977  -1.296  -0.206  0.00  0.00     0.031 A 
HETATM   10  C   UNK N   1       8.061  -4.073   0.164  0.00  0.00     0.023 A 
HETATM   11  C   UNK N   1       2.764  -4.041   0.089  0.00  0.00     0.021 A 
HETATM   12  C   UNK N   1       9.138  -1.929  -0.003  0.00  0.00     0.036 A 
HETATM   13  C   UNK N   1       1.718  -1.888  -0.146  0.00  0.00     0.002 A 
HETATM   14  C   UNK N   1       9.224  -3.311   0.123  0.00  0.00     0.025 A 
HETATM   15  C   UNK N   1       1.611  -3.265   0.003  0.00  0.00     0.002 A 
ENDROOT
BRANCH   3  16
HETATM   16  C   UNK N   1       5.465   0.045  -0.474  0.00  0.00     0.131 C 
BRANCH  16  17
HETATM   17  C   UNK N   1       4.745   0.906   0.557  0.00  0.00     0.050 C 
BRANCH  17  18
HETATM   18  C   UNK N   1       4.387   2.222  -0.121  0.00  0.00     0.274 C 
BRANCH  18  19
HETATM   19  N   UNK N   1       3.132   2.771   0.378  0.00  0.00     0.091 N 
HETATM   20  C   UNK N   1       2.030   2.019  -0.233  0.00  0.00     0.302 C 
HETATM   21  C   UNK N   1       0.690   2.654   0.143  0.00  0.00     0.302 C 
HETATM   22  N   UNK N   1       0.646   4.031  -0.344  0.00  0.00     0.087 N 
HETATM   23  C   UNK N   1       1.733   4.787   0.274  0.00  0.00     0.302 C 
HETATM   24  C   UNK N   1      -0.602   4.615   0.112  0.00  0.00     0.310 C 
HETATM   25  C   UNK N   1       3.075   4.155  -0.095  0.00  0.00     0.302 C 
ENDBRANCH  18  19
ENDBRANCH  17  18
ENDBRANCH  16  17
ENDBRANCH   3  16
TORSDOF 4
