REMARK  0 active torsions:
REMARK  status: ('A' for Active; 'I' for Inactive)
ROOT
HETATM    1  N   UNK N   1       3.712  -3.443  -0.660  0.00  0.00     0.084 N 
HETATM    2  C   UNK N   1       3.777  -0.725   0.320  0.00  0.00    -0.065 C 
HETATM    3  C   UNK N   1       4.985  -1.608   0.449  0.00  0.00     0.065 C 
HETATM    4  C   UNK N   1       2.535  -1.553   0.485  0.00  0.00     0.065 C 
HETATM    5  C   UNK N   1       4.950  -2.650  -0.671  0.00  0.00     0.276 C 
HETATM    6  C   UNK N   1       2.503  -2.605  -0.632  0.00  0.00     0.276 C 
HETATM    7  C   UNK N   1       3.810   0.671   0.091  0.00  0.00    -0.011 C 
HETATM    8  C   UNK N   1       5.193   1.355  -0.105  0.00  0.00    -0.015 A 
HETATM    9  C   UNK N   1       2.463   1.444   0.002  0.00  0.00    -0.015 A 
HETATM   10  C   UNK N   1       3.716  -4.364   0.467  0.00  0.00     0.309 C 
HETATM   11  C   UNK N   1       5.487   2.754  -0.081  0.00  0.00    -0.025 A 
HETATM   12  C   UNK N   1       2.268   2.861   0.048  0.00  0.00    -0.025 A 
HETATM   13  C   UNK N   1       6.304   0.517  -0.364  0.00  0.00     0.013 A 
HETATM   14  C   UNK N   1       1.278   0.683  -0.145  0.00  0.00     0.013 A 
HETATM   15  C   UNK N   1       4.575   3.848   0.160  0.00  0.00     0.013 C 
HETATM   16  C   UNK N   1       3.268   3.891   0.211  0.00  0.00     0.013 C 
HETATM   17  C   UNK N   1       6.805   3.202  -0.276  0.00  0.00     0.012 A 
HETATM   18  C   UNK N   1       0.972   3.399  -0.031  0.00  0.00     0.012 A 
HETATM   19  C   UNK N   1       7.600   0.975  -0.562  0.00  0.00     0.001 A 
HETATM   20  C   UNK N   1       0.004   1.232  -0.227  0.00  0.00     0.001 A 
HETATM   21  C   UNK N   1       7.853   2.329  -0.515  0.00  0.00     0.001 A 
HETATM   22  C   UNK N   1      -0.150   2.600  -0.168  0.00  0.00     0.001 A 
ENDROOT
TORSDOF 0
