REMARK  5 active torsions:
REMARK  status: ('A' for Active; 'I' for Inactive)
REMARK    1  A    between atoms: S_2  and  N_12 
REMARK    2  A    between atoms: S_2  and  C_19 
REMARK    3  A    between atoms: C_13  and  C_16 
REMARK    4  A    between atoms: C_16  and  C_21 
REMARK    5  A    between atoms: C_20  and  C_22 
ROOT
HETATM    1  S   UNK N   1       2.900  -2.788   0.032  0.00  0.00     0.262 S 
HETATM    2  O   UNK N   1       3.104  -3.379  -1.366  0.00  0.00    -0.200 OA
HETATM    3  O   UNK N   1       2.471  -4.021   0.845  0.00  0.00    -0.200 OA
HETATM    4  N   UNK N   1       1.503  -1.769  -0.263  0.00  0.00    -0.293 N 
HETATM    5  N   UNK N   1       2.888   0.121   0.584  0.00  0.00    -0.367 N 
HETATM    6  C   UNK N   1       1.554  -0.490   0.460  0.00  0.00     0.196 C 
HETATM    7  C   UNK N   1       4.339  -1.834   0.318  0.00  0.00     0.107 A 
HETATM    8  C   UNK N   1       4.169  -0.467   0.487  0.00  0.00     0.054 A 
HETATM    9  C   UNK N   1       5.594  -2.377   0.096  0.00  0.00     0.053 A 
HETATM   10  C   UNK N   1       5.297   0.364   0.462  0.00  0.00     0.048 A 
HETATM   11  C   UNK N   1       6.724  -1.557   0.040  0.00  0.00     0.096 A 
HETATM   12  C   UNK N   1       6.576  -0.156   0.220  0.00  0.00     0.073 A 
HETATM   13  H   UNK N   1       0.732  -2.037  -0.875  0.00  0.00     0.174 HD
HETATM   14  H   UNK N   1       2.887   1.089   0.761  0.00  0.00     0.161 HD
ENDROOT
BRANCH   6  15
HETATM   15  C   UNK N   1       0.639   0.466  -0.311  0.00  0.00     0.086 C 
BRANCH  15  16
HETATM   16  C   UNK N   1       0.890   1.897   0.031  0.00  0.00    -0.054 A 
HETATM   17  C   UNK N   1       0.362   2.455   1.199  0.00  0.00     0.007 A 
HETATM   18  C   UNK N   1       0.669   3.776   1.537  0.00  0.00     0.001 A 
HETATM   19  C   UNK N   1       1.514   4.532   0.718  0.00  0.00     0.000 A 
HETATM   20  C   UNK N   1       2.045   3.972  -0.448  0.00  0.00     0.001 A 
HETATM   21  C   UNK N   1       1.732   2.655  -0.791  0.00  0.00     0.007 A 
ENDBRANCH  15  16
ENDBRANCH   6  15
BRANCH  12  22
HETATM   22  C   UNK N   1       7.737   0.802   0.085  0.00  0.00     0.419 C 
HETATM   23  F   UNK N   1       8.675   0.549   1.066  0.00  0.00    -0.166 F 
HETATM   24  F   UNK N   1       7.313   2.115   0.217  0.00  0.00    -0.166 F 
HETATM   25  F   UNK N   1       8.317   0.665  -1.164  0.00  0.00    -0.166 F 
ENDBRANCH  12  22
BRANCH  11  26
HETATM   26  S   UNK N   1       8.257  -2.330  -0.486  0.00  0.00     0.257 S 
HETATM   27  O   UNK N   1       8.270  -2.420  -2.019  0.00  0.00    -0.201 OA
HETATM   28  O   UNK N   1       8.336  -3.818  -0.110  0.00  0.00    -0.201 OA
BRANCH  26  29
HETATM   29  N   UNK N   1       9.840  -1.663  -0.084  0.00  0.00    -0.324 N 
HETATM   30  H   UNK N   1      10.632  -2.262   0.149  0.00  0.00     0.169 HD
HETATM   31  H   UNK N   1       9.966  -0.651  -0.084  0.00  0.00     0.169 HD
ENDBRANCH  26  29
ENDBRANCH  11  26
TORSDOF 5
