REMARK  0 active torsions:
REMARK  status: ('A' for Active; 'I' for Inactive)
ROOT
HETATM    1  O   UNK N   1       2.092   2.360   0.000  0.00  0.00    -0.267 OA
HETATM    2  N   UNK N   1       4.426  -1.449   0.000  0.00  0.00    -0.285 N 
HETATM    3  N   UNK N   1       5.274  -0.421   0.000  0.00  0.00    -0.309 N 
HETATM    4  N   UNK N   1       2.022  -1.630  -0.000  0.00  0.00    -0.337 N 
ATOM      5  HN  UNK N   1       2.015  -2.650  -0.000  1.00  0.00     0.168 HD
HETATM    6  N   UNK N   1       0.875   0.457  -0.000  0.00  0.00    -0.319 N 
ATOM      7  HN  UNK N   1      -0.003   0.975  -0.000  1.00  0.00     0.169 HD
HETATM    8  C   UNK N   1       3.238   0.407  -0.000  0.00  0.00     0.094 A 
HETATM    9  C   UNK N   1       3.189  -0.941  -0.000  0.00  0.00     0.138 A 
HETATM   10  C   UNK N   1       4.572   0.741   0.000  0.00  0.00     0.128 A 
HETATM   11  C   UNK N   1       2.071   1.143  -0.000  0.00  0.00     0.261 A 
HETATM   12  C   UNK N   1       0.854  -0.917  -0.000  0.00  0.00     0.185 A 
HETATM   13  H   UNK N   1       4.665  -2.404   0.000  0.00  0.00     0.188 HD
HETATM   14  H   UNK N   1       6.256  -0.494   0.000  0.00  0.00     0.186 HD
ENDROOT
TORSDOF 0
