REMARK  11 active torsions:
REMARK  status: ('A' for Active; 'I' for Inactive)
REMARK    1  A    between atoms: O_7  and  N_13 
REMARK    2  A    between atoms: O_7  and  C_34 
REMARK    3  A    between atoms: O_8  and  C_38 
REMARK    4  A    between atoms: C_19  and  N_11 
REMARK       I    between atoms: N_11  and  C_26 
REMARK    5  A    between atoms: N_12  and  C_24 
REMARK    6  A    between atoms: N_17  and  C_39 
REMARK    7  A    between atoms: C_21  and  C_25 
REMARK    8  A    between atoms: C_22  and  C_24 
REMARK    9  A    between atoms: C_26  and  C_27 
REMARK   10  A    between atoms: C_27  and  C_30 
REMARK   11  A    between atoms: C_34  and  C_38 
ROOT
HETATM    1  O   UNK N   1       9.909   1.936  -0.264  0.00  0.00    -0.266 OA
HETATM    2  N   UNK N   1       8.104   0.629  -0.218  0.00  0.00    -0.340 N 
HETATM    3  C   UNK N   1       9.440   0.828  -0.052  0.00  0.00     0.273 C 
HETATM    4  H   UNK N   1       7.664  -0.161   0.170  0.00  0.00     0.163 HD
ENDROOT
BRANCH   3   5
HETATM    5  C   UNK N   1      10.372  -0.324   0.215  0.00  0.00     0.149 C 
HETATM    6  N   UNK N   1       9.934  -1.531   0.381  0.00  0.00    -0.258 N 
ATOM      7  HN  UNK N   1      10.602  -2.288   0.525  1.00  0.00     0.194 HD
BRANCH   6   8
HETATM    8  O   UNK N   1       8.640  -1.806   0.369  0.00  0.00    -0.258 OA
BRANCH   8   9
HETATM    9  C   UNK N   1       8.100  -3.009   0.789  0.00  0.00     0.166 C 
HETATM   10  C   UNK N   1       7.188  -2.718   1.966  0.00  0.00     0.060 C 
HETATM   11  C   UNK N   1       9.170  -3.996   1.257  0.00  0.00     0.060 C 
BRANCH   9  12
HETATM   12  C   UNK N   1       7.272  -3.600  -0.329  0.00  0.00     0.178 C 
HETATM   13  O   UNK N   1       6.364  -2.949  -0.823  0.00  0.00    -0.648 OA
BRANCH  12  14
HETATM   14  O   UNK N   1       7.513  -4.847  -0.783  0.00  0.00    -0.774 OA
HETATM   15  H   UNK N   1       6.846  -5.425  -1.099  0.00  0.00     0.167 HD
ENDBRANCH  12  14
ENDBRANCH   9  12
ENDBRANCH   8   9
ENDBRANCH   6   8
BRANCH   5  16
HETATM   16  C   UNK N   1      11.846  -0.093   0.155  0.00  0.00     0.075 A 
HETATM   17  N   UNK N   1      12.385   1.178   0.067  0.00  0.00    -0.335 N 
HETATM   18  C   UNK N   1      13.730   1.156  -0.033  0.00  0.00     0.142 A 
ATOM     19  HN  UNK N   1      11.828   2.033   0.076  1.00  0.00     0.168 HD
HETATM   20  S   UNK N   1      14.266  -0.396  -0.029  0.00  0.00    -0.064 SA
HETATM   21  C   UNK N   1      12.788  -1.147   0.119  0.00  0.00     0.085 A 
BRANCH  18  22
HETATM   22  N   UNK N   1      14.532   2.311  -0.129  0.00  0.00    -0.380 N 
HETATM   23  H   UNK N   1      15.511   2.229  -0.196  0.00  0.00     0.158 HD
HETATM   24  H   UNK N   1      14.113   3.202  -0.129  0.00  0.00     0.158 HD
ENDBRANCH  18  22
ENDBRANCH   5  16
ENDBRANCH   3   5
BRANCH   2  25
HETATM   25  C   UNK N   1       7.344   1.595  -0.974  0.00  0.00     0.211 A 
HETATM   26  C   UNK N   1       5.748   1.333  -1.101  0.00  0.00     0.187 A 
HETATM   27  S   UNK N   1       4.844   0.142  -0.084  0.00  0.00    -0.136 SA
HETATM   28  N   UNK N   1       5.579   2.579  -0.429  0.00  0.00    -0.293 N 
HETATM   29  C   UNK N   1       3.280   1.002  -0.587  0.00  0.00     0.114 C 
HETATM   30  C   UNK N   1       3.202   2.484  -0.205  0.00  0.00    -0.019 C 
HETATM   31  C   UNK N   1       4.348   3.230  -0.115  0.00  0.00     0.120 C 
HETATM   32  C   UNK N   1       6.853   2.786  -0.247  0.00  0.00     0.251 A 
HETATM   33  O   UNK N   1       7.411   3.708   0.325  0.00  0.00    -0.271 OA
BRANCH  30  34
HETATM   34  C   UNK N   1       1.857   3.114   0.112  0.00  0.00     0.165 C 
BRANCH  34  35
HETATM   35  N   UNK N   1       0.691   2.236   0.135  0.00  0.00    -0.362 N 
HETATM   36  C   UNK N   1       0.709   1.085   0.866  0.00  0.00     0.090 A 
HETATM   37  C   UNK N   1      -0.442   0.308   0.995  0.00  0.00     0.017 A 
HETATM   38  C   UNK N   1      -1.628   0.743   0.404  0.00  0.00     0.003 A 
HETATM   39  C   UNK N   1      -1.643   1.935  -0.319  0.00  0.00     0.017 A 
HETATM   40  C   UNK N   1      -0.463   2.674  -0.443  0.00  0.00     0.090 A 
ENDBRANCH  34  35
ENDBRANCH  30  34
BRANCH  31  41
HETATM   41  C   UNK N   1       4.343   4.683   0.286  0.00  0.00     0.227 C 
HETATM   42  O   UNK N   1       3.192   5.358   0.471  0.00  0.00    -0.643 OA
HETATM   43  O   UNK N   1       5.392   5.288   0.410  0.00  0.00    -0.643 OA
ENDBRANCH  31  41
ENDBRANCH   2  25
TORSDOF 11
