REMARK  6 active torsions:
REMARK  status: ('A' for Active; 'I' for Inactive)
REMARK    1  A    between atoms: O_1  and  C_15 
REMARK    2  A    between atoms: O_2  and  C_16 
REMARK    3  A    between atoms: O_3  and  C_17 
REMARK    4  A    between atoms: N_8  and  C_18 
REMARK       I    between atoms: N_9  and  C_20 
REMARK    5  A    between atoms: C_10  and  C_11 
REMARK    6  A    between atoms: C_10  and  C_12 
ROOT
HETATM    1  N   UNK N   1       2.836  -4.254  -0.213  0.00  0.00    -0.177 N 
ATOM      2  HN  UNK N   1       2.758  -5.262  -0.080  1.00  0.00     0.185 HD
HETATM    3  N   UNK N   1       1.862  -2.218  -0.873  0.00  0.00    -0.202 N 
ATOM      4  HN  UNK N   1       1.060  -1.701  -1.234  1.00  0.00     0.183 HD
HETATM    5  N   UNK N   1       0.547  -4.214  -0.926  0.00  0.00    -0.234 N 
HETATM    6  C   UNK N   1       4.130  -2.246  -0.097  0.00  0.00     0.006 A 
HETATM    7  C   UNK N   1       4.012  -3.634   0.073  0.00  0.00     0.122 A 
HETATM    8  C   UNK N   1       3.014  -1.561  -0.601  0.00  0.00     0.117 A 
HETATM    9  C   UNK N   1       1.763  -3.555  -0.672  0.00  0.00     0.677 A 
HETATM   10  H   UNK N   1      -0.278  -3.707  -1.105  0.00  0.00     0.174 HD
HETATM   11  H   UNK N   1       0.521  -5.198  -0.926  0.00  0.00     0.174 HD
ENDROOT
BRANCH   6  12
HETATM   12  C   UNK N   1       5.408  -1.522   0.305  0.00  0.00     0.082 C 
BRANCH  12  13
HETATM   13  C   UNK N   1       5.335  -0.014   0.326  0.00  0.00    -0.048 A 
HETATM   14  C   UNK N   1       4.164   0.626   0.723  0.00  0.00     0.047 A 
HETATM   15  C   UNK N   1       4.031   2.006   0.693  0.00  0.00     0.104 A 
HETATM   16  C   UNK N   1       5.140   2.806   0.306  0.00  0.00     0.135 A 
HETATM   17  C   UNK N   1       6.364   2.163  -0.049  0.00  0.00     0.104 A 
HETATM   18  C   UNK N   1       6.436   0.755  -0.046  0.00  0.00     0.047 A 
BRANCH  15  19
HETATM   19  O   UNK N   1       2.813   2.508   1.025  0.00  0.00    -0.353 OA
HETATM   20  C   UNK N   1       2.405   3.809   0.850  0.00  0.00     0.210 C 
ENDBRANCH  15  19
BRANCH  16  21
HETATM   21  O   UNK N   1       4.994   4.160   0.295  0.00  0.00    -0.351 OA
HETATM   22  C   UNK N   1       5.939   5.077  -0.103  0.00  0.00     0.210 C 
ENDBRANCH  16  21
BRANCH  17  23
HETATM   23  O   UNK N   1       7.451   2.902  -0.387  0.00  0.00    -0.353 OA
HETATM   24  C   UNK N   1       8.681   2.360  -0.685  0.00  0.00     0.210 C 
ENDBRANCH  17  23
ENDBRANCH  12  13
ENDBRANCH   6  12
BRANCH   7  25
HETATM   25  N   UNK N   1       5.095  -4.391   0.567  0.00  0.00    -0.385 N 
HETATM   26  H   UNK N   1       5.016  -5.309   0.911  0.00  0.00     0.157 HD
HETATM   27  H   UNK N   1       5.987  -3.973   0.567  0.00  0.00     0.157 HD
ENDBRANCH   7  25
TORSDOF 6
