REMARK  5 active torsions:
REMARK  status: ('A' for Active; 'I' for Inactive)
REMARK    1  A    between atoms: C_11  and  O_4 
REMARK    2  A    between atoms: O_5  and  C_15 
REMARK    3  A    between atoms: C_14  and  N_7 
REMARK    4  A    between atoms: N_10  and  C_19 
REMARK    5  A    between atoms: C_13  and  C_15 
ROOT
HETATM    1  F   UNK N   1       5.521  -1.441   1.210  0.00  0.00    -0.198 F 
HETATM    2  F   UNK N   1       5.942  -1.864  -0.990  0.00  0.00    -0.198 F 
HETATM    3  O   UNK N   1       2.649  -1.657   0.174  0.00  0.00    -0.350 OA
HETATM    4  C   UNK N   1       4.347  -3.225   0.244  0.00  0.00     0.226 C 
HETATM    5  C   UNK N   1       4.982  -1.866   0.007  0.00  0.00     0.314 C 
HETATM    6  C   UNK N   1       2.915  -2.980  -0.184  0.00  0.00     0.182 C 
HETATM    7  C   UNK N   1       3.756  -1.042  -0.413  0.00  0.00     0.307 C 
ENDROOT
BRANCH   7   8
HETATM    8  N   UNK N   1       3.795   0.417  -0.189  0.00  0.00    -0.276 N 
HETATM    9  C   UNK N   1       4.958   1.035   0.175  0.00  0.00     0.102 A 
HETATM   10  C   UNK N   1       5.010   2.416   0.347  0.00  0.00     0.065 A 
HETATM   11  C   UNK N   1       3.855   3.162   0.142  0.00  0.00     0.103 A 
HETATM   12  N   UNK N   1       2.704   2.541  -0.218  0.00  0.00    -0.295 N 
HETATM   13  C   UNK N   1       2.661   1.184  -0.391  0.00  0.00     0.330 A 
ATOM     14  HN  UNK N   1       1.859   3.094  -0.362  1.00  0.00     0.172 HD
HETATM   15  O   UNK N   1       1.608   0.660  -0.722  0.00  0.00    -0.246 OA
BRANCH  11  16
HETATM   16  N   UNK N   1       3.880   4.560   0.301  0.00  0.00    -0.385 N 
HETATM   17  H   UNK N   1       4.735   5.035   0.413  0.00  0.00     0.157 HD
HETATM   18  H   UNK N   1       3.036   5.068   0.301  0.00  0.00     0.157 HD
ENDBRANCH  11  16
ENDBRANCH   7   8
BRANCH   6  19
HETATM   19  C   UNK N   1       1.932  -3.939   0.457  0.00  0.00     0.199 C 
BRANCH  19  20
HETATM   20  O   UNK N   1       0.646  -3.654  -0.004  0.00  0.00    -0.398 OA
HETATM   21  H   UNK N   1       0.370  -2.780  -0.323  0.00  0.00     0.209 HD
ENDBRANCH  19  20
ENDBRANCH   6  19
BRANCH   4  22
HETATM   22  O   UNK N   1       4.939  -4.244  -0.504  0.00  0.00    -0.387 OA
HETATM   23  H   UNK N   1       4.532  -4.954  -1.024  0.00  0.00     0.210 HD
ENDBRANCH   4  22
TORSDOF 5
