REMARK  11 active torsions:
REMARK  status: ('A' for Active; 'I' for Inactive)
REMARK    1  A    between atoms: C_13  and  O_1 
REMARK    2  A    between atoms: C_19  and  O_1 
REMARK    3  A    between atoms: C_14  and  O_3 
REMARK    4  A    between atoms: C_22  and  O_4 
REMARK    5  A    between atoms: O_5  and  C_24 
REMARK    6  A    between atoms: O_6  and  C_26 
REMARK    7  A    between atoms: O_8  and  C_30 
REMARK    8  A    between atoms: O_11  and  C_35 
REMARK    9  A    between atoms: C_21  and  N_12 
REMARK   10  A    between atoms: C_14  and  C_25 
REMARK   11  A    between atoms: C_25  and  C_30 
ROOT
HETATM    1  O   UNK N   1       8.959   0.861   0.767  0.00  0.00    -0.286 OA
HETATM    2  O   UNK N   1       9.292  -4.439   0.391  0.00  0.00    -0.286 OA
HETATM    3  C   UNK N   1       4.013  -0.645  -0.095  0.00  0.00     0.164 C 
HETATM    4  C   UNK N   1       3.149  -2.912  -0.889  0.00  0.00     0.127 C 
HETATM    5  C   UNK N   1       3.464  -1.456  -1.270  0.00  0.00     0.083 C 
HETATM    6  C   UNK N   1       4.136  -3.465   0.165  0.00  0.00     0.088 C 
HETATM    7  C   UNK N   1       5.352  -1.276   0.241  0.00  0.00     0.014 A 
HETATM    8  C   UNK N   1       5.420  -2.677   0.277  0.00  0.00    -0.009 A 
HETATM    9  C   UNK N   1       6.524  -0.515   0.400  0.00  0.00     0.090 A 
HETATM   10  C   UNK N   1       6.659  -3.327   0.371  0.00  0.00     0.088 A 
HETATM   11  C   UNK N   1       7.776  -1.156   0.497  0.00  0.00     0.066 A 
HETATM   12  C   UNK N   1       7.852  -2.566   0.442  0.00  0.00     0.066 A 
HETATM   13  C   UNK N   1       9.024  -0.343   0.577  0.00  0.00     0.200 C 
HETATM   14  C   UNK N   1       9.195  -3.222   0.406  0.00  0.00     0.197 C 
HETATM   15  C   UNK N   1      10.342  -0.986   0.356  0.00  0.00     0.062 A 
HETATM   16  C   UNK N   1      10.418  -2.391   0.272  0.00  0.00     0.032 A 
HETATM   17  C   UNK N   1      11.515  -0.208   0.189  0.00  0.00     0.083 A 
HETATM   18  C   UNK N   1      11.653  -3.006   0.027  0.00  0.00     0.017 A 
HETATM   19  C   UNK N   1      12.737  -0.851  -0.067  0.00  0.00     0.038 A 
HETATM   20  C   UNK N   1      12.804  -2.240  -0.147  0.00  0.00     0.004 A 
ENDROOT
BRANCH   3  21
HETATM   21  O   UNK N   1       4.174   0.654  -0.595  0.00  0.00    -0.351 OA
BRANCH  21  22
HETATM   22  C   UNK N   1       3.319   1.501   0.110  0.00  0.00     0.263 C 
HETATM   23  O   UNK N   1       1.982   1.229  -0.240  0.00  0.00    -0.354 OA
HETATM   24  C   UNK N   1       1.181   1.953   0.657  0.00  0.00     0.151 C 
HETATM   25  C   UNK N   1       1.267   3.441   0.292  0.00  0.00     0.169 C 
HETATM   26  C   UNK N   1      -0.245   1.446   0.561  0.00  0.00     0.042 C 
HETATM   27  C   UNK N   1       2.723   3.915   0.422  0.00  0.00     0.110 C 
HETATM   28  C   UNK N   1       3.651   2.942  -0.302  0.00  0.00     0.088 C 
BRANCH  25  29
HETATM   29  O   UNK N   1       0.432   4.211   1.105  0.00  0.00    -0.391 OA
HETATM   30  H   UNK N   1       0.605   4.980   1.670  0.00  0.00     0.210 HD
ENDBRANCH  25  29
BRANCH  27  31
HETATM   31  N   UNK N   1       3.117   4.001   1.821  0.00  0.00    -0.423 N 
HETATM   32  H   UNK N   1       3.307   3.792   2.801  0.00  0.00     0.150 HD
HETATM   33  H   UNK N   1       3.426   4.973   1.821  0.00  0.00     0.150 HD
ENDBRANCH  27  31
ENDBRANCH  21  22
ENDBRANCH   3  21
BRANCH   4  34
HETATM   34  O   UNK N   1       3.242  -3.688  -2.045  0.00  0.00    -0.382 OA
HETATM   35  H   UNK N   1       2.807  -4.014  -2.848  0.00  0.00     0.211 HD
ENDBRANCH   4  34
BRANCH   4  36
HETATM   36  C   UNK N   1       1.739  -3.007  -0.346  0.00  0.00     0.184 C 
HETATM   37  O   UNK N   1       1.047  -2.002  -0.237  0.00  0.00    -0.292 OA
BRANCH  36  38
HETATM   38  C   UNK N   1       1.177  -4.341   0.054  0.00  0.00     0.245 C 
BRANCH  38  39
HETATM   39  O   UNK N   1      -0.127  -4.207   0.537  0.00  0.00    -0.393 OA
HETATM   40  H   UNK N   1      -0.499  -3.376   0.873  0.00  0.00     0.209 HD
ENDBRANCH  38  39
ENDBRANCH  36  38
ENDBRANCH   4  36
BRANCH   9  41
HETATM   41  O   UNK N   1       6.456   0.829   0.414  0.00  0.00    -0.359 OA
HETATM   42  H   UNK N   1       7.243   1.338   0.424  0.00  0.00     0.217 HD
ENDBRANCH   9  41
BRANCH  10  43
HETATM   43  O   UNK N   1       6.700  -4.672   0.349  0.00  0.00    -0.359 OA
HETATM   44  H   UNK N   1       5.903  -5.165   0.334  0.00  0.00     0.217 HD
ENDBRANCH  10  43
BRANCH  17  45
HETATM   45  O   UNK N   1      11.446   1.147   0.249  0.00  0.00    -0.355 OA
HETATM   46  C   UNK N   1      12.522   1.979   0.040  0.00  0.00     0.210 C 
ENDBRANCH  17  45
TORSDOF 11
