REMARK  10 active torsions:
REMARK  status: ('A' for Active; 'I' for Inactive)
REMARK    1  A    between atoms: O_1  and  C_14 
REMARK    2  A    between atoms: O_1  and  C_19 
REMARK    3  A    between atoms: O_2  and  C_18 
REMARK    4  A    between atoms: O_2  and  C_20 
REMARK    5  A    between atoms: O_3  and  C_10 
REMARK    6  A    between atoms: N_6  and  C_22 
REMARK    7  A    between atoms: C_7  and  C_14 
REMARK    8  A    between atoms: C_8  and  C_18 
REMARK    9  A    between atoms: C_9  and  C_10 
REMARK   10  A    between atoms: C_10  and  C_22 
ROOT
HETATM    1  C   UNK N   1       6.726  -1.556  -0.435  0.00  0.00    -0.025 A 
HETATM    2  C   UNK N   1       5.444   0.516  -0.321  0.00  0.00     0.113 A 
HETATM    3  C   UNK N   1       4.250  -0.215  -0.403  0.00  0.00     0.113 A 
HETATM    4  C   UNK N   1       6.674  -0.159  -0.331  0.00  0.00     0.050 A 
HETATM    5  C   UNK N   1       5.531  -2.279  -0.532  0.00  0.00     0.013 A 
HETATM    6  C   UNK N   1       4.302  -1.616  -0.507  0.00  0.00     0.041 A 
ENDROOT
BRANCH   1   7
HETATM    7  C   UNK N   1       8.043  -2.281  -0.481  0.00  0.00     0.168 C 
BRANCH   7   8
HETATM    8  O   UNK N   1       9.121  -1.398  -0.351  0.00  0.00    -0.389 OA
HETATM    9  H   UNK N   1      10.024  -1.738  -0.261  0.00  0.00     0.210 HD
ENDBRANCH   7   8
BRANCH   7  10
HETATM   10  C   UNK N   1       8.132  -3.356   0.596  0.00  0.00     0.149 C 
BRANCH  10  11
HETATM   11  N   UNK N   1       9.283  -4.214   0.356  0.00  0.00    -0.423 N 
HETATM   12  C   UNK N   1       8.897  -5.198  -0.643  0.00  0.00     0.139 C 
HETATM   13  H   UNK N   1      10.195  -4.140   0.808  0.00  0.00     0.152 HD
ENDBRANCH  10  11
ENDBRANCH   7  10
ENDBRANCH   1   7
BRANCH   2  14
HETATM   14  O   UNK N   1       5.362   1.871  -0.217  0.00  0.00    -0.275 OA
BRANCH  14  15
HETATM   15  C   UNK N   1       6.351   2.739   0.134  0.00  0.00     0.271 C 
HETATM   16  O   UNK N   1       7.462   2.334   0.451  0.00  0.00    -0.264 OA
BRANCH  15  17
HETATM   17  C   UNK N   1       6.034   4.213   0.185  0.00  0.00     0.037 C 
HETATM   18  C   UNK N   1       4.849   4.439   1.104  0.00  0.00     0.025 C 
HETATM   19  C   UNK N   1       7.205   5.033   0.704  0.00  0.00     0.025 C 
HETATM   20  C   UNK N   1       5.678   4.705  -1.204  0.00  0.00     0.025 C 
ENDBRANCH  15  17
ENDBRANCH  14  15
ENDBRANCH   2  14
BRANCH   3  21
HETATM   21  O   UNK N   1       3.074   0.466  -0.368  0.00  0.00    -0.275 OA
BRANCH  21  22
HETATM   22  C   UNK N   1       1.827  -0.031  -0.138  0.00  0.00     0.271 C 
HETATM   23  O   UNK N   1       1.666  -1.206   0.165  0.00  0.00    -0.264 OA
BRANCH  22  24
HETATM   24  C   UNK N   1       0.633   0.891  -0.203  0.00  0.00     0.037 C 
HETATM   25  C   UNK N   1       1.040   2.298  -0.613  0.00  0.00     0.025 C 
HETATM   26  C   UNK N   1      -0.369   0.370  -1.215  0.00  0.00     0.025 C 
HETATM   27  C   UNK N   1      -0.031   0.966   1.159  0.00  0.00     0.025 C 
ENDBRANCH  22  24
ENDBRANCH  21  22
ENDBRANCH   3  21
TORSDOF 10
