REMARK  8 active torsions:
REMARK  status: ('A' for Active; 'I' for Inactive)
REMARK    1  A    between atoms: O_5  and  C_15 
REMARK    2  A    between atoms: O_5  and  C_19 
REMARK    3  A    between atoms: O_6  and  C_18 
REMARK    4  A    between atoms: O_8  and  C_24 
REMARK    5  A    between atoms: C_11  and  N_9 
REMARK    6  A    between atoms: C_10  and  C_11 
REMARK    7  A    between atoms: C_10  and  C_12 
REMARK    8  A    between atoms: C_11  and  C_18 
ROOT
HETATM    1  I   UNK N   1       6.343   0.166   1.207  0.00  0.00    -0.042 I 
HETATM    2  I   UNK N   1       0.450   1.568  -0.585  0.00  0.00    -0.042 I 
HETATM    3  C   UNK N   1       2.704  -1.980   0.535  0.00  0.00    -0.053 A 
HETATM    4  C   UNK N   1       1.716  -1.084   0.142  0.00  0.00     0.028 A 
HETATM    5  C   UNK N   1       3.991  -1.519   0.773  0.00  0.00     0.028 A 
HETATM    6  C   UNK N   1       3.324   0.764   0.211  0.00  0.00     0.109 A 
HETATM    7  C   UNK N   1       4.334  -0.172   0.626  0.00  0.00     0.042 A 
HETATM    8  C   UNK N   1       2.021   0.267  -0.023  0.00  0.00     0.042 A 
ENDROOT
BRANCH   6   9
HETATM    9  O   UNK N   1       3.468   2.117   0.071  0.00  0.00    -0.308 OA
BRANCH   9  10
HETATM   10  C   UNK N   1       4.464   3.034  -0.046  0.00  0.00     0.078 A 
HETATM   11  C   UNK N   1       4.127   4.381   0.131  0.00  0.00     0.058 A 
HETATM   12  C   UNK N   1       5.095   5.383   0.034  0.00  0.00     0.043 A 
HETATM   13  I   UNK N   1       4.520   7.394   0.321  0.00  0.00    -0.042 I 
HETATM   14  C   UNK N   1       6.425   5.042  -0.243  0.00  0.00     0.098 A 
HETATM   15  C   UNK N   1       6.767   3.698  -0.446  0.00  0.00     0.043 A 
HETATM   16  I   UNK N   1       8.762   3.134  -0.845  0.00  0.00    -0.042 I 
HETATM   17  C   UNK N   1       5.782   2.707  -0.365  0.00  0.00     0.058 A 
BRANCH  14  18
HETATM   18  O   UNK N   1       7.368   5.999  -0.314  0.00  0.00    -0.358 OA
HETATM   19  H   UNK N   1       8.273   5.763  -0.364  0.00  0.00     0.217 HD
ENDBRANCH  14  18
ENDBRANCH   9  10
ENDBRANCH   6   9
BRANCH   3  20
HETATM   20  C   UNK N   1       2.395  -3.419   0.790  0.00  0.00     0.074 C 
BRANCH  20  21
HETATM   21  C   UNK N   1       1.878  -4.145  -0.442  0.00  0.00     0.177 C 
BRANCH  21  22
HETATM   22  N   UNK N   1       0.440  -3.950  -0.549  0.00  0.00    -0.417 N 
HETATM   23  H   UNK N   1       0.054  -3.009  -0.623  0.00  0.00     0.150 HD
HETATM   24  H   UNK N   1      -0.184  -4.757  -0.549  0.00  0.00     0.150 HD
ENDBRANCH  21  22
BRANCH  21  25
HETATM   25  C   UNK N   1       2.212  -5.605  -0.332  0.00  0.00     0.163 C 
HETATM   26  O   UNK N   1       3.380  -5.957  -0.288  0.00  0.00    -0.648 OA
BRANCH  25  27
HETATM   27  O   UNK N   1       1.236  -6.534  -0.289  0.00  0.00    -0.775 OA
HETATM   28  H   UNK N   1       0.338  -6.270  -0.259  0.00  0.00     0.167 HD
ENDBRANCH  25  27
ENDBRANCH  21  25
ENDBRANCH  20  21
ENDBRANCH   3  20
TORSDOF 8
