REMARK  4 active torsions:
REMARK  status: ('A' for Active; 'I' for Inactive)
REMARK    1  A    between atoms: O_1  and  C_10 
REMARK    2  A    between atoms: O_1  and  C_17 
REMARK    3  A    between atoms: C_4  and  C_9 
REMARK    4  A    between atoms: C_4  and  C_10 
ROOT
HETATM    1  N   UNK N   1       4.202  -2.579   0.238  0.00  0.00     0.084 N 
HETATM    2  C   UNK N   1       3.970   0.373  -0.168  0.00  0.00     0.078 C 
HETATM    3  C   UNK N   1       4.152  -0.618  -1.338  0.00  0.00     0.055 C 
HETATM    4  C   UNK N   1       3.604  -0.376   1.134  0.00  0.00     0.055 C 
HETATM    5  C   UNK N   1       4.850  -1.913  -0.906  0.00  0.00     0.273 C 
HETATM    6  C   UNK N   1       3.124  -1.798   0.857  0.00  0.00     0.273 C 
HETATM    7  C   UNK N   1       3.621  -3.818  -0.246  0.00  0.00     0.309 C 
ENDROOT
BRANCH   2   8
HETATM    8  C   UNK N   1       5.280   1.117   0.080  0.00  0.00    -0.040 A 
HETATM    9  C   UNK N   1       5.372   2.516  -0.032  0.00  0.00     0.008 A 
HETATM   10  C   UNK N   1       6.590   3.168   0.188  0.00  0.00     0.001 A 
HETATM   11  C   UNK N   1       7.730   2.431   0.522  0.00  0.00     0.000 A 
HETATM   12  C   UNK N   1       7.652   1.043   0.642  0.00  0.00     0.001 A 
HETATM   13  C   UNK N   1       6.437   0.391   0.423  0.00  0.00     0.008 A 
ENDBRANCH   2   8
BRANCH   2  14
HETATM   14  C   UNK N   1       2.821   1.285  -0.576  0.00  0.00     0.272 C 
HETATM   15  O   UNK N   1       2.920   1.963  -1.593  0.00  0.00    -0.264 OA
BRANCH  14  16
HETATM   16  O   UNK N   1       1.668   1.307   0.144  0.00  0.00    -0.321 OA
BRANCH  16  17
HETATM   17  C   UNK N   1       0.527   1.920  -0.324  0.00  0.00     0.174 C 
HETATM   18  C   UNK N   1       0.136   3.065   0.585  0.00  0.00     0.034 C 
ENDBRANCH  16  17
ENDBRANCH  14  16
ENDBRANCH   2  14
TORSDOF 4
