REMARK  4 active torsions:
REMARK  status: ('A' for Active; 'I' for Inactive)
REMARK    1  A    between atoms: O_3  and  C_25 
REMARK    2  A    between atoms: O_4  and  C_26 
REMARK       I    between atoms: N_5  and  C_16 
REMARK       I    between atoms: N_6  and  C_17 
REMARK    3  A    between atoms: N_11  and  C_21 
REMARK    4  A    between atoms: C_17  and  C_19 
ROOT
HETATM    1  O   UNK N   1       2.140   3.750   0.227  0.00  0.00    -0.265 OA
HETATM    2  N   UNK N   1       5.418   0.548   0.293  0.00  0.00    -0.214 N 
HETATM    3  N   UNK N   1       3.217   1.916  -0.479  0.00  0.00    -0.343 N 
HETATM    4  N   UNK N   1       7.817   0.454   0.152  0.00  0.00    -0.191 N 
ATOM      5  HN  UNK N   1       7.841   1.472   0.211  1.00  0.00     0.184 HD
HETATM    6  N   UNK N   1       6.581  -1.552   0.093  0.00  0.00    -0.176 N 
ATOM      7  HN  UNK N   1       5.678  -2.027   0.107  1.00  0.00     0.186 HD
HETATM    8  C   UNK N   1       4.146  -0.140   0.307  0.00  0.00     0.161 C 
HETATM    9  C   UNK N   1       5.447   1.996   0.416  0.00  0.00     0.161 C 
HETATM   10  C   UNK N   1       3.235   0.493  -0.730  0.00  0.00     0.146 C 
HETATM   11  C   UNK N   1       4.475   2.622  -0.588  0.00  0.00     0.146 C 
HETATM   12  C   UNK N   1       6.620  -0.191   0.169  0.00  0.00     0.682 A 
HETATM   13  C   UNK N   1       2.099   2.551  -0.014  0.00  0.00     0.277 C 
HETATM   14  C   UNK N   1       8.979  -0.237   0.055  0.00  0.00     0.066 A 
HETATM   15  C   UNK N   1       8.958  -1.638  -0.022  0.00  0.00     0.038 A 
HETATM   16  C   UNK N   1       7.718  -2.287  -0.002  0.00  0.00     0.127 A 
HETATM   17  C   UNK N   1      10.190   0.445   0.034  0.00  0.00     0.070 A 
HETATM   18  C   UNK N   1      10.159  -2.345  -0.119  0.00  0.00     0.057 A 
HETATM   19  C   UNK N   1      11.406  -0.253  -0.066  0.00  0.00     0.103 A 
HETATM   20  C   UNK N   1      11.388  -1.675  -0.142  0.00  0.00     0.102 A 
ENDROOT
BRANCH  16  21
HETATM   21  N   UNK N   1       7.634  -3.694  -0.076  0.00  0.00    -0.384 N 
HETATM   22  H   UNK N   1       6.755  -4.134  -0.128  0.00  0.00     0.157 HD
HETATM   23  H   UNK N   1       8.456  -4.236  -0.076  0.00  0.00     0.157 HD
ENDBRANCH  16  21
BRANCH  19  24
HETATM   24  O   UNK N   1      12.580   0.425  -0.091  0.00  0.00    -0.353 OA
HETATM   25  C   UNK N   1      12.664   1.799  -0.036  0.00  0.00     0.210 C 
ENDBRANCH  19  24
BRANCH  13  26
HETATM   26  C   UNK N   1       0.843   1.810   0.271  0.00  0.00     0.142 A 
HETATM   27  O   UNK N   1       0.669   0.525   0.081  0.00  0.00    -0.317 OA
HETATM   28  C   UNK N   1      -0.532   0.183   0.479  0.00  0.00     0.143 A 
HETATM   29  C   UNK N   1      -1.180   1.305   0.961  0.00  0.00     0.027 A 
HETATM   30  C   UNK N   1      -0.292   2.357   0.828  0.00  0.00     0.045 A 
ENDBRANCH  13  26
BRANCH  20  31
HETATM   31  O   UNK N   1      12.511  -2.435  -0.239  0.00  0.00    -0.353 OA
HETATM   32  C   UNK N   1      13.800  -1.956  -0.279  0.00  0.00     0.210 C 
ENDBRANCH  20  31
TORSDOF 4
