REMARK  4 active torsions:
REMARK  status: ('A' for Active; 'I' for Inactive)
REMARK    1  A    between atoms: N_1  and  C_3 
REMARK    2  A    between atoms: N_2  and  C_11 
REMARK    3  A    between atoms: C_3  and  C_10 
REMARK    4  A    between atoms: C_10  and  C_11 
ROOT
HETATM    1  N   UNK N   1       3.909   0.510   0.521  0.00  0.00    -0.346 N 
HETATM    2  C   UNK N   1       5.271   0.913   0.176  0.00  0.00     0.041 A 
HETATM    3  C   UNK N   1       2.682   1.251   0.246  0.00  0.00     0.041 A 
HETATM    4  C   UNK N   1       4.646   3.000  -1.166  0.00  0.00     0.045 C 
HETATM    5  C   UNK N   1       3.816   3.509  -0.041  0.00  0.00     0.045 C 
HETATM    6  C   UNK N   1       5.625   2.060  -0.602  0.00  0.00    -0.031 A 
HETATM    7  C   UNK N   1       2.624   2.650  -0.018  0.00  0.00    -0.031 A 
HETATM    8  C   UNK N   1       6.337   0.102   0.630  0.00  0.00     0.030 A 
HETATM    9  C   UNK N   1       1.451   0.562   0.275  0.00  0.00     0.030 A 
HETATM   10  C   UNK N   1       6.970   2.351  -0.862  0.00  0.00     0.009 A 
HETATM   11  C   UNK N   1       1.396   3.278  -0.262  0.00  0.00     0.009 A 
HETATM   12  C   UNK N   1       7.671   0.402   0.355  0.00  0.00     0.002 A 
HETATM   13  C   UNK N   1       0.236   1.193   0.019  0.00  0.00     0.002 A 
HETATM   14  C   UNK N   1       7.988   1.531  -0.388  0.00  0.00     0.001 A 
HETATM   15  C   UNK N   1       0.209   2.554  -0.254  0.00  0.00     0.001 A 
ENDROOT
BRANCH   1  16
HETATM   16  C   UNK N   1       3.800  -0.713   1.330  0.00  0.00     0.131 C 
BRANCH  16  17
HETATM   17  C   UNK N   1       2.886  -1.810   0.785  0.00  0.00     0.050 C 
BRANCH  17  18
HETATM   18  C   UNK N   1       3.250  -2.289  -0.619  0.00  0.00     0.273 C 
BRANCH  18  19
HETATM   19  N   UNK N   1       2.269  -3.244  -1.153  0.00  0.00     0.080 N 
HETATM   20  C   UNK N   1       2.184  -4.419  -0.296  0.00  0.00     0.309 C 
HETATM   21  C   UNK N   1       0.949  -2.632  -1.224  0.00  0.00     0.309 C 
ENDBRANCH  18  19
ENDBRANCH  17  18
ENDBRANCH  16  17
ENDBRANCH   1  16
TORSDOF 4
