REMARK  4 active torsions:
REMARK  status: ('A' for Active; 'I' for Inactive)
REMARK    1  A    between atoms: O_3  and  C_24 
REMARK    2  A    between atoms: N_5  and  C_14 
REMARK    3  A    between atoms: N_7  and  C_19 
REMARK    4  A    between atoms: C_22  and  C_24 
ROOT
HETATM    1  F   UNK N   1       8.222   1.991  -0.181  0.00  0.00    -0.202 F 
HETATM    2  O   UNK N   1       3.340   2.883   0.108  0.00  0.00    -0.286 OA
HETATM    3  N   UNK N   1       3.659  -1.099  -0.306  0.00  0.00    -0.342 N 
HETATM    4  N   UNK N   1       6.021  -0.907  -0.386  0.00  0.00    -0.325 N 
ATOM      5  HN  UNK N   1       6.075  -1.919  -0.496  1.00  0.00     0.169 HD
HETATM    6  C   UNK N   1       7.182  -0.191  -0.352  0.00  0.00     0.144 A 
HETATM    7  C   UNK N   1       4.790  -0.328  -0.279  0.00  0.00     0.123 A 
HETATM    8  C   UNK N   1       4.694   1.071  -0.135  0.00  0.00     0.062 A 
HETATM    9  C   UNK N   1       7.111   1.215  -0.210  0.00  0.00     0.161 A 
HETATM   10  C   UNK N   1       5.865   1.832  -0.106  0.00  0.00     0.065 A 
HETATM   11  C   UNK N   1       3.431   1.671  -0.017  0.00  0.00     0.204 A 
HETATM   12  C   UNK N   1       2.427  -0.520  -0.186  0.00  0.00     0.115 A 
HETATM   13  C   UNK N   1       2.276   0.863  -0.038  0.00  0.00     0.104 A 
ENDROOT
BRANCH   6  14
HETATM   14  N   UNK N   1       8.429  -0.887  -0.469  0.00  0.00    -0.362 N 
HETATM   15  C   UNK N   1       8.427  -2.317  -0.688  0.00  0.00     0.143 C 
HETATM   16  C   UNK N   1       9.389  -2.978   0.299  0.00  0.00     0.133 C 
HETATM   17  N   UNK N   1      10.731  -2.364   0.319  0.00  0.00    -0.418 N 
HETATM   18  C   UNK N   1      10.869  -1.184  -0.547  0.00  0.00     0.133 C 
HETATM   19  H   UNK N   1      11.497  -2.727   0.885  0.00  0.00     0.153 HD
HETATM   20  C   UNK N   1       9.706  -0.205  -0.354  0.00  0.00     0.143 C 
ENDBRANCH   6  14
BRANCH   3  21
HETATM   21  C   UNK N   1       3.790  -2.557  -0.458  0.00  0.00     0.125 C 
HETATM   22  C   UNK N   1       2.461  -3.306  -0.471  0.00  0.00     0.027 C 
ENDBRANCH   3  21
BRANCH  13  23
HETATM   23  C   UNK N   1       0.904   1.419   0.102  0.00  0.00     0.181 C 
HETATM   24  O   UNK N   1       0.725   2.618   0.243  0.00  0.00    -0.646 OA
BRANCH  23  25
HETATM   25  O   UNK N   1      -0.160   0.592   0.085  0.00  0.00    -0.772 OA
HETATM   26  H   UNK N   1      -1.028   0.946   0.073  0.00  0.00     0.167 HD
ENDBRANCH  23  25
ENDBRANCH  13  23
TORSDOF 4
