REMARK  5 active torsions:
REMARK  status: ('A' for Active; 'I' for Inactive)
REMARK    1  A    between atoms: C_6  and  C_7 
REMARK    2  A    between atoms: C_6  and  C_8 
REMARK    3  A    between atoms: C_7  and  C_14 
REMARK    4  A    between atoms: C_8  and  C_13 
REMARK    5  A    between atoms: C_17  and  C_18 
ROOT
HETATM    1  O   UNK N   1       5.057  -0.346  -1.328  0.00  0.00    -0.271 OA
HETATM    2  O   UNK N   1       1.076  -0.796   1.124  0.00  0.00    -0.272 OA
HETATM    3  O   UNK N   1       3.678  -4.293   0.307  0.00  0.00    -0.246 OA
HETATM    4  N   UNK N   1       4.396  -2.339  -0.535  0.00  0.00    -0.273 N 
HETATM    5  N   UNK N   1       2.382  -2.537   0.700  0.00  0.00    -0.278 N 
HETATM    6  C   UNK N   1       3.017  -0.265  -0.132  0.00  0.00     0.139 A 
HETATM    7  C   UNK N   1       4.222  -0.992  -0.707  0.00  0.00     0.247 A 
HETATM    8  C   UNK N   1       2.093  -1.221   0.597  0.00  0.00     0.245 A 
HETATM    9  C   UNK N   1       3.492  -3.093   0.161  0.00  0.00     0.331 A 
HETATM   10  C   UNK N   1       5.568  -2.981  -1.094  0.00  0.00     0.164 C 
HETATM   11  H   UNK N   1       1.757  -3.118   1.191  0.00  0.00     0.173 HD
ENDROOT
BRANCH   6  12
HETATM   12  C   UNK N   1       3.484   0.776   0.924  0.00  0.00     0.088 C 
HETATM   13  C   UNK N   1       4.565   0.335   1.902  0.00  0.00     0.025 C 
BRANCH  12  14
HETATM   14  C   UNK N   1       3.486   2.210   0.612  0.00  0.00    -0.100 C 
HETATM   15  C   UNK N   1       3.396   3.370   0.299  0.00  0.00    -0.106 C 
BRANCH  15  16
HETATM   16  C   UNK N   1       3.273   4.795   0.004  0.00  0.00     0.089 C 
HETATM   17  C   UNK N   1       3.541   5.028  -1.463  0.00  0.00     0.018 C 
ENDBRANCH  15  16
ENDBRANCH  12  14
ENDBRANCH   6  12
BRANCH   6  18
HETATM   18  C   UNK N   1       2.267   0.362  -1.336  0.00  0.00     0.057 C 
BRANCH  18  19
HETATM   19  C   UNK N   1       1.138   1.284  -0.984  0.00  0.00    -0.035 C 
HETATM   20  C   UNK N   1      -0.092   1.047  -1.422  0.00  0.00     0.007 C 
ENDBRANCH  18  19
ENDBRANCH   6  18
TORSDOF 5
