REMARK  6 active torsions:
REMARK  status: ('A' for Active; 'I' for Inactive)
REMARK    1  A    between atoms: C_4  and  O_2 
REMARK    2  A    between atoms: O_2  and  C_8 
REMARK    3  A    between atoms: N_3  and  C_6 
REMARK    4  A    between atoms: C_4  and  C_5 
REMARK    5  A    between atoms: C_4  and  C_7 
REMARK    6  A    between atoms: C_5  and  C_6 
ROOT
HETATM    1  O   UNK N   1       5.129  -0.109  -0.156  0.00  0.00    -0.340 OA
ENDROOT
BRANCH   1   2
HETATM    2  C   UNK N   1       4.029  -0.816   0.289  0.00  0.00     0.170 C 
BRANCH   2   3
HETATM    3  C   UNK N   1       2.772  -0.545  -0.532  0.00  0.00     0.057 C 
BRANCH   3   4
HETATM    4  C   UNK N   1       1.764   0.179   0.345  0.00  0.00     0.116 C 
BRANCH   4   5
HETATM    5  N   UNK N   1       0.486   0.277  -0.338  0.00  0.00    -0.425 N 
HETATM    6  C   UNK N   1      -0.352  -0.787   0.187  0.00  0.00     0.139 C 
HETATM    7  H   UNK N   1       0.227   0.961  -1.049  0.00  0.00     0.152 HD
ENDBRANCH   4   5
ENDBRANCH   3   4
ENDBRANCH   2   3
BRANCH   2   8
HETATM    8  C   UNK N   1       4.398  -2.269   0.284  0.00  0.00     0.012 A 
HETATM    9  S   UNK N   1       5.716  -2.909   1.051  0.00  0.00    -0.104 SA
HETATM   10  C   UNK N   1       5.563  -4.501   0.615  0.00  0.00     0.050 A 
HETATM   11  C   UNK N   1       4.412  -4.572  -0.184  0.00  0.00     0.008 A 
HETATM   12  C   UNK N   1       3.758  -3.321  -0.374  0.00  0.00     0.018 A 
ENDBRANCH   2   8
ENDBRANCH   1   2
BRANCH   1  13
HETATM   13  C   UNK N   1       5.280   1.238  -0.197  0.00  0.00     0.080 A 
HETATM   14  C   UNK N   1       6.578   1.774  -0.176  0.00  0.00     0.007 A 
HETATM   15  C   UNK N   1       6.768   3.174  -0.201  0.00  0.00    -0.023 A 
HETATM   16  C   UNK N   1       7.695   0.926  -0.102  0.00  0.00     0.015 A 
HETATM   17  C   UNK N   1       5.664   4.026  -0.264  0.00  0.00     0.012 A 
HETATM   18  C   UNK N   1       8.061   3.703  -0.151  0.00  0.00     0.012 A 
HETATM   19  C   UNK N   1       4.372   3.495  -0.289  0.00  0.00     0.004 A 
HETATM   20  C   UNK N   1       4.180   2.111  -0.246  0.00  0.00     0.038 A 
HETATM   21  C   UNK N   1       9.166   2.849  -0.073  0.00  0.00     0.001 A 
HETATM   22  C   UNK N   1       8.982   1.464  -0.050  0.00  0.00     0.001 A 
ENDBRANCH   1  13
TORSDOF 6
