REMARK  4 active torsions:
REMARK  status: ('A' for Active; 'I' for Inactive)
REMARK    1  A    between atoms: N_3  and  C_5 
REMARK    2  A    between atoms: N_4  and  C_7 
REMARK    3  A    between atoms: C_5  and  C_6 
REMARK    4  A    between atoms: C_6  and  C_7 
ROOT
HETATM    1 Cl   UNK N   1       8.854   0.355  -0.013  0.00  0.00    -0.084 Cl
HETATM    2  S   UNK N   1       4.185  -3.924   0.165  0.00  0.00    -0.086 SA
HETATM    3  N   UNK N   1       3.811  -0.758  -0.179  0.00  0.00    -0.345 N 
HETATM    4  C   UNK N   1       5.143  -1.270  -0.057  0.00  0.00     0.053 A 
HETATM    5  C   UNK N   1       2.631  -1.567  -0.050  0.00  0.00     0.052 A 
HETATM    6  C   UNK N   1       5.426  -2.644   0.116  0.00  0.00     0.032 A 
HETATM    7  C   UNK N   1       2.679  -2.969   0.122  0.00  0.00     0.032 A 
HETATM    8  C   UNK N   1       6.225  -0.367  -0.098  0.00  0.00     0.054 A 
HETATM    9  C   UNK N   1       1.365  -0.947  -0.100  0.00  0.00     0.031 A 
HETATM   10  C   UNK N   1       6.756  -3.068   0.236  0.00  0.00     0.023 A 
HETATM   11  C   UNK N   1       1.487  -3.696   0.238  0.00  0.00     0.021 A 
HETATM   12  C   UNK N   1       7.542  -0.802   0.029  0.00  0.00     0.036 A 
HETATM   13  C   UNK N   1       0.187  -1.682   0.024  0.00  0.00     0.002 A 
HETATM   14  C   UNK N   1       7.808  -2.156   0.196  0.00  0.00     0.025 A 
HETATM   15  C   UNK N   1       0.248  -3.060   0.194  0.00  0.00     0.002 A 
ENDROOT
BRANCH   3  16
HETATM   16  C   UNK N   1       3.659   0.656  -0.490  0.00  0.00     0.131 C 
BRANCH  16  17
HETATM   17  C   UNK N   1       3.217   1.457   0.720  0.00  0.00     0.050 C 
BRANCH  17  18
HETATM   18  C   UNK N   1       2.850   2.850   0.233  0.00  0.00     0.273 C 
BRANCH  18  19
HETATM   19  N   UNK N   1       1.470   3.186   0.560  0.00  0.00     0.080 N 
HETATM   20  C   UNK N   1       0.574   2.305  -0.174  0.00  0.00     0.309 C 
HETATM   21  C   UNK N   1       1.237   4.522   0.041  0.00  0.00     0.309 C 
ENDBRANCH  18  19
ENDBRANCH  17  18
ENDBRANCH  16  17
ENDBRANCH   3  16
TORSDOF 4
