REMARK  2 active torsions:
REMARK  status: ('A' for Active; 'I' for Inactive)
REMARK    1  A    between atoms: N_1  and  C_12 
REMARK    2  A    between atoms: C_2  and  C_12 
ROOT
HETATM    1  C   UNK N   1       3.000   0.770  -0.141  0.00  0.00    -0.020 C 
HETATM    2  C   UNK N   1       2.269  -1.052   1.455  0.00  0.00    -0.013 C 
HETATM    3  C   UNK N   1       2.202  -1.461  -1.030  0.00  0.00    -0.013 C 
HETATM    4  C   UNK N   1       4.414  -1.308   0.160  0.00  0.00    -0.013 C 
HETATM    5  C   UNK N   1       2.305   0.464   1.205  0.00  0.00     0.016 C 
HETATM    6  C   UNK N   1       2.234   0.055  -1.275  0.00  0.00     0.016 C 
HETATM    7  C   UNK N   1       4.436   0.206  -0.099  0.00  0.00     0.016 C 
HETATM    8  C   UNK N   1       1.505  -1.740   0.311  0.00  0.00     0.009 C 
HETATM    9  C   UNK N   1       3.708  -1.588   1.498  0.00  0.00     0.009 C 
HETATM   10  C   UNK N   1       3.641  -1.998  -0.974  0.00  0.00     0.009 C 
ENDROOT
BRANCH   1  11
HETATM   11  C   UNK N   1       3.043   2.283  -0.419  0.00  0.00     0.078 C 
HETATM   12  C   UNK N   1       1.658   2.916  -0.423  0.00  0.00     0.032 C 
BRANCH  11  13
HETATM   13  N   UNK N   1       3.883   2.977   0.547  0.00  0.00    -0.426 N 
HETATM   14  H   UNK N   1       4.598   2.711   1.224  0.00  0.00     0.150 HD
HETATM   15  H   UNK N   1       3.712   3.983   0.547  0.00  0.00     0.150 HD
ENDBRANCH  11  13
ENDBRANCH   1  11
TORSDOF 2
