REMARK  5 active torsions:
REMARK  status: ('A' for Active; 'I' for Inactive)
REMARK    1  A    between atoms: O_5  and  C_20 
REMARK    2  A    between atoms: C_16  and  N_10 
REMARK       I    between atoms: N_10  and  C_21 
REMARK    3  A    between atoms: C_15  and  C_20 
REMARK    4  A    between atoms: C_21  and  C_22 
REMARK    5  A    between atoms: C_23  and  C_25 
ROOT
HETATM    1  O   UNK N   1       4.574   0.878  -2.365  0.00  0.00    -0.267 OA
HETATM    2  N   UNK N   1       6.186   0.825  -0.827  0.00  0.00    -0.342 N 
HETATM    3  C   UNK N   1       4.957   1.214  -1.255  0.00  0.00     0.257 C 
HETATM    4  H   UNK N   1       6.847   0.517  -1.488  0.00  0.00     0.163 HD
ENDROOT
BRANCH   3   5
HETATM    5  C   UNK N   1       4.099   2.074  -0.421  0.00  0.00     0.092 A 
HETATM    6  C   UNK N   1       2.778   1.973   0.069  0.00  0.00     0.086 A 
HETATM    7  N   UNK N   1       2.509   3.140   0.694  0.00  0.00    -0.259 N 
HETATM    8  O   UNK N   1       3.550   3.917   0.615  0.00  0.00    -0.241 OA
ATOM      9  HN  UNK N   1       1.630   3.375   1.155  1.00  0.00     0.195 HD
HETATM   10  C   UNK N   1       4.517   3.329  -0.026  0.00  0.00     0.090 A 
HETATM   11  C   UNK N   1       5.824   3.983  -0.336  0.00  0.00     0.080 C 
BRANCH   6  12
HETATM   12  C   UNK N   1       1.740   0.852   0.072  0.00  0.00     0.037 A 
HETATM   13  C   UNK N   1       0.371   1.170   0.380  0.00  0.00     0.048 A 
HETATM   14 Cl   UNK N   1      -0.236   2.800   0.669  0.00  0.00    -0.083 Cl
HETATM   15  C   UNK N   1      -0.597   0.167   0.453  0.00  0.00     0.025 A 
HETATM   16  C   UNK N   1      -0.270  -1.159   0.239  0.00  0.00     0.003 A 
HETATM   17  C   UNK N   1       1.037  -1.501  -0.055  0.00  0.00     0.025 A 
HETATM   18  C   UNK N   1       2.042  -0.535  -0.144  0.00  0.00     0.048 A 
HETATM   19 Cl   UNK N   1       3.621  -1.202  -0.427  0.00  0.00    -0.083 Cl
ENDBRANCH   6  12
ENDBRANCH   3   5
BRANCH   2  20
HETATM   20  C   UNK N   1       6.552   0.850   0.578  0.00  0.00     0.199 A 
HETATM   21  C   UNK N   1       8.141   1.033   0.839  0.00  0.00     0.160 A 
HETATM   22  S   UNK N   1       9.242   1.460  -0.563  0.00  0.00    -0.135 SA
HETATM   23  N   UNK N   1       8.221  -0.374   1.009  0.00  0.00    -0.219 NA
HETATM   24  C   UNK N   1      10.136  -0.146  -0.454  0.00  0.00     0.029 C 
HETATM   25  C   UNK N   1       9.189  -1.102   0.245  0.00  0.00     0.182 C 
HETATM   26  C   UNK N   1      10.451  -0.642  -1.850  0.00  0.00     0.029 C 
HETATM   27  C   UNK N   1      11.411   0.017   0.353  0.00  0.00     0.029 C 
HETATM   28  C   UNK N   1       6.939  -0.558   0.877  0.00  0.00     0.227 A 
HETATM   29  O   UNK N   1       6.392  -1.597   0.542  0.00  0.00    -0.277 OA
BRANCH  25  30
HETATM   30  C   UNK N   1       9.319  -2.593   0.346  0.00  0.00     0.160 C 
HETATM   31  O   UNK N   1      10.317  -3.092   0.835  0.00  0.00    -0.649 OA
BRANCH  30  32
HETATM   32  O   UNK N   1       8.357  -3.385  -0.167  0.00  0.00    -0.775 OA
HETATM   33  H   UNK N   1       7.546  -3.081  -0.524  0.00  0.00     0.167 HD
ENDBRANCH  30  32
ENDBRANCH  25  30
ENDBRANCH   2  20
TORSDOF 5
