REMARK  16 active torsions:
REMARK  status: ('A' for Active; 'I' for Inactive)
REMARK    1  A    between atoms: P_1  and  O_5 
REMARK    2  A    between atoms: P_1  and  C_22 
REMARK    3  A    between atoms: P_1  and  C_23 
REMARK    4  A    between atoms: O_2  and  C_21 
REMARK    5  A    between atoms: O_5  and  C_25 
REMARK    6  A    between atoms: O_7  and  C_25 
REMARK    7  A    between atoms: O_7  and  C_32 
REMARK       I    between atoms: N_9  and  C_20 
REMARK    8  A    between atoms: C_10  and  C_11 
REMARK    9  A    between atoms: C_16  and  C_21 
REMARK   10  A    between atoms: C_20  and  C_22 
REMARK   11  A    between atoms: C_23  and  C_24 
REMARK   12  A    between atoms: C_24  and  C_26 
REMARK   13  A    between atoms: C_25  and  C_27 
REMARK   14  A    between atoms: C_26  and  C_28 
REMARK   15  A    between atoms: C_28  and  C_31 
REMARK   16  A    between atoms: C_32  and  C_35 
ROOT
HETATM    1  P   UNK N   1       5.609   2.420  -0.115  0.00  0.00     0.208 P 
HETATM    2  O   UNK N   1       5.078   3.693   0.604  0.00  0.00    -0.291 OA
ENDROOT
BRANCH   1   3
HETATM    3  O   UNK N   1       6.960   2.923  -1.103  0.00  0.00    -0.301 OA
BRANCH   3   4
HETATM    4  C   UNK N   1       8.069   2.812  -0.277  0.00  0.00     0.280 C 
BRANCH   4   5
HETATM    5  O   UNK N   1       8.701   4.033  -0.095  0.00  0.00    -0.289 OA
BRANCH   5   6
HETATM    6  C   UNK N   1       9.728   4.230   0.776  0.00  0.00     0.260 C 
HETATM    7  O   UNK N   1      10.247   3.292   1.362  0.00  0.00    -0.265 OA
BRANCH   6   8
HETATM    8  C   UNK N   1      10.249   5.605   1.001  0.00  0.00     0.107 C 
HETATM    9  C   UNK N   1      11.648   5.711   0.427  0.00  0.00     0.015 C 
ENDBRANCH   6   8
ENDBRANCH   5   6
ENDBRANCH   4   5
BRANCH   4  10
HETATM   10  C   UNK N   1       8.947   1.636  -0.709  0.00  0.00     0.034 C 
HETATM   11  C   UNK N   1      10.238   2.002  -1.427  0.00  0.00     0.014 C 
HETATM   12  C   UNK N   1       9.265   0.843   0.526  0.00  0.00     0.014 C 
ENDBRANCH   4  10
ENDBRANCH   3   4
ENDBRANCH   1   3
BRANCH   1  13
HETATM   13  C   UNK N   1       4.315   2.075  -1.386  0.00  0.00     0.204 C 
BRANCH  13  14
HETATM   14  C   UNK N   1       3.044   1.835  -0.659  0.00  0.00     0.229 C 
HETATM   15  O   UNK N   1       2.437   2.812  -0.226  0.00  0.00    -0.273 OA
HETATM   16  N   UNK N   1       2.575   0.576  -0.400  0.00  0.00    -0.337 N 
HETATM   17  C   UNK N   1       3.280  -0.623  -0.801  0.00  0.00     0.132 C 
HETATM   18  C   UNK N   1       1.445   0.309   0.446  0.00  0.00     0.185 C 
HETATM   19  C   UNK N   1       2.635  -1.704   0.068  0.00  0.00     0.010 C 
HETATM   20  C   UNK N   1       1.217  -1.191   0.309  0.00  0.00     0.042 C 
BRANCH  19  21
HETATM   21  C   UNK N   1       2.777  -3.116  -0.512  0.00  0.00    -0.009 C 
HETATM   22  C   UNK N   1       1.896  -4.127   0.231  0.00  0.00     0.005 C 
HETATM   23  C   UNK N   1       2.101  -5.530  -0.341  0.00  0.00     0.000 C 
HETATM   24  C   UNK N   1       3.559  -5.948  -0.184  0.00  0.00     0.000 C 
HETATM   25  C   UNK N   1       4.464  -4.959  -0.911  0.00  0.00     0.000 C 
HETATM   26  C   UNK N   1       4.243  -3.546  -0.378  0.00  0.00     0.005 C 
ENDBRANCH  19  21
BRANCH  18  27
HETATM   27  C   UNK N   1       0.223   1.129   0.142  0.00  0.00     0.163 C 
HETATM   28  O   UNK N   1      -0.118   1.999   0.926  0.00  0.00    -0.648 OA
BRANCH  27  29
HETATM   29  O   UNK N   1      -0.478   0.937  -0.991  0.00  0.00    -0.775 OA
HETATM   30  H   UNK N   1      -0.837   1.293  -1.780  0.00  0.00     0.167 HD
ENDBRANCH  27  29
ENDBRANCH  18  27
ENDBRANCH  13  14
ENDBRANCH   1  13
BRANCH   1  31
HETATM   31  C   UNK N   1       5.397   0.857   0.913  0.00  0.00     0.102 C 
BRANCH  31  32
HETATM   32  C   UNK N   1       6.580   0.279   1.641  0.00  0.00     0.010 C 
BRANCH  32  33
HETATM   33  C   UNK N   1       6.537  -1.240   1.470  0.00  0.00     0.005 C 
BRANCH  33  34
HETATM   34  C   UNK N   1       6.818  -1.624   0.018  0.00  0.00     0.038 C 
BRANCH  34  35
HETATM   35  C   UNK N   1       8.014  -2.509  -0.096  0.00  0.00    -0.058 A 
HETATM   36  C   UNK N   1       9.266  -2.065   0.342  0.00  0.00     0.007 A 
HETATM   37  C   UNK N   1      10.392  -2.878   0.215  0.00  0.00     0.001 A 
HETATM   38  C   UNK N   1      10.270  -4.147  -0.353  0.00  0.00     0.000 A 
HETATM   39  C   UNK N   1       9.022  -4.598  -0.795  0.00  0.00     0.001 A 
HETATM   40  C   UNK N   1       7.894  -3.779  -0.670  0.00  0.00     0.007 A 
ENDBRANCH  34  35
ENDBRANCH  33  34
ENDBRANCH  32  33
ENDBRANCH  31  32
ENDBRANCH   1  31
TORSDOF 16
