REMARK  1 active torsions:
REMARK  status: ('A' for Active; 'I' for Inactive)
REMARK    1  A    between atoms: C_3  and  C_8 
ROOT
HETATM    1  O   UNK N   1       3.812   2.349   0.000  0.00  0.00    -0.291 OA
HETATM    2  O   UNK N   1       3.812  -2.349  -0.000  0.00  0.00    -0.291 OA
HETATM    3  C   UNK N   1       4.409  -0.000   0.000  0.00  0.00     0.168 A 
HETATM    4  C   UNK N   1       3.479   1.176   0.000  0.00  0.00     0.176 A 
HETATM    5  C   UNK N   1       3.479  -1.176  -0.000  0.00  0.00     0.176 A 
HETATM    6  C   UNK N   1       2.104   0.689   0.000  0.00  0.00     0.025 A 
HETATM    7  C   UNK N   1       2.104  -0.689  -0.000  0.00  0.00     0.025 A 
HETATM    8  C   UNK N   1       0.917   1.417   0.000  0.00  0.00     0.016 A 
HETATM    9  C   UNK N   1       0.917  -1.417  -0.000  0.00  0.00     0.016 A 
HETATM   10  C   UNK N   1      -0.294   0.705   0.000  0.00  0.00     0.001 A 
HETATM   11  C   UNK N   1      -0.294  -0.705  -0.000  0.00  0.00     0.001 A 
ENDROOT
BRANCH   3  12
HETATM   12  C   UNK N   1       5.901  -0.000  -0.000  0.00  0.00    -0.039 A 
HETATM   13  C   UNK N   1       6.603   1.211   0.000  0.00  0.00     0.008 A 
HETATM   14  C   UNK N   1       8.000   1.211   0.000  0.00  0.00     0.001 A 
HETATM   15  C   UNK N   1       8.698  -0.000  -0.000  0.00  0.00     0.000 A 
HETATM   16  C   UNK N   1       8.000  -1.211  -0.000  0.00  0.00     0.001 A 
HETATM   17  C   UNK N   1       6.603  -1.211  -0.000  0.00  0.00     0.008 A 
ENDBRANCH   3  12
TORSDOF 1
