REMARK  5 active torsions:
REMARK  status: ('A' for Active; 'I' for Inactive)
REMARK    1  A    between atoms: S_1  and  C_11 
REMARK    2  A    between atoms: S_1  and  C_12 
REMARK    3  A    between atoms: N_3  and  C_13 
REMARK       I    between atoms: N_3  and  C_17 
REMARK       I    between atoms: N_6  and  C_17 
REMARK    4  A    between atoms: C_10  and  C_11 
REMARK    5  A    between atoms: C_12  and  C_13 
ROOT
HETATM    1  N   UNK N   1       4.970   1.533   0.011  0.00  0.00    -0.225 N 
HETATM    2  N   UNK N   1       4.390   3.870  -0.063  0.00  0.00    -0.126 N 
HETATM    3  N   UNK N   1       2.704   2.160   0.042  0.00  0.00    -0.230 N 
ATOM      4  HN  UNK N   1       2.512   1.160   0.098  1.00  0.00     0.177 HD
HETATM    5  N   UNK N   1       2.824   5.860   0.006  0.00  0.00    -0.171 NA
HETATM    6  C   UNK N   1       3.957   2.517  -0.006  0.00  0.00     0.682 C 
HETATM    7  C   UNK N   1       1.561   3.045   0.026  0.00  0.00     0.165 C 
HETATM    8  C   UNK N   1       3.548   4.961  -0.026  0.00  0.00     0.196 C 
HETATM    9  H   UNK N   1       5.839   1.745  -0.399  0.00  0.00     0.177 HD
HETATM   10  H   UNK N   1       5.357   4.040  -0.134  0.00  0.00     0.197 HD
ENDROOT
BRANCH   1  11
HETATM   11  C   UNK N   1       4.789   0.243   0.597  0.00  0.00     0.148 C 
BRANCH  11  12
HETATM   12  C   UNK N   1       4.727  -0.795  -0.487  0.00  0.00     0.094 C 
BRANCH  12  13
HETATM   13  S   UNK N   1       2.994  -0.897  -0.918  0.00  0.00    -0.161 SA
BRANCH  13  14
HETATM   14  C   UNK N   1       2.744  -1.711   0.672  0.00  0.00     0.133 C 
BRANCH  14  15
HETATM   15  C   UNK N   1       2.261  -3.026   0.306  0.00  0.00     0.041 A 
HETATM   16  N   UNK N   1       0.983  -3.257  -0.005  0.00  0.00    -0.353 N 
HETATM   17  C   UNK N   1       0.950  -4.549  -0.384  0.00  0.00     0.180 A 
ATOM     18  HN  UNK N   1       0.204  -2.600   0.036  1.00  0.00     0.166 HD
HETATM   19  N   UNK N   1       2.175  -5.123  -0.333  0.00  0.00    -0.354 N 
HETATM   20  C   UNK N   1       2.997  -4.156   0.097  0.00  0.00     0.029 A 
HETATM   21  H   UNK N   1       2.412  -6.050  -0.562  0.00  0.00     0.166 HD
HETATM   22  C   UNK N   1       4.473  -4.314   0.257  0.00  0.00     0.070 C 
ENDBRANCH  14  15
ENDBRANCH  13  14
ENDBRANCH  12  13
ENDBRANCH  11  12
ENDBRANCH   1  11
TORSDOF 5
