REMARK  5 active torsions:
REMARK  status: ('A' for Active; 'I' for Inactive)
REMARK    1  A    between atoms: O_2  and  C_12 
REMARK    2  A    between atoms: O_2  and  C_21 
REMARK       I    between atoms: N_7  and  C_13 
REMARK    3  A    between atoms: N_7  and  C_17 
REMARK    4  A    between atoms: N_10  and  C_19 
REMARK    5  A    between atoms: C_11  and  C_13 
ROOT
HETATM    1  O   UNK N   1       3.498  -0.495   0.000  0.00  0.00    -0.267 OA
HETATM    2  N   UNK N   1       5.723  -0.252   0.000  0.00  0.00    -0.303 N 
HETATM    3  C   UNK N   1       4.598  -1.024   0.000  0.00  0.00     0.260 C 
HETATM    4  H   UNK N   1       6.599  -0.701  -0.000  0.00  0.00     0.171 HD
ENDROOT
BRANCH   3   5
HETATM    5  C   UNK N   1       4.683  -2.512   0.000  0.00  0.00     0.066 A 
HETATM    6  C   UNK N   1       3.503  -3.301   0.000  0.00  0.00     0.094 A 
HETATM    7  C   UNK N   1       3.611  -4.701  -0.000  0.00  0.00     0.038 A 
HETATM    8  C   UNK N   1       4.863  -5.317  -0.000  0.00  0.00     0.003 A 
HETATM    9  C   UNK N   1       6.023  -4.541  -0.000  0.00  0.00     0.001 A 
HETATM   10  C   UNK N   1       5.935  -3.146  -0.000  0.00  0.00     0.020 A 
BRANCH   6  11
HETATM   11  O   UNK N   1       2.293  -2.676   0.000  0.00  0.00    -0.278 OA
BRANCH  11  12
HETATM   12  C   UNK N   1       1.046  -3.213   0.000  0.00  0.00     0.260 C 
HETATM   13  O   UNK N   1       0.869  -4.420  -0.000  0.00  0.00    -0.265 OA
HETATM   14  C   UNK N   1      -0.129  -2.296   0.000  0.00  0.00     0.126 C 
ENDBRANCH  11  12
ENDBRANCH   6  11
ENDBRANCH   3   5
BRANCH   2  15
HETATM   15  C   UNK N   1       5.691   1.176   0.000  0.00  0.00     0.153 A 
HETATM   16  S   UNK N   1       4.342   2.141  -0.000  0.00  0.00    -0.028 SA
HETATM   17  C   UNK N   1       5.121   3.585  -0.000  0.00  0.00     0.162 A 
HETATM   18  C   UNK N   1       6.500   3.309   0.000  0.00  0.00     0.134 A 
HETATM   19  N   UNK N   1       6.805   1.957   0.000  0.00  0.00    -0.343 N 
ATOM     20  HN  UNK N   1       7.757   1.590   0.000  1.00  0.00     0.167 HD
BRANCH  17  21
HETATM   21  N   UNK N   1       4.499   4.857  -0.000  0.00  0.00    -0.107 N 
HETATM   22  O   UNK N   1       5.230   5.951   0.000  0.00  0.00    -0.531 OA
HETATM   23  O   UNK N   1       3.309   4.941  -0.000  0.00  0.00    -0.531 OA
ENDBRANCH  17  21
ENDBRANCH   2  15
TORSDOF 5
