REMARK  5 active torsions:
REMARK  status: ('A' for Active; 'I' for Inactive)
REMARK    1  A    between atoms: N_5  and  C_7 
REMARK    2  A    between atoms: N_6  and  C_11 
REMARK    3  A    between atoms: C_7  and  C_8 
REMARK    4  A    between atoms: C_8  and  C_11 
REMARK    5  A    between atoms: C_16  and  C_24 
ROOT
HETATM    1  S   UNK N   1       3.437  -3.808   0.419  0.00  0.00    -0.086 SA
HETATM    2  N   UNK N   1       3.320  -0.632   0.754  0.00  0.00    -0.345 N 
HETATM    3  C   UNK N   1       4.589  -1.232   0.439  0.00  0.00     0.053 A 
HETATM    4  C   UNK N   1       2.074  -1.341   0.580  0.00  0.00     0.052 A 
HETATM    5  C   UNK N   1       4.752  -2.621   0.246  0.00  0.00     0.032 A 
HETATM    6  C   UNK N   1       2.017  -2.734   0.353  0.00  0.00     0.032 A 
HETATM    7  C   UNK N   1       5.729  -0.406   0.320  0.00  0.00     0.047 A 
HETATM    8  C   UNK N   1       0.857  -0.629   0.598  0.00  0.00     0.031 A 
HETATM    9  C   UNK N   1       6.992  -0.941   0.028  0.00  0.00     0.050 A 
HETATM   10  C   UNK N   1       6.020  -3.147  -0.022  0.00  0.00     0.022 A 
HETATM   11  C   UNK N   1       0.782  -3.361   0.140  0.00  0.00     0.021 A 
HETATM   12  C   UNK N   1       7.131  -2.318  -0.130  0.00  0.00     0.017 A 
HETATM   13  C   UNK N   1      -0.365  -1.260   0.375  0.00  0.00     0.002 A 
HETATM   14  C   UNK N   1      -0.401  -2.628   0.137  0.00  0.00     0.002 A 
ENDROOT
BRANCH   2  15
HETATM   15  C   UNK N   1       3.341   0.715   1.330  0.00  0.00     0.131 C 
BRANCH  15  16
HETATM   16  C   UNK N   1       2.384   1.739   0.725  0.00  0.00     0.050 C 
BRANCH  16  17
HETATM   17  C   UNK N   1       2.675   2.092  -0.731  0.00  0.00     0.273 C 
BRANCH  17  18
HETATM   18  N   UNK N   1       1.695   3.040  -1.278  0.00  0.00     0.080 N 
HETATM   19  C   UNK N   1       0.354   2.473  -1.224  0.00  0.00     0.309 C 
HETATM   20  C   UNK N   1       1.699   4.278  -0.511  0.00  0.00     0.309 C 
ENDBRANCH  17  18
ENDBRANCH  16  17
ENDBRANCH  15  16
ENDBRANCH   2  15
BRANCH   9  21
HETATM   21  C   UNK N   1       8.194  -0.056  -0.130  0.00  0.00     0.417 C 
HETATM   22  F   UNK N   1       7.846   1.281  -0.039  0.00  0.00    -0.166 F 
HETATM   23  F   UNK N   1       8.771  -0.279  -1.368  0.00  0.00    -0.166 F 
HETATM   24  F   UNK N   1       9.118  -0.347   0.857  0.00  0.00    -0.166 F 
ENDBRANCH   9  21
TORSDOF 5
