REMARK  7 active torsions:
REMARK  status: ('A' for Active; 'I' for Inactive)
REMARK    1  A    between atoms: O_1  and  C_9 
REMARK    2  A    between atoms: N_3  and  C_8 
REMARK    3  A    between atoms: C_4  and  C_5 
REMARK    4  A    between atoms: C_4  and  C_6 
REMARK    5  A    between atoms: C_5  and  C_7 
REMARK    6  A    between atoms: C_6  and  C_8 
REMARK    7  A    between atoms: C_7  and  C_9 
ROOT
HETATM    1  C   UNK N   1       5.427   1.072   0.000  0.00  0.00     0.002 C 
ENDROOT
BRANCH   1   2
HETATM    2  C   UNK N   1       4.194   0.198  -0.000  0.00  0.00     0.010 C 
BRANCH   2   3
HETATM    3  C   UNK N   1       2.912   1.011  -0.000  0.00  0.00     0.110 C 
BRANCH   3   4
HETATM    4  C   UNK N   1       1.704   0.116   0.000  0.00  0.00     0.139 C 
HETATM    5  O   UNK N   1       1.824  -1.103  -0.000  0.00  0.00    -0.650 OA
BRANCH   4   6
HETATM    6  O   UNK N   1       0.474   0.658   0.000  0.00  0.00    -0.776 OA
HETATM    7  H   UNK N   1       0.373   1.590   0.000  0.00  0.00     0.167 HD
ENDBRANCH   4   6
ENDBRANCH   3   4
ENDBRANCH   2   3
ENDBRANCH   1   2
BRANCH   1   8
HETATM    8  C   UNK N   1       6.617   0.137   0.000  0.00  0.00     0.019 C 
BRANCH   8   9
HETATM    9  C   UNK N   1       7.919   0.903   0.000  0.00  0.00     0.111 C 
BRANCH   9  10
HETATM   10  N   UNK N   1       9.018  -0.046   0.000  0.00  0.00    -0.430 N 
HETATM   11  H   UNK N   1       8.827  -1.048  -0.000  0.00  0.00     0.149 HD
HETATM   12  H   UNK N   1       9.981   0.290   0.000  0.00  0.00     0.149 HD
ENDBRANCH   9  10
ENDBRANCH   8   9
ENDBRANCH   1   8
TORSDOF 7
