REMARK  7 active torsions:
REMARK  status: ('A' for Active; 'I' for Inactive)
REMARK    1  A    between atoms: O_1  and  C_13 
REMARK    2  A    between atoms: O_1  and  C_15 
REMARK    3  A    between atoms: O_2  and  C_8 
REMARK    4  A    between atoms: N_4  and  C_6 
REMARK    5  A    between atoms: N_4  and  C_7 
REMARK    6  A    between atoms: C_7  and  C_8 
REMARK    7  A    between atoms: C_8  and  C_13 
ROOT
HETATM    1  O   UNK N   1       0.212   3.636  -0.125  0.00  0.00    -0.273 OA
HETATM    2  N   UNK N   1       2.422   3.827  -0.217  0.00  0.00    -0.327 N 
HETATM    3  C   UNK N   1       3.925   1.878  -0.095  0.00  0.00     0.002 A 
HETATM    4  C   UNK N   1       2.744   0.960   0.060  0.00  0.00     0.053 A 
HETATM    5  C   UNK N   1       5.255   1.361  -0.121  0.00  0.00     0.077 A 
HETATM    6  C   UNK N   1       3.723   3.268  -0.234  0.00  0.00     0.043 A 
HETATM    7  C   UNK N   1       1.349   1.585  -0.026  0.00  0.00     0.108 A 
HETATM    8  C   UNK N   1       1.300   3.081  -0.121  0.00  0.00     0.222 A 
HETATM    9  C   UNK N   1       6.323   2.246  -0.311  0.00  0.00     0.037 A 
HETATM   10  C   UNK N   1       4.813   4.124  -0.395  0.00  0.00     0.030 A 
HETATM   11  C   UNK N   1       6.107   3.616  -0.440  0.00  0.00     0.005 A 
HETATM   12  H   UNK N   1       2.331   4.806  -0.278  0.00  0.00     0.169 HD
ENDROOT
BRANCH   5  13
HETATM   13  O   UNK N   1       5.561   0.042   0.034  0.00  0.00    -0.348 OA
BRANCH  13  14
HETATM   14  C   UNK N   1       4.829  -0.867   0.776  0.00  0.00     0.209 C 
BRANCH  14  15
HETATM   15  C   UNK N   1       4.417  -2.093  -0.038  0.00  0.00     0.159 C 
BRANCH  15  16
HETATM   16  O   UNK N   1       3.478  -1.744  -1.005  0.00  0.00    -0.392 OA
HETATM   17  H   UNK N   1       3.362  -1.056  -1.679  0.00  0.00     0.210 HD
ENDBRANCH  15  16
BRANCH  15  18
HETATM   18  C   UNK N   1       5.606  -2.783  -0.689  0.00  0.00     0.148 C 
BRANCH  18  19
HETATM   19  N   UNK N   1       6.120  -3.825   0.199  0.00  0.00    -0.411 N 
HETATM   20  H   UNK N   1       5.530  -4.490   0.699  0.00  0.00     0.154 HD
BRANCH  19  21
HETATM   21  C   UNK N   1       7.583  -3.800   0.286  0.00  0.00     0.014 C 
HETATM   22  C   UNK N   1       8.227  -4.017  -1.076  0.00  0.00     0.037 C 
HETATM   23  C   UNK N   1       8.024  -4.926   1.198  0.00  0.00     0.037 C 
HETATM   24  C   UNK N   1       8.068  -2.490   0.885  0.00  0.00     0.037 C 
ENDBRANCH  19  21
ENDBRANCH  18  19
ENDBRANCH  15  18
ENDBRANCH  14  15
ENDBRANCH  13  14
ENDBRANCH   5  13
TORSDOF 7
