REMARK  4 active torsions:
REMARK  status: ('A' for Active; 'I' for Inactive)
REMARK    1  A    between atoms: O_2  and  C_7 
REMARK    2  A    between atoms: O_2  and  C_16 
REMARK    3  A    between atoms: N_3  and  C_6 
REMARK    4  A    between atoms: N_3  and  C_16 
ROOT
HETATM    1  O   UNK N   1       6.295  -0.608   0.042  0.00  0.00    -0.284 OA
ENDROOT
BRANCH   1   2
HETATM    2  C   UNK N   1       7.533  -0.032   0.107  0.00  0.00     0.079 A 
HETATM    3  C   UNK N   1       8.665  -0.847  -0.008  0.00  0.00     0.049 A 
HETATM    4  C   UNK N   1       9.944  -0.281  -0.001  0.00  0.00    -0.023 A 
HETATM    5  C   UNK N   1      10.097   1.118   0.135  0.00  0.00    -0.026 A 
HETATM    6  C   UNK N   1      11.073  -1.090  -0.151  0.00  0.00     0.012 A 
HETATM    7  C   UNK N   1       8.975   1.927   0.287  0.00  0.00     0.015 A 
HETATM    8  C   UNK N   1      11.371   1.688   0.112  0.00  0.00     0.012 A 
HETATM    9  C   UNK N   1       7.704   1.355   0.277  0.00  0.00     0.038 A 
HETATM   10  C   UNK N   1      12.495   0.874  -0.046  0.00  0.00     0.001 A 
HETATM   11  C   UNK N   1      12.347  -0.512  -0.174  0.00  0.00     0.001 A 
ENDBRANCH   1   2
BRANCH   1  12
HETATM   12  C   UNK N   1       5.081  -0.020  -0.223  0.00  0.00     0.222 C 
HETATM   13  S   UNK N   1       5.020   1.292  -0.846  0.00  0.00    -0.032 SA
BRANCH  12  14
HETATM   14  N   UNK N   1       3.878  -0.793  -0.013  0.00  0.00    -0.322 N 
HETATM   15  C   UNK N   1       4.039  -2.216   0.201  0.00  0.00     0.159 C 
BRANCH  14  16
HETATM   16  C   UNK N   1       2.541  -0.246   0.008  0.00  0.00     0.037 A 
HETATM   17  C   UNK N   1       1.424  -1.102  -0.022  0.00  0.00     0.036 A 
HETATM   18  C   UNK N   1       0.124  -0.584   0.013  0.00  0.00    -0.060 A 
HETATM   19  C   UNK N   1      -0.079   0.794   0.096  0.00  0.00     0.007 A 
HETATM   20  C   UNK N   1      -1.043  -1.500  -0.044  0.00  0.00     0.048 C 
HETATM   21  C   UNK N   1       1.013   1.657   0.145  0.00  0.00     0.003 A 
HETATM   22  C   UNK N   1       2.307   1.141   0.104  0.00  0.00     0.030 A 
ENDBRANCH  14  16
ENDBRANCH  12  14
ENDBRANCH   1  12
TORSDOF 4
