REMARK  10 active torsions:
REMARK  status: ('A' for Active; 'I' for Inactive)
REMARK    1  A    between atoms: O_1  and  C_19 
REMARK    2  A    between atoms: O_1  and  C_20 
REMARK    3  A    between atoms: N_3  and  C_7 
REMARK    4  A    between atoms: N_3  and  C_9 
REMARK    5  A    between atoms: N_3  and  C_10 
REMARK    6  A    between atoms: N_4  and  C_8 
REMARK       I    between atoms: N_4  and  C_15 
REMARK    7  A    between atoms: C_7  and  C_8 
REMARK    8  A    between atoms: C_11  and  C_15 
REMARK    9  A    between atoms: C_18  and  C_20 
REMARK   10  A    between atoms: C_18  and  C_21 
ROOT
HETATM    1  N   UNK N   1       4.815   2.835  -0.243  0.00  0.00    -0.336 N 
ATOM      2  HN  UNK N   1       4.743   3.840  -0.398  1.00  0.00     0.168 HD
HETATM    3  C   UNK N   1       5.002   0.076   0.176  0.00  0.00     0.048 A 
HETATM    4  C   UNK N   1       6.170   0.894   0.163  0.00  0.00     0.006 A 
HETATM    5  C   UNK N   1       6.037   2.287  -0.049  0.00  0.00     0.045 A 
HETATM    6  C   UNK N   1       3.760   0.703  -0.022  0.00  0.00     0.074 A 
HETATM    7  C   UNK N   1       3.680   2.085  -0.236  0.00  0.00     0.143 A 
HETATM    8  C   UNK N   1       7.459   0.366   0.345  0.00  0.00     0.015 A 
HETATM    9  C   UNK N   1       7.168   3.109  -0.069  0.00  0.00     0.030 A 
HETATM   10  C   UNK N   1       8.585   1.192   0.322  0.00  0.00     0.001 A 
HETATM   11  C   UNK N   1       8.439   2.563   0.117  0.00  0.00     0.002 A 
ENDROOT
BRANCH   3  12
HETATM   12  C   UNK N   1       5.086  -1.419   0.400  0.00  0.00     0.252 C 
HETATM   13  O   UNK N   1       6.169  -1.921   0.647  0.00  0.00    -0.268 OA
HETATM   14  N   UNK N   1       4.017  -2.258   0.352  0.00  0.00    -0.355 N 
HETATM   15  H   UNK N   1       4.199  -3.201   0.565  0.00  0.00     0.162 HD
BRANCH  14  16
HETATM   16  C   UNK N   1       2.652  -1.936   0.028  0.00  0.00     0.153 C 
BRANCH  16  17
HETATM   17  C   UNK N   1       1.742  -3.084   0.479  0.00  0.00     0.292 C 
BRANCH  17  18
HETATM   18  N   UNK N   1       2.050  -4.350  -0.191  0.00  0.00     0.089 N 
BRANCH  18  19
HETATM   19  C   UNK N   1       0.904  -5.220   0.052  0.00  0.00     0.268 C 
HETATM   20  C   UNK N   1       0.973  -6.476  -0.805  0.00  0.00     0.037 C 
ENDBRANCH  18  19
BRANCH  18  21
HETATM   21  C   UNK N   1       3.198  -4.957   0.478  0.00  0.00     0.268 C 
HETATM   22  C   UNK N   1       4.118  -5.592  -0.550  0.00  0.00     0.037 C 
ENDBRANCH  18  21
ENDBRANCH  17  18
ENDBRANCH  16  17
ENDBRANCH  14  16
ENDBRANCH   3  12
BRANCH   7  23
HETATM   23  O   UNK N   1       2.479   2.666  -0.451  0.00  0.00    -0.336 OA
BRANCH  23  24
HETATM   24  C   UNK N   1       2.382   3.971  -0.884  0.00  0.00     0.177 C 
BRANCH  24  25
HETATM   25  C   UNK N   1       1.029   4.554  -0.537  0.00  0.00     0.026 C 
BRANCH  25  26
HETATM   26  C   UNK N   1       1.150   5.380   0.728  0.00  0.00    -0.002 C 
HETATM   27  C   UNK N   1       0.752   6.812   0.437  0.00  0.00     0.005 C 
ENDBRANCH  25  26
ENDBRANCH  24  25
ENDBRANCH  23  24
ENDBRANCH   7  23
TORSDOF 10
