REMARK  4 active torsions:
REMARK  status: ('A' for Active; 'I' for Inactive)
REMARK    1  A    between atoms: N_1  and  C_8 
REMARK    2  A    between atoms: C_8  and  C_9 
REMARK    3  A    between atoms: C_10  and  C_11 
REMARK    4  A    between atoms: C_10  and  C_12 
ROOT
HETATM    1  C   UNK N   1       4.021   1.644   0.118  0.00  0.00     0.017 C 
HETATM    2  C   UNK N   1       5.201   0.977   0.026  0.00  0.00    -0.001 C 
ENDROOT
BRANCH   2   3
HETATM    3  C   UNK N   1       5.276  -0.540   0.018  0.00  0.00    -0.024 A 
HETATM    4  C   UNK N   1       6.519  -1.200   0.002  0.00  0.00     0.013 A 
HETATM    5  C   UNK N   1       6.600  -2.595  -0.005  0.00  0.00     0.007 A 
HETATM    6  C   UNK N   1       5.434  -3.360   0.000  0.00  0.00    -0.062 A 
HETATM    7  C   UNK N   1       4.190  -2.730   0.010  0.00  0.00     0.007 A 
HETATM    8  C   UNK N   1       5.517  -4.844  -0.004  0.00  0.00     0.048 C 
HETATM    9  C   UNK N   1       4.115  -1.335   0.019  0.00  0.00     0.013 A 
ENDBRANCH   2   3
BRANCH   2  10
HETATM   10  C   UNK N   1       6.447   1.823  -0.018  0.00  0.00     0.042 A 
HETATM   11  N   UNK N   1       7.686   1.249  -0.035  0.00  0.00    -0.365 N 
HETATM   12  C   UNK N   1       8.829   1.988  -0.040  0.00  0.00     0.088 A 
ATOM     13  HN  UNK N   1       7.758   0.232  -0.044  1.00  0.00     0.165 HD
HETATM   14  C   UNK N   1       8.763   3.380  -0.028  0.00  0.00     0.017 A 
HETATM   15  C   UNK N   1       7.516   4.001  -0.015  0.00  0.00     0.004 A 
HETATM   16  C   UNK N   1       6.356   3.227  -0.007  0.00  0.00     0.030 A 
ENDBRANCH   2  10
BRANCH   1  17
HETATM   17  C   UNK N   1       2.647   1.044   0.266  0.00  0.00     0.300 C 
BRANCH  17  18
HETATM   18  N   UNK N   1       1.621   1.822  -0.421  0.00  0.00     0.091 N 
HETATM   19  C   UNK N   1       1.517   3.143   0.185  0.00  0.00     0.273 C 
HETATM   20  C   UNK N   1       0.074   3.571   0.061  0.00  0.00     0.032 C 
HETATM   21  C   UNK N   1      -0.701   2.278  -0.015  0.00  0.00     0.032 C 
HETATM   22  C   UNK N   1       0.346   1.186  -0.120  0.00  0.00     0.273 C 
ENDBRANCH  17  18
ENDBRANCH   1  17
TORSDOF 4
