REMARK  10 active torsions:
REMARK  status: ('A' for Active; 'I' for Inactive)
REMARK    1  A    between atoms: O_1  and  C_12 
REMARK    2  A    between atoms: O_1  and  C_17 
REMARK    3  A    between atoms: O_2  and  C_13 
REMARK    4  A    between atoms: O_2  and  C_19 
REMARK    5  A    between atoms: O_3  and  C_21 
REMARK    6  A    between atoms: O_4  and  C_22 
REMARK    7  A    between atoms: N_5  and  C_15 
REMARK    8  A    between atoms: N_5  and  C_18 
REMARK    9  A    between atoms: C_17  and  C_21 
REMARK   10  A    between atoms: C_19  and  C_22 
ROOT
HETATM    1  C   UNK N   1       9.370  -1.818   0.095  0.00  0.00     0.035 A 
HETATM    2  C   UNK N   1       8.916  -3.136   0.119  0.00  0.00     0.050 A 
HETATM    3  C   UNK N   1      10.734  -1.551  -0.064  0.00  0.00     0.029 A 
HETATM    4  C   UNK N   1       9.793  -4.201  -0.017  0.00  0.00     0.019 A 
HETATM    5  C   UNK N   1      11.630  -2.627  -0.184  0.00  0.00     0.004 A 
HETATM    6  C   UNK N   1      11.159  -3.951  -0.169  0.00  0.00     0.021 A 
HETATM    7  C   UNK N   1       9.261  -5.536  -0.041  0.00  0.00    -0.078 C 
HETATM    8  C   UNK N   1       8.759  -6.633  -0.054  0.00  0.00     0.018 C 
ENDROOT
BRANCH   1   9
HETATM    9  N   UNK N   1       8.374  -0.829   0.153  0.00  0.00    -0.342 N 
HETATM   10  H   UNK N   1       7.482  -1.214   0.309  0.00  0.00     0.167 HD
BRANCH   9  11
HETATM   11  C   UNK N   1       8.329   0.583   0.044  0.00  0.00     0.119 A 
HETATM   12  N   UNK N   1       9.436   1.377   0.014  0.00  0.00    -0.338 N 
HETATM   13  C   UNK N   1       9.298   2.738  -0.050  0.00  0.00     0.182 A 
ATOM     14  HN  UNK N   1      10.366   0.958   0.038  1.00  0.00     0.168 HD
HETATM   15  N   UNK N   1       8.055   3.313  -0.059  0.00  0.00    -0.351 N 
HETATM   16  C   UNK N   1       6.934   2.540  -0.023  0.00  0.00     0.050 A 
ATOM     17  HN  UNK N   1       7.968   4.329  -0.093  1.00  0.00     0.166 HD
HETATM   18  C   UNK N   1       7.067   1.155   0.009  0.00  0.00     0.038 A 
HETATM   19  C   UNK N   1       5.647   3.101   0.018  0.00  0.00     0.070 A 
HETATM   20  C   UNK N   1       5.941   0.335   0.045  0.00  0.00     0.057 A 
HETATM   21  C   UNK N   1       4.663   0.858   0.091  0.00  0.00     0.103 A 
HETATM   22  C   UNK N   1       4.497   2.264   0.084  0.00  0.00     0.104 A 
BRANCH  21  23
HETATM   23  O   UNK N   1       3.641  -0.028   0.192  0.00  0.00    -0.346 OA
BRANCH  23  24
HETATM   24  C   UNK N   1       2.364   0.295   0.578  0.00  0.00     0.201 C 
BRANCH  24  25
HETATM   25  C   UNK N   1       1.369  -0.219  -0.437  0.00  0.00     0.193 C 
BRANCH  25  26
HETATM   26  O   UNK N   1       0.258   0.624  -0.447  0.00  0.00    -0.394 OA
HETATM   27  C   UNK N   1      -0.769  -0.118   0.136  0.00  0.00     0.201 C 
ENDBRANCH  25  26
ENDBRANCH  24  25
ENDBRANCH  23  24
ENDBRANCH  21  23
BRANCH  22  28
HETATM   28  O   UNK N   1       3.255   2.795   0.158  0.00  0.00    -0.346 OA
BRANCH  28  29
HETATM   29  C   UNK N   1       3.059   4.102   0.512  0.00  0.00     0.201 C 
BRANCH  29  30
HETATM   30  C   UNK N   1       2.247   4.851  -0.505  0.00  0.00     0.193 C 
BRANCH  30  31
HETATM   31  O   UNK N   1       2.509   6.200  -0.290  0.00  0.00    -0.394 OA
HETATM   32  C   UNK N   1       1.288   6.747   0.092  0.00  0.00     0.201 C 
ENDBRANCH  30  31
ENDBRANCH  29  30
ENDBRANCH  28  29
ENDBRANCH  22  28
ENDBRANCH   9  11
ENDBRANCH   1   9
TORSDOF 10
