REMARK  23 active torsions:
REMARK  status: ('A' for Active; 'I' for Inactive)
REMARK    1  A    between atoms: Gd_1  and  Gd_1 
REMARK    2  A    between atoms: O_10  and  C_33 
REMARK    3  A    between atoms: O_11  and  C_34 
REMARK    4  A    between atoms: N_12  and  C_17 
REMARK    5  A    between atoms: N_12  and  C_18 
REMARK    6  A    between atoms: N_12  and  C_21 
REMARK    7  A    between atoms: N_13  and  C_19 
REMARK    8  A    between atoms: N_13  and  C_22 
REMARK    9  A    between atoms: N_13  and  C_24 
REMARK   10  A    between atoms: N_14  and  C_20 
REMARK   11  A    between atoms: N_14  and  C_23 
REMARK   12  A    between atoms: N_14  and  C_25 
REMARK       I    between atoms: N_15  and  C_27 
REMARK   13  A    between atoms: N_15  and  C_31 
REMARK       I    between atoms: N_16  and  C_28 
REMARK   14  A    between atoms: N_16  and  C_32 
REMARK   15  A    between atoms: C_17  and  C_19 
REMARK   16  A    between atoms: C_18  and  C_20 
REMARK   17  A    between atoms: C_21  and  C_26 
REMARK   18  A    between atoms: C_22  and  C_27 
REMARK   19  A    between atoms: C_23  and  C_28 
REMARK   20  A    between atoms: C_24  and  C_29 
REMARK   21  A    between atoms: C_25  and  C_30 
REMARK   22  A    between atoms: C_31  and  C_33 
REMARK   23  A    between atoms: C_32  and  C_34 
ROOT
HETATM    1 Gd   UNK N   1       1.702   3.099   2.041  0.00  0.00     0.000 Gd
ENDROOT
TORSDOF 23
