REMARK  13 active torsions:
REMARK  status: ('A' for Active; 'I' for Inactive)
REMARK    1  A    between atoms: C_21  and  O_1 
REMARK    2  A    between atoms: O_1  and  C_37 
REMARK    3  A    between atoms: C_19  and  O_2 
REMARK    4  A    between atoms: O_3  and  C_29 
REMARK    5  A    between atoms: O_6  and  C_35 
REMARK    6  A    between atoms: O_8  and  C_41 
REMARK    7  A    between atoms: C_47  and  O_10 
REMARK    8  A    between atoms: N_12  and  C_33 
REMARK    9  A    between atoms: C_17  and  C_24 
REMARK   10  A    between atoms: C_19  and  C_29 
REMARK   11  A    between atoms: C_34  and  C_36 
REMARK   12  A    between atoms: C_36  and  C_41 
REMARK   13  A    between atoms: C_47  and  C_54 
ROOT
HETATM    1  N   UNK N   1       2.606  -2.009  -0.564  0.00  0.00     0.098 N 
HETATM    2  N   UNK N   1       7.360  -1.885  -1.072  0.00  0.00    -0.315 N 
HETATM    3  C   UNK N   1       4.997  -2.010  -0.720  0.00  0.00     0.047 C 
HETATM    4  C   UNK N   1       3.745  -2.795  -1.075  0.00  0.00     0.253 C 
HETATM    5  C   UNK N   1       3.819  -4.238  -0.404  0.00  0.00     0.039 C 
HETATM    6  C   UNK N   1       6.266  -2.827  -1.091  0.00  0.00     0.155 C 
HETATM    7  C   UNK N   1       6.500  -4.334  -1.005  0.00  0.00     0.195 C 
HETATM    8  C   UNK N   1       4.648  -1.602   0.710  0.00  0.00     0.049 C 
HETATM    9  C   UNK N   1       5.085  -4.977  -0.942  0.00  0.00     0.193 C 
HETATM   10  C   UNK N   1       5.446  -0.706  -1.381  0.00  0.00    -0.017 C 
HETATM   11  C   UNK N   1       3.126  -1.311   0.621  0.00  0.00     0.274 C 
HETATM   12  C   UNK N   1       2.541  -4.900  -0.833  0.00  0.00    -0.015 C 
HETATM   13  C   UNK N   1       6.818  -0.725  -1.559  0.00  0.00     0.047 C 
HETATM   14  C   UNK N   1       1.407  -2.795  -0.182  0.00  0.00     0.300 C 
HETATM   15  C   UNK N   1       1.393  -4.216  -0.718  0.00  0.00    -0.000 C 
HETATM   16  C   UNK N   1       4.785   0.468  -1.214  0.00  0.00     0.022 C 
HETATM   17  C   UNK N   1       7.572   0.405  -1.626  0.00  0.00     0.067 C 
HETATM   18  C   UNK N   1       5.551   1.618  -1.034  0.00  0.00     0.000 C 
HETATM   19  C   UNK N   1       6.985   1.580  -1.276  0.00  0.00     0.078 C 
ENDROOT
BRANCH  18  20
HETATM   20  C   UNK N   1       4.954   2.551  -0.019  0.00  0.00     0.121 C 
HETATM   21  C   UNK N   1       5.837   3.749   0.072  0.00  0.00     0.038 C 
HETATM   22  C   UNK N   1       6.472   4.211   1.374  0.00  0.00     0.018 C 
HETATM   23  C   UNK N   1       7.894   4.622   1.064  0.00  0.00     0.046 C 
HETATM   24  C   UNK N   1       5.751   5.449   1.838  0.00  0.00     0.277 C 
HETATM   25  C   UNK N   1       7.979   5.716  -0.019  0.00  0.00     0.084 C 
HETATM   26  C   UNK N   1       6.600   6.390  -0.348  0.00  0.00     0.310 C 
HETATM   27  N   UNK N   1       5.606   6.442   0.765  0.00  0.00     0.092 N 
HETATM   28  C   UNK N   1       4.184   6.441   0.339  0.00  0.00     0.277 C 
HETATM   29  C   UNK N   1       3.807   5.499  -0.828  0.00  0.00     0.072 C 
HETATM   30  C   UNK N   1       3.007   4.231  -0.535  0.00  0.00    -0.020 A 
HETATM   31  C   UNK N   1       3.524   2.949  -0.310  0.00  0.00     0.040 A 
HETATM   32  C   UNK N   1       1.629   4.071  -0.459  0.00  0.00    -0.001 A 
HETATM   33  N   UNK N   1       2.521   2.042  -0.192  0.00  0.00    -0.357 N 
HETATM   34  C   UNK N   1       1.386   2.733  -0.261  0.00  0.00     0.043 A 
HETATM   35  H   UNK N   1       2.614   1.068  -0.078  0.00  0.00     0.166 HD
HETATM   36  C   UNK N   1       0.109   2.212  -0.091  0.00  0.00     0.030 A 
HETATM   37  C   UNK N   1      -0.965   3.111  -0.115  0.00  0.00     0.002 A 
HETATM   38  C   UNK N   1      -0.732   4.490  -0.322  0.00  0.00     0.001 A 
HETATM   39  C   UNK N   1       0.579   4.983  -0.510  0.00  0.00     0.014 A 
BRANCH  25  40
HETATM   40  O   UNK N   1       8.451   5.137  -1.199  0.00  0.00    -0.388 OA
HETATM   41  H   UNK N   1       8.266   4.652  -2.018  0.00  0.00     0.210 HD
ENDBRANCH  25  40
BRANCH  25  42
HETATM   42  C   UNK N   1       9.032   6.725   0.413  0.00  0.00     0.035 C 
HETATM   43  C   UNK N   1       8.748   7.321   1.779  0.00  0.00     0.008 C 
ENDBRANCH  25  42
BRANCH  20  44
HETATM   44  C   UNK N   1       4.954   1.745   1.309  0.00  0.00     0.278 C 
HETATM   45  O   UNK N   1       3.923   1.603   1.960  0.00  0.00    -0.264 OA
BRANCH  44  46
HETATM   46  O   UNK N   1       6.090   1.127   1.723  0.00  0.00    -0.325 OA
HETATM   47  C   UNK N   1       6.123   0.339   2.852  0.00  0.00     0.213 C 
ENDBRANCH  44  46
ENDBRANCH  20  44
ENDBRANCH  18  20
BRANCH  19  48
HETATM   48  O   UNK N   1       7.830   2.585  -0.942  0.00  0.00    -0.355 OA
HETATM   49  C   UNK N   1       9.165   2.370  -0.634  0.00  0.00     0.210 C 
ENDBRANCH  19  48
BRANCH   2  50
HETATM   50  C   UNK N   1       8.273  -1.722  -0.061  0.00  0.00     0.356 C 
HETATM   51  O   UNK N   1       8.294  -2.397   0.953  0.00  0.00    -0.283 OA
ENDBRANCH   2  50
BRANCH   5  52
HETATM   52  C   UNK N   1       3.855  -4.194   1.146  0.00  0.00     0.014 C 
HETATM   53  C   UNK N   1       3.857  -5.545   1.832  0.00  0.00     0.006 C 
ENDBRANCH   5  52
BRANCH   7  54
HETATM   54  O   UNK N   1       7.022  -4.769  -2.235  0.00  0.00    -0.375 OA
HETATM   55  H   UNK N   1       6.942  -5.231  -3.084  0.00  0.00     0.211 HD
ENDBRANCH   7  54
BRANCH   7  56
HETATM   56  C   UNK N   1       7.527  -4.737   0.042  0.00  0.00     0.298 C 
HETATM   57  O   UNK N   1       7.159  -5.065   1.156  0.00  0.00    -0.262 OA
BRANCH  56  58
HETATM   58  O   UNK N   1       8.876  -4.674  -0.213  0.00  0.00    -0.324 OA
HETATM   59  C   UNK N   1       9.458  -4.196  -1.375  0.00  0.00     0.213 C 
ENDBRANCH  56  58
ENDBRANCH   7  56
BRANCH   9  60
HETATM   60  O   UNK N   1       4.988  -6.318  -1.245  0.00  0.00    -0.311 OA
BRANCH  60  61
HETATM   61  C   UNK N   1       5.870  -7.226  -0.780  0.00  0.00     0.255 C 
HETATM   62  O   UNK N   1       6.885  -7.472  -1.413  0.00  0.00    -0.266 OA
HETATM   63  C   UNK N   1       5.620  -7.906   0.515  0.00  0.00     0.126 C 
ENDBRANCH  60  61
ENDBRANCH   9  60
TORSDOF 13
