REMARK  0 active torsions:
REMARK  status: ('A' for Active; 'I' for Inactive)
ROOT
HETATM    1  F   UNK N   1       5.400   1.609  -0.000  0.00  0.00    -0.199 F 
HETATM    2  O   UNK N   1       5.222  -1.093   0.000  0.00  0.00    -0.265 OA
HETATM    3  O   UNK N   1       0.748  -0.975   0.000  0.00  0.00    -0.247 OA
HETATM    4  N   UNK N   1       2.983  -1.100  -0.000  0.00  0.00    -0.273 N 
HETATM    5  N   UNK N   1       1.841   0.981   0.000  0.00  0.00    -0.316 N 
HETATM    6  C   UNK N   1       4.188  -0.451  -0.000  0.00  0.00     0.289 A 
HETATM    7  C   UNK N   1       1.814  -0.389  -0.000  0.00  0.00     0.327 A 
HETATM    8  C   UNK N   1       4.222   0.944  -0.000  0.00  0.00     0.199 A 
HETATM    9  C   UNK N   1       3.022   1.650   0.000  0.00  0.00     0.140 A 
HETATM   10  H   UNK N   1       2.958  -2.084  -0.000  0.00  0.00     0.173 HD
HETATM   11  H   UNK N   1       0.995   1.486   0.000  0.00  0.00     0.170 HD
ENDROOT
TORSDOF 0
