REMARK  2 active torsions:
REMARK  status: ('A' for Active; 'I' for Inactive)
REMARK    1  A    between atoms: O_1  and  C_5 
REMARK    2  A    between atoms: O_1  and  C_11 
REMARK       I    between atoms: N_4  and  C_11 
ROOT
HETATM    1  N   UNK N   1       5.160  -2.352  -0.028  0.00  0.00    -0.368 N 
HETATM    2  C   UNK N   1       3.940  -0.284   0.014  0.00  0.00     0.096 A 
HETATM    3  C   UNK N   1       3.971  -1.684  -0.030  0.00  0.00     0.127 A 
HETATM    4  C   UNK N   1       6.345  -1.684   0.019  0.00  0.00     0.090 A 
HETATM    5  C   UNK N   1       5.161   0.406   0.065  0.00  0.00     0.040 A 
HETATM    6  C   UNK N   1       6.366  -0.292   0.068  0.00  0.00     0.020 A 
HETATM    7  C   UNK N   1       5.169  -3.801  -0.081  0.00  0.00     0.154 C 
ENDROOT
BRANCH   2   8
HETATM    8  O   UNK N   1       2.737   0.360   0.005  0.00  0.00    -0.260 OA
BRANCH   8   9
HETATM    9  C   UNK N   1       2.532   1.714  -0.007  0.00  0.00     0.367 C 
HETATM   10  O   UNK N   1       3.482   2.487  -0.028  0.00  0.00    -0.238 OA
HETATM   11  N   UNK N   1       1.264   2.211  -0.001  0.00  0.00    -0.336 N 
HETATM   12  C   UNK N   1       1.032   3.635  -0.018  0.00  0.00     0.154 C 
HETATM   13  C   UNK N   1       0.127   1.328   0.021  0.00  0.00     0.154 C 
ENDBRANCH   8   9
ENDBRANCH   2   8
TORSDOF 2
