REMARK  6 active torsions:
REMARK  status: ('A' for Active; 'I' for Inactive)
REMARK    1  A    between atoms: C_3  and  O_1 
REMARK    2  A    between atoms: O_1  and  C_7 
REMARK    3  A    between atoms: N_2  and  C_6 
REMARK    4  A    between atoms: C_3  and  C_4 
REMARK    5  A    between atoms: C_3  and  C_5 
REMARK    6  A    between atoms: C_4  and  C_6 
ROOT
HETATM    1  C   UNK N   1       4.295   0.247   0.151  0.00  0.00     0.163 C 
ENDROOT
BRANCH   1   2
HETATM    2  O   UNK N   1       3.174  -0.457   0.550  0.00  0.00    -0.341 OA
BRANCH   2   3
HETATM    3  C   UNK N   1       2.917  -1.729   0.153  0.00  0.00     0.075 A 
HETATM    4  C   UNK N   1       1.724  -2.358   0.551  0.00  0.00    -0.029 A 
HETATM    5  C   UNK N   1       1.449  -3.665   0.136  0.00  0.00     0.009 A 
HETATM    6  C   UNK N   1       0.736  -1.645   1.409  0.00  0.00     0.051 C 
HETATM    7  C   UNK N   1       2.357  -4.353  -0.672  0.00  0.00     0.001 A 
HETATM    8  C   UNK N   1       3.545  -3.738  -1.070  0.00  0.00     0.003 A 
HETATM    9  C   UNK N   1       3.824  -2.433  -0.662  0.00  0.00     0.037 A 
ENDBRANCH   2   3
ENDBRANCH   1   2
BRANCH   1  10
HETATM   10  C   UNK N   1       5.494  -0.132   1.012  0.00  0.00     0.056 C 
BRANCH  10  11
HETATM   11  C   UNK N   1       6.752  -0.006   0.172  0.00  0.00     0.116 C 
BRANCH  11  12
HETATM   12  N   UNK N   1       7.907  -0.453   0.924  0.00  0.00    -0.425 N 
HETATM   13  C   UNK N   1       9.069  -0.111   0.124  0.00  0.00     0.139 C 
HETATM   14  H   UNK N   1       7.905  -0.916   1.833  0.00  0.00     0.152 HD
ENDBRANCH  11  12
ENDBRANCH  10  11
ENDBRANCH   1  10
BRANCH   1  15
HETATM   15  C   UNK N   1       4.035   1.733   0.110  0.00  0.00    -0.029 A 
HETATM   16  C   UNK N   1       5.057   2.612  -0.279  0.00  0.00     0.010 A 
HETATM   17  C   UNK N   1       4.819   3.987  -0.352  0.00  0.00     0.001 A 
HETATM   18  C   UNK N   1       3.552   4.494  -0.052  0.00  0.00     0.000 A 
HETATM   19  C   UNK N   1       2.525   3.626   0.328  0.00  0.00     0.001 A 
HETATM   20  C   UNK N   1       2.765   2.251   0.412  0.00  0.00     0.010 A 
ENDBRANCH   1  15
TORSDOF 6
