REMARK  2 active torsions:
REMARK  status: ('A' for Active; 'I' for Inactive)
REMARK    1  A    between atoms: C_5  and  C_6 
REMARK    2  A    between atoms: C_5  and  C_7 
ROOT
HETATM    1  S   UNK N   1       7.234  -1.342  -0.000  0.00  0.00    -0.040 SA
HETATM    2  O   UNK N   1       4.618   2.513   0.000  0.00  0.00    -0.268 OA
HETATM    3  N   UNK N   1       4.822  -1.437   0.000  0.00  0.00    -0.337 N 
HETATM    4  N   UNK N   1       5.887   0.664   0.000  0.00  0.00    -0.300 N 
HETATM    5  C   UNK N   1       3.596  -0.850   0.000  0.00  0.00     0.017 A 
HETATM    6  C   UNK N   1       3.501   0.547   0.000  0.00  0.00     0.099 A 
HETATM    7  C   UNK N   1       5.959  -0.693   0.000  0.00  0.00     0.178 A 
HETATM    8  C   UNK N   1       4.673   1.298   0.000  0.00  0.00     0.249 A 
HETATM    9  H   UNK N   1       4.887  -2.419   0.000  0.00  0.00     0.168 HD
HETATM   10  H   UNK N   1       6.715   1.196  -0.000  0.00  0.00     0.171 HD
ENDROOT
BRANCH   5  11
HETATM   11  C   UNK N   1       2.380  -1.724  -0.000  0.00  0.00     0.057 C 
BRANCH  11  12
HETATM   12  C   UNK N   1       1.070  -0.956  -0.000  0.00  0.00     0.002 C 
HETATM   13  C   UNK N   1      -0.077  -1.941   0.000  0.00  0.00     0.005 C 
ENDBRANCH  11  12
ENDBRANCH   5  11
TORSDOF 2
