REMARK  8 active torsions:
REMARK  status: ('A' for Active; 'I' for Inactive)
REMARK    1  A    between atoms: O_2  and  C_14 
REMARK    2  A    between atoms: O_2  and  C_25 
REMARK    3  A    between atoms: N_4  and  C_10 
REMARK    4  A    between atoms: N_5  and  C_11 
REMARK    5  A    between atoms: C_10  and  C_12 
REMARK    6  A    between atoms: C_10  and  C_13 
REMARK    7  A    between atoms: C_11  and  C_14 
REMARK    8  A    between atoms: C_25  and  C_26 
ROOT
HETATM    1  O   UNK N   1       6.375   5.259   0.671  0.00  0.00    -0.399 OA
HETATM    2  C   UNK N   1       6.277   5.217  -0.720  0.00  0.00     0.190 C 
HETATM    3  H   UNK N   1       6.435   5.214   1.638  0.00  0.00     0.209 HD
ENDROOT
BRANCH   2   4
HETATM    4  C   UNK N   1       6.483   3.794  -1.209  0.00  0.00     0.193 C 
BRANCH   4   5
HETATM    5  O   UNK N   1       5.353   3.018  -0.938  0.00  0.00    -0.387 OA
BRANCH   5   6
HETATM    6  C   UNK N   1       5.743   2.152   0.085  0.00  0.00     0.198 C 
BRANCH   6   7
HETATM    7  C   UNK N   1       4.689   2.164   1.188  0.00  0.00     0.298 C 
BRANCH   7   8
HETATM    8  N   UNK N   1       4.115   0.840   1.436  0.00  0.00     0.093 N 
HETATM    9  C   UNK N   1       5.145  -0.093   1.917  0.00  0.00     0.302 C 
HETATM   10  C   UNK N   1       4.944  -1.498   1.371  0.00  0.00     0.304 C 
HETATM   11  N   UNK N   1       4.995  -1.458  -0.095  0.00  0.00     0.105 N 
HETATM   12  C   UNK N   1       4.098  -0.471  -0.718  0.00  0.00     0.304 C 
HETATM   13  C   UNK N   1       3.304   0.370   0.298  0.00  0.00     0.302 C 
BRANCH  11  14
HETATM   14  C   UNK N   1       4.846  -2.794  -0.705  0.00  0.00     0.289 C 
BRANCH  14  15
HETATM   15  C   UNK N   1       3.519  -3.498  -0.413  0.00  0.00    -0.021 A 
HETATM   16  C   UNK N   1       3.262  -4.748  -1.001  0.00  0.00     0.011 A 
HETATM   17  C   UNK N   1       2.049  -5.405  -0.771  0.00  0.00     0.024 A 
HETATM   18  C   UNK N   1       1.074  -4.813   0.034  0.00  0.00     0.034 A 
HETATM   19 Cl   UNK N   1      -0.448  -5.631   0.316  0.00  0.00    -0.084 Cl
HETATM   20  C   UNK N   1       1.311  -3.564   0.611  0.00  0.00     0.024 A 
HETATM   21  C   UNK N   1       2.526  -2.912   0.389  0.00  0.00     0.011 A 
ENDBRANCH  14  15
BRANCH  14  22
HETATM   22  C   UNK N   1       6.093  -3.606  -0.433  0.00  0.00    -0.021 A 
HETATM   23  C   UNK N   1       7.319  -3.144  -0.932  0.00  0.00     0.010 A 
HETATM   24  C   UNK N   1       8.496  -3.859  -0.697  0.00  0.00     0.001 A 
HETATM   25  C   UNK N   1       8.457  -5.042   0.045  0.00  0.00     0.000 A 
HETATM   26  C   UNK N   1       7.241  -5.511   0.550  0.00  0.00     0.001 A 
HETATM   27  C   UNK N   1       6.062  -4.797   0.314  0.00  0.00     0.010 A 
ENDBRANCH  14  22
ENDBRANCH  11  14
ENDBRANCH   7   8
ENDBRANCH   6   7
ENDBRANCH   5   6
ENDBRANCH   4   5
ENDBRANCH   2   4
TORSDOF 8
