REMARK  6 active torsions:
REMARK  status: ('A' for Active; 'I' for Inactive)
REMARK    1  A    between atoms: O_4  and  C_17 
REMARK    2  A    between atoms: C_10  and  N_7 
REMARK       I    between atoms: N_7  and  C_15 
REMARK    3  A    between atoms: C_18  and  N_8 
REMARK    4  A    between atoms: C_12  and  C_17 
REMARK    5  A    between atoms: C_15  and  C_18 
REMARK    6  A    between atoms: C_18  and  C_19 
ROOT
HETATM    1  S   UNK N   1       1.210  -1.393   1.064  0.00  0.00    -0.136 SA
HETATM    2  O   UNK N   1       4.535   1.441   0.978  0.00  0.00    -0.271 OA
HETATM    3  N   UNK N   1       2.746   0.440  -0.000  0.00  0.00    -0.293 N 
HETATM    4  C   UNK N   1       2.641  -0.986   0.025  0.00  0.00     0.187 A 
HETATM    5  C   UNK N   1       4.086  -0.989   0.768  0.00  0.00     0.210 A 
HETATM    6  C   UNK N   1       3.921   0.474   0.553  0.00  0.00     0.251 A 
HETATM    7  C   UNK N   1       1.721   1.420  -0.196  0.00  0.00     0.115 C 
HETATM    8  C   UNK N   1       0.128  -0.506  -0.124  0.00  0.00     0.112 C 
HETATM    9  C   UNK N   1       0.431   0.974  -0.223  0.00  0.00    -0.041 C 
HETATM   10  C   UNK N   1      -0.745   1.891  -0.344  0.00  0.00     0.047 C 
ENDROOT
BRANCH   5  11
HETATM   11  N   UNK N   1       5.138  -1.526  -0.066  0.00  0.00    -0.343 N 
HETATM   12  C   UNK N   1       6.452  -1.296   0.190  0.00  0.00     0.245 C 
HETATM   13  O   UNK N   1       6.782  -0.554   1.107  0.00  0.00    -0.271 OA
HETATM   14  H   UNK N   1       4.894  -2.077  -0.844  0.00  0.00     0.163 HD
BRANCH  12  15
HETATM   15  C   UNK N   1       7.497  -1.983  -0.652  0.00  0.00     0.201 C 
BRANCH  15  16
HETATM   16  N   UNK N   1       7.355  -3.424  -0.491  0.00  0.00    -0.415 N 
HETATM   17  H   UNK N   1       6.432  -3.843  -0.379  0.00  0.00     0.151 HD
HETATM   18  H   UNK N   1       8.185  -4.018  -0.491  0.00  0.00     0.151 HD
ENDBRANCH  15  16
BRANCH  15  19
HETATM   19  C   UNK N   1       8.912  -1.532  -0.358  0.00  0.00    -0.027 A 
HETATM   20  C   UNK N   1       9.264  -0.190  -0.563  0.00  0.00     0.010 A 
HETATM   21  C   UNK N   1      10.569   0.245  -0.315  0.00  0.00     0.001 A 
HETATM   22  C   UNK N   1      11.535  -0.660   0.133  0.00  0.00     0.000 A 
HETATM   23  C   UNK N   1      11.196  -2.000   0.335  0.00  0.00     0.001 A 
HETATM   24  C   UNK N   1       9.891  -2.437   0.090  0.00  0.00     0.010 A 
ENDBRANCH  15  19
ENDBRANCH  12  15
ENDBRANCH   5  11
BRANCH   7  25
HETATM   25  C   UNK N   1       2.070   2.881  -0.276  0.00  0.00     0.194 C 
HETATM   26  O   UNK N   1       3.235   3.227  -0.367  0.00  0.00    -0.645 OA
BRANCH  25  27
HETATM   27  O   UNK N   1       1.115   3.830  -0.275  0.00  0.00    -0.772 OA
HETATM   28  H   UNK N   1       1.354   4.736  -0.275  0.00  0.00     0.167 HD
ENDBRANCH  25  27
ENDBRANCH   7  25
TORSDOF 6
