REMARK  6 active torsions:
REMARK  status: ('A' for Active; 'I' for Inactive)
REMARK    1  A    between atoms: N_1  and  C_5 
REMARK    2  A    between atoms: N_2  and  C_8 
REMARK    3  A    between atoms: C_5  and  C_9 
REMARK    4  A    between atoms: C_5  and  C_10 
REMARK    5  A    between atoms: C_8  and  C_11 
REMARK    6  A    between atoms: C_20  and  C_23 
ROOT
HETATM    1  N   UNK N   1       3.362  -1.711  -0.103  0.00  0.00     0.105 N 
HETATM    2  N   UNK N   1       3.189   1.170  -0.240  0.00  0.00     0.095 N 
HETATM    3  C   UNK N   1       2.116  -1.008   0.237  0.00  0.00     0.304 C 
HETATM    4  C   UNK N   1       4.452  -0.836   0.333  0.00  0.00     0.304 C 
HETATM    5  C   UNK N   1       2.031   0.317  -0.535  0.00  0.00     0.303 C 
HETATM    6  C   UNK N   1       4.421   0.419  -0.516  0.00  0.00     0.303 C 
ENDROOT
BRANCH   1   7
HETATM    7  C   UNK N   1       3.452  -2.985   0.630  0.00  0.00     0.289 C 
BRANCH   7   8
HETATM    8  C   UNK N   1       4.750  -3.739   0.370  0.00  0.00    -0.021 A 
HETATM    9  C   UNK N   1       5.642  -3.331  -0.643  0.00  0.00     0.010 A 
HETATM   10  C   UNK N   1       6.827  -4.032  -0.868  0.00  0.00     0.001 A 
HETATM   11  C   UNK N   1       7.137  -5.148  -0.090  0.00  0.00     0.000 A 
HETATM   12  C   UNK N   1       6.257  -5.566   0.913  0.00  0.00     0.001 A 
HETATM   13  C   UNK N   1       5.067  -4.863   1.141  0.00  0.00     0.010 A 
ENDBRANCH   7   8
BRANCH   7  14
HETATM   14  C   UNK N   1       2.281  -3.884   0.304  0.00  0.00    -0.021 A 
HETATM   15  C   UNK N   1       2.152  -4.458  -0.970  0.00  0.00     0.010 A 
HETATM   16  C   UNK N   1       1.061  -5.284  -1.260  0.00  0.00     0.001 A 
HETATM   17  C   UNK N   1       0.089  -5.523  -0.285  0.00  0.00     0.000 A 
HETATM   18  C   UNK N   1       0.210  -4.945   0.982  0.00  0.00     0.001 A 
HETATM   19  C   UNK N   1       1.309  -4.131   1.278  0.00  0.00     0.010 A 
ENDBRANCH   7  14
ENDBRANCH   1   7
BRANCH   2  20
HETATM   20  C   UNK N   1       3.108   2.326  -1.140  0.00  0.00     0.300 C 
BRANCH  20  21
HETATM   21  C   UNK N   1       4.380   3.127  -1.140  0.00  0.00     0.004 C 
HETATM   22  C   UNK N   1       4.764   3.835  -0.078  0.00  0.00     0.009 C 
BRANCH  22  23
HETATM   23  C   UNK N   1       6.097   4.462  -0.025  0.00  0.00    -0.036 A 
HETATM   24  C   UNK N   1       6.414   5.312   1.038  0.00  0.00     0.011 A 
HETATM   25  C   UNK N   1       7.689   5.882   1.127  0.00  0.00     0.001 A 
HETATM   26  C   UNK N   1       8.655   5.592   0.158  0.00  0.00     0.000 A 
HETATM   27  C   UNK N   1       8.347   4.737  -0.903  0.00  0.00     0.001 A 
HETATM   28  C   UNK N   1       7.072   4.174  -0.995  0.00  0.00     0.011 A 
ENDBRANCH  22  23
ENDBRANCH  20  21
ENDBRANCH   2  20
TORSDOF 6
