REMARK  1 active torsions:
REMARK  status: ('A' for Active; 'I' for Inactive)
REMARK       I    between atoms: N_4  and  C_9 
REMARK    1  A    between atoms: N_4  and  C_10 
ROOT
HETATM    1  N   UNK N   1       3.636   3.102   0.000  0.00  0.00    -0.225 N 
HETATM    2  N   UNK N   1       2.839   0.770   0.000  0.00  0.00    -0.189 N 
HETATM    3  N   UNK N   1       5.124   1.462  -0.000  0.00  0.00    -0.225 N 
ATOM      4  HN  UNK N   1       5.502   0.514  -0.000  1.00  0.00     0.177 HD
HETATM    5  C   UNK N   1       4.892   3.806   0.000  0.00  0.00     0.158 A 
HETATM    6  C   UNK N   1       5.931   2.659  -0.000  0.00  0.00     0.158 A 
HETATM    7  C   UNK N   1       3.893   1.736   0.000  0.00  0.00     0.674 A 
HETATM    8  H   UNK N   1       2.745   3.520   0.000  0.00  0.00     0.177 HD
HETATM    9  H   UNK N   1       1.949   1.189   0.000  0.00  0.00     0.184 HD
ENDROOT
BRANCH   2  10
HETATM   10  C   UNK N   1       2.765  -0.667   0.000  0.00  0.00     0.092 A 
HETATM   11  C   UNK N   1       3.875  -1.583   0.000  0.00  0.00     0.063 A 
HETATM   12 Cl   UNK N   1       5.579  -1.187   0.000  0.00  0.00    -0.082 Cl
HETATM   13  C   UNK N   1       3.630  -2.959   0.000  0.00  0.00     0.026 A 
HETATM   14  C   UNK N   1       2.338  -3.466  -0.000  0.00  0.00     0.003 A 
HETATM   15  C   UNK N   1       1.258  -2.598  -0.000  0.00  0.00     0.026 A 
HETATM   16  C   UNK N   1       1.460  -1.219  -0.000  0.00  0.00     0.063 A 
HETATM   17 Cl   UNK N   1       0.037  -0.185  -0.000  0.00  0.00    -0.082 Cl
ENDBRANCH   2  10
TORSDOF 1
