REMARK  7 active torsions:
REMARK  status: ('A' for Active; 'I' for Inactive)
REMARK    1  A    between atoms: O_3  and  C_17 
REMARK    2  A    between atoms: O_6  and  C_21 
REMARK    3  A    between atoms: C_13  and  N_9 
REMARK       I    between atoms: N_9  and  C_18 
REMARK    4  A    between atoms: C_12  and  C_17 
REMARK    5  A    between atoms: C_18  and  C_19 
REMARK    6  A    between atoms: C_19  and  C_20 
REMARK    7  A    between atoms: C_19  and  C_21 
ROOT
HETATM    1  O   UNK N   1       3.803   0.036   1.262  0.00  0.00    -0.272 OA
HETATM    2  N   UNK N   1       5.494   0.768  -0.004  0.00  0.00    -0.344 N 
HETATM    3  C   UNK N   1       4.184   0.738   0.334  0.00  0.00     0.237 C 
HETATM    4  H   UNK N   1       5.774   1.326  -0.766  0.00  0.00     0.163 HD
ENDROOT
BRANCH   2   5
HETATM    5  C   UNK N   1       6.495   0.013   0.709  0.00  0.00     0.210 A 
HETATM    6  C   UNK N   1       7.973   0.428   0.191  0.00  0.00     0.183 A 
HETATM    7  S   UNK N   1       9.378   0.349   1.342  0.00  0.00    -0.129 SA
HETATM    8  N   UNK N   1       8.032  -0.820  -0.475  0.00  0.00    -0.318 N 
HETATM    9  C   UNK N   1      10.305  -0.565   0.036  0.00  0.00     0.033 C 
HETATM   10  C   UNK N   1       9.292  -1.524  -0.652  0.00  0.00     0.204 C 
HETATM   11  C   UNK N   1      10.800   0.444  -0.987  0.00  0.00     0.029 C 
HETATM   12  C   UNK N   1      11.532  -1.230   0.643  0.00  0.00     0.029 C 
HETATM   13  C   UNK N   1       6.844  -1.197  -0.084  0.00  0.00     0.247 A 
HETATM   14  O   UNK N   1       6.328  -2.299  -0.145  0.00  0.00    -0.271 OA
BRANCH  10  15
HETATM   15  C   UNK N   1       9.373  -2.961  -0.138  0.00  0.00     0.165 C 
HETATM   16  O   UNK N   1      10.380  -3.612  -0.366  0.00  0.00    -0.648 OA
BRANCH  15  17
HETATM   17  O   UNK N   1       8.378  -3.539   0.557  0.00  0.00    -0.775 OA
HETATM   18  H   UNK N   1       7.683  -3.140   1.042  0.00  0.00     0.167 HD
ENDBRANCH  15  17
ENDBRANCH  10  15
ENDBRANCH   2   5
BRANCH   3  19
HETATM   19  C   UNK N   1       3.199   1.574  -0.454  0.00  0.00     0.208 C 
BRANCH  19  20
HETATM   20  C   UNK N   1       1.768   1.097  -0.262  0.00  0.00    -0.035 A 
HETATM   21  C   UNK N   1       1.443  -0.209  -0.662  0.00  0.00     0.008 A 
HETATM   22  C   UNK N   1       0.142  -0.696  -0.513  0.00  0.00     0.001 A 
HETATM   23  C   UNK N   1      -0.850   0.118   0.036  0.00  0.00     0.000 A 
HETATM   24  C   UNK N   1      -0.541   1.421   0.435  0.00  0.00     0.001 A 
HETATM   25  C   UNK N   1       0.760   1.908   0.285  0.00  0.00     0.008 A 
ENDBRANCH  19  20
BRANCH  19  26
HETATM   26  C   UNK N   1       3.498   3.052  -0.251  0.00  0.00     0.157 C 
HETATM   27  O   UNK N   1       4.602   3.485  -0.544  0.00  0.00    -0.649 OA
BRANCH  26  28
HETATM   28  O   UNK N   1       2.573   3.903   0.232  0.00  0.00    -0.775 OA
HETATM   29  H   UNK N   1       2.764   4.757   0.569  0.00  0.00     0.167 HD
ENDBRANCH  26  28
ENDBRANCH  19  26
ENDBRANCH   3  19
TORSDOF 7
