REMARK  13 active torsions:
REMARK  status: ('A' for Active; 'I' for Inactive)
REMARK    1  A    between atoms: C_12  and  O_1 
REMARK    2  A    between atoms: C_16  and  O_1 
REMARK    3  A    between atoms: C_13  and  O_4 
REMARK    4  A    between atoms: C_15  and  O_5 
REMARK    5  A    between atoms: C_17  and  O_6 
REMARK    6  A    between atoms: C_18  and  O_7 
REMARK    7  A    between atoms: C_19  and  O_8 
REMARK    8  A    between atoms: O_9  and  C_21 
REMARK    9  A    between atoms: O_10  and  C_22 
REMARK   10  A    between atoms: O_11  and  C_23 
REMARK   11  A    between atoms: C_14  and  C_21 
REMARK   12  A    between atoms: C_15  and  C_22 
REMARK   13  A    between atoms: C_20  and  C_23 
ROOT
HETATM    1  O   UNK N   1       5.818  -0.205  -0.752  0.00  0.00    -0.348 OA
ENDROOT
BRANCH   1   2
HETATM    2  C   UNK N   1       5.314   0.498   0.357  0.00  0.00     0.190 C 
HETATM    3  C   UNK N   1       6.405   1.230   1.071  0.00  0.00     0.214 C 
HETATM    4  C   UNK N   1       6.602   2.448   0.196  0.00  0.00     0.213 C 
HETATM    5  O   UNK N   1       5.321   2.813  -0.273  0.00  0.00    -0.341 OA
HETATM    6  C   UNK N   1       4.482   1.675  -0.125  0.00  0.00     0.180 C 
BRANCH   3   7
HETATM    7  O   UNK N   1       7.569   0.472   1.236  0.00  0.00    -0.387 OA
HETATM    8  H   UNK N   1       7.517  -0.490   1.351  0.00  0.00     0.210 HD
ENDBRANCH   3   7
BRANCH   4   9
HETATM    9  O   UNK N   1       7.424   2.152  -0.899  0.00  0.00    -0.362 OA
HETATM   10  H   UNK N   1       7.531   1.557  -1.658  0.00  0.00     0.213 HD
ENDBRANCH   4   9
BRANCH   4  11
HETATM   11  C   UNK N   1       7.222   3.566   1.023  0.00  0.00     0.235 C 
BRANCH  11  12
HETATM   12  O   UNK N   1       7.363   4.725   0.258  0.00  0.00    -0.395 OA
HETATM   13  H   UNK N   1       8.109   5.043  -0.274  0.00  0.00     0.209 HD
ENDBRANCH  11  12
ENDBRANCH   4  11
BRANCH   6  14
HETATM   14  C   UNK N   1       3.380   1.975   0.879  0.00  0.00     0.198 C 
BRANCH  14  15
HETATM   15  O   UNK N   1       2.483   2.893   0.335  0.00  0.00    -0.398 OA
HETATM   16  H   UNK N   1       2.725   3.753  -0.044  0.00  0.00     0.209 HD
ENDBRANCH  14  15
ENDBRANCH   6  14
ENDBRANCH   1   2
BRANCH   1  17
HETATM   17  C   UNK N   1       5.126  -1.433  -0.841  0.00  0.00     0.292 C 
HETATM   18  O   UNK N   1       3.751  -1.278  -1.183  0.00  0.00    -0.348 OA
HETATM   19  C   UNK N   1       2.956  -1.519  -0.043  0.00  0.00     0.179 C 
HETATM   20  C   UNK N   1       2.992  -3.009   0.352  0.00  0.00     0.180 C 
HETATM   21  C   UNK N   1       4.418  -3.577   0.244  0.00  0.00     0.183 C 
HETATM   22  C   UNK N   1       5.436  -2.434   0.302  0.00  0.00     0.204 C 
BRANCH  19  23
HETATM   23  C   UNK N   1       1.540  -0.995  -0.234  0.00  0.00     0.198 C 
BRANCH  23  24
HETATM   24  O   UNK N   1       0.921  -1.636  -1.308  0.00  0.00    -0.398 OA
HETATM   25  H   UNK N   1       0.320  -1.486  -2.054  0.00  0.00     0.209 HD
ENDBRANCH  23  24
ENDBRANCH  19  23
BRANCH  20  26
HETATM   26  O   UNK N   1       2.523  -3.149   1.659  0.00  0.00    -0.390 OA
HETATM   27  H   UNK N   1       2.275  -2.916   2.567  0.00  0.00     0.210 HD
ENDBRANCH  20  26
BRANCH  21  28
HETATM   28  O   UNK N   1       4.549  -4.267  -0.964  0.00  0.00    -0.390 OA
HETATM   29  H   UNK N   1       4.181  -4.585  -1.803  0.00  0.00     0.210 HD
ENDBRANCH  21  28
BRANCH  22  30
HETATM   30  O   UNK N   1       6.743  -2.912   0.198  0.00  0.00    -0.388 OA
HETATM   31  H   UNK N   1       6.909  -3.865   0.126  0.00  0.00     0.210 HD
ENDBRANCH  22  30
ENDBRANCH   1  17
TORSDOF 13
