REMARK  5 active torsions:
REMARK  status: ('A' for Active; 'I' for Inactive)
REMARK    1  A    between atoms: C_6  and  O_1 
REMARK    2  A    between atoms: N_4  and  C_5 
REMARK    3  A    between atoms: C_5  and  C_6 
REMARK    4  A    between atoms: C_6  and  C_10 
REMARK    5  A    between atoms: C_10  and  C_11 
ROOT
HETATM    1  C   UNK N   1       3.903   0.327   0.014  0.00  0.00     0.154 C 
ENDROOT
BRANCH   1   2
HETATM    2  O   UNK N   1       4.181  -1.022  -0.219  0.00  0.00    -0.393 OA
HETATM    3  H   UNK N   1       3.466  -1.658  -0.381  0.00  0.00     0.210 HD
ENDBRANCH   1   2
BRANCH   1   4
HETATM    4  C   UNK N   1       2.611   0.704  -0.716  0.00  0.00     0.268 C 
BRANCH   4   5
HETATM    5  N   UNK N   1       1.384   0.384   0.023  0.00  0.00    -0.076 N 
HETATM    6  C   UNK N   1       0.258   0.583  -0.871  0.00  0.00     0.271 C 
HETATM    7  C   UNK N   1       1.229   1.285   1.154  0.00  0.00     0.271 C 
HETATM    8  C   UNK N   1       1.347  -0.994   0.491  0.00  0.00     0.271 C 
ENDBRANCH   4   5
ENDBRANCH   1   4
BRANCH   1   9
HETATM    9  C   UNK N   1       5.037   1.197  -0.522  0.00  0.00     0.146 C 
BRANCH   9  10
HETATM   10  C   UNK N   1       6.389   0.903   0.070  0.00  0.00     0.175 C 
HETATM   11  O   UNK N   1       7.426   1.709  -0.226  0.00  0.00    -0.648 OA
HETATM   12  O   UNK N   1       6.563  -0.057   0.804  0.00  0.00    -0.648 OA
ENDBRANCH   9  10
ENDBRANCH   1   9
TORSDOF 5
