REMARK  5 active torsions:
REMARK  status: ('A' for Active; 'I' for Inactive)
REMARK    1  A    between atoms: O_3  and  C_16 
REMARK    2  A    between atoms: N_5  and  C_7 
REMARK    3  A    between atoms: N_5  and  C_9 
REMARK    4  A    between atoms: C_6  and  C_8 
REMARK    5  A    between atoms: C_8  and  C_16 
ROOT
HETATM    1  C   UNK N   1       4.093   1.870   0.349  0.00  0.00    -0.022 A 
HETATM    2  C   UNK N   1       4.054   0.530  -0.090  0.00  0.00     0.039 A 
HETATM    3  C   UNK N   1       5.303   2.579   0.304  0.00  0.00     0.010 A 
HETATM    4  C   UNK N   1       5.216  -0.052  -0.623  0.00  0.00     0.030 A 
HETATM    5  C   UNK N   1       6.458   1.979  -0.198  0.00  0.00     0.001 A 
HETATM    6  C   UNK N   1       6.413   0.668  -0.672  0.00  0.00     0.002 A 
ENDROOT
BRANCH   2   7
HETATM    7  N   UNK N   1       2.835  -0.207  -0.013  0.00  0.00    -0.353 N 
HETATM    8  H   UNK N   1       2.005   0.319   0.049  0.00  0.00     0.166 HD
BRANCH   7   9
HETATM    9  C   UNK N   1       2.691  -1.629  -0.017  0.00  0.00     0.076 A 
HETATM   10  C   UNK N   1       3.595  -2.506   0.652  0.00  0.00     0.062 A 
HETATM   11 Cl   UNK N   1       4.948  -1.952   1.630  0.00  0.00    -0.082 Cl
HETATM   12  C   UNK N   1       3.374  -3.886   0.620  0.00  0.00     0.026 A 
HETATM   13  C   UNK N   1       2.277  -4.418  -0.053  0.00  0.00     0.003 A 
HETATM   14  C   UNK N   1       1.370  -3.568  -0.681  0.00  0.00     0.026 A 
HETATM   15  C   UNK N   1       1.567  -2.186  -0.662  0.00  0.00     0.062 A 
HETATM   16 Cl   UNK N   1       0.381  -1.160  -1.452  0.00  0.00    -0.082 Cl
ENDBRANCH   7   9
ENDBRANCH   2   7
BRANCH   1  17
HETATM   17  C   UNK N   1       2.864   2.538   0.899  0.00  0.00     0.150 C 
BRANCH  17  18
HETATM   18  C   UNK N   1       2.530   3.815   0.182  0.00  0.00     0.143 C 
HETATM   19  O   UNK N   1       3.286   4.771   0.247  0.00  0.00    -0.650 OA
BRANCH  18  20
HETATM   20  O   UNK N   1       1.374   3.923  -0.498  0.00  0.00    -0.776 OA
HETATM   21  H   UNK N   1       1.037   4.658  -0.972  0.00  0.00     0.167 HD
ENDBRANCH  18  20
ENDBRANCH  17  18
ENDBRANCH   1  17
TORSDOF 5
