REMARK  4 active torsions:
REMARK  status: ('A' for Active; 'I' for Inactive)
REMARK    1  A    between atoms: C_17  and  O_5 
REMARK    2  A    between atoms: O_7  and  C_27 
REMARK    3  A    between atoms: C_12  and  C_22 
REMARK    4  A    between atoms: C_22  and  C_27 
ROOT
HETATM    1  F   UNK N   1       4.009   0.803   1.831  0.00  0.00    -0.238 F 
HETATM    2  F   UNK N   1       0.780  -0.919  -0.883  0.00  0.00    -0.245 F 
HETATM    3  O   UNK N   1       7.716  -1.992   1.337  0.00  0.00    -0.334 OA
HETATM    4  O   UNK N   1       7.439  -3.939   0.078  0.00  0.00    -0.347 OA
HETATM    5  O   UNK N   1      -0.545   3.909  -0.014  0.00  0.00    -0.289 OA
HETATM    6  C   UNK N   1       6.597  -0.538  -0.288  0.00  0.00     0.004 C 
HETATM    7  C   UNK N   1       5.316  -1.269   0.115  0.00  0.00     0.007 C 
HETATM    8  C   UNK N   1       4.050  -0.457  -0.218  0.00  0.00     0.037 C 
HETATM    9  C   UNK N   1       7.651  -1.628  -0.014  0.00  0.00     0.160 C 
HETATM   10  C   UNK N   1       4.121   0.956   0.454  0.00  0.00     0.147 C 
HETATM   11  C   UNK N   1       7.012  -2.841  -0.665  0.00  0.00     0.168 C 
HETATM   12  C   UNK N   1       5.478  -2.640  -0.547  0.00  0.00     0.041 C 
HETATM   13  C   UNK N   1       6.695   0.753   0.518  0.00  0.00     0.048 C 
HETATM   14  C   UNK N   1       5.493   1.649   0.172  0.00  0.00     0.160 C 
HETATM   15  C   UNK N   1       2.917   1.801  -0.069  0.00  0.00     0.039 C 
HETATM   16  C   UNK N   1       2.818  -1.189   0.320  0.00  0.00     0.050 C 
HETATM   17  C   UNK N   1       6.617  -0.177  -1.792  0.00  0.00     0.019 C 
HETATM   18  C   UNK N   1       1.485  -0.438   0.205  0.00  0.00     0.201 C 
HETATM   19  C   UNK N   1       7.838  -3.405   1.325  0.00  0.00     0.159 C 
HETATM   20  C   UNK N   1       1.579   1.073   0.124  0.00  0.00    -0.027 C 
HETATM   21  C   UNK N   1       3.064   2.028  -1.578  0.00  0.00     0.028 C 
HETATM   22  C   UNK N   1       2.869   3.197   0.531  0.00  0.00    -0.006 C 
HETATM   23  C   UNK N   1       6.957  -3.990   2.412  0.00  0.00     0.078 C 
HETATM   24  C   UNK N   1       9.281  -3.795   1.598  0.00  0.00     0.078 C 
HETATM   25  C   UNK N   1       0.432   1.782   0.116  0.00  0.00     0.061 C 
HETATM   26  C   UNK N   1       1.738   3.917   0.510  0.00  0.00     0.052 C 
HETATM   27  C   UNK N   1       0.473   3.257   0.138  0.00  0.00     0.172 C 
ENDROOT
BRANCH   9  28
HETATM   28  C   UNK N   1       9.057  -1.273  -0.473  0.00  0.00     0.188 C 
HETATM   29  O   UNK N   1       9.606  -1.913  -1.357  0.00  0.00    -0.292 OA
BRANCH  28  30
HETATM   30  C   UNK N   1       9.793  -0.150   0.186  0.00  0.00     0.245 C 
BRANCH  30  31
HETATM   31  O   UNK N   1      10.922  -0.645   0.840  0.00  0.00    -0.393 OA
HETATM   32  H   UNK N   1      11.016  -1.497   1.295  0.00  0.00     0.209 HD
ENDBRANCH  30  31
ENDBRANCH  28  30
ENDBRANCH   9  28
BRANCH  14  33
HETATM   33  O   UNK N   1       5.613   2.847   0.879  0.00  0.00    -0.392 OA
HETATM   34  H   UNK N   1       6.376   3.191   1.370  0.00  0.00     0.210 HD
ENDBRANCH  14  33
TORSDOF 4
