REMARK  1 active torsions:
REMARK  status: ('A' for Active; 'I' for Inactive)
REMARK    1  A    between atoms: C_4  and  C_6 
ROOT
HETATM    1  O   UNK N   1       4.856  -1.023   0.655  0.00  0.00    -0.272 OA
HETATM    2  O   UNK N   1       0.669  -1.806  -0.560  0.00  0.00    -0.273 OA
HETATM    3  N   UNK N   1       2.818  -1.722   0.055  0.00  0.00    -0.297 N 
HETATM    4  C   UNK N   1       3.178   0.624   0.096  0.00  0.00     0.045 A 
HETATM    5  C   UNK N   1       1.733   0.338  -0.383  0.00  0.00     0.122 A 
HETATM    6  C   UNK N   1       3.720  -0.769   0.290  0.00  0.00     0.233 A 
HETATM    7  C   UNK N   1       3.125   1.369   1.420  0.00  0.00     0.026 C 
HETATM    8  C   UNK N   1       1.670  -1.156  -0.313  0.00  0.00     0.225 A 
HETATM    9  H   UNK N   1       2.976  -2.690   0.140  0.00  0.00     0.171 HD
ENDROOT
BRANCH   4  10
HETATM   10  C   UNK N   1       3.940   1.422  -0.966  0.00  0.00     0.015 C 
HETATM   11  C   UNK N   1       5.347   1.803  -0.522  0.00  0.00     0.006 C 
ENDBRANCH   4  10
TORSDOF 1
