REMARK  10 active torsions:
REMARK  status: ('A' for Active; 'I' for Inactive)
REMARK    1  A    between atoms: O_1  and  C_10 
REMARK    2  A    between atoms: O_2  and  C_20 
REMARK    3  A    between atoms: N_4  and  C_6 
REMARK    4  A    between atoms: N_4  and  C_8 
REMARK       I    between atoms: N_5  and  C_24 
REMARK    5  A    between atoms: C_6  and  C_7 
REMARK    6  A    between atoms: C_7  and  C_9 
REMARK    7  A    between atoms: C_8  and  C_10 
REMARK    8  A    between atoms: C_9  and  C_13 
REMARK    9  A    between atoms: C_10  and  C_12 
REMARK   10  A    between atoms: C_18  and  C_24 
ROOT
HETATM    1  C   UNK N   1       5.465   1.039  -0.340  0.00  0.00     0.168 C 
ENDROOT
BRANCH   1   2
HETATM    2  O   UNK N   1       6.554   1.914  -0.291  0.00  0.00    -0.389 OA
HETATM    3  H   UNK N   1       7.458   1.563  -0.258  0.00  0.00     0.210 HD
ENDBRANCH   1   2
BRANCH   1   4
HETATM    4  C   UNK N   1       5.634  -0.052   0.702  0.00  0.00     0.150 C 
BRANCH   4   5
HETATM    5  N   UNK N   1       6.012  -1.284   0.026  0.00  0.00    -0.415 N 
HETATM    6  H   UNK N   1       6.906  -1.457  -0.434  0.00  0.00     0.153 HD
BRANCH   5   7
HETATM    7  C   UNK N   1       4.905  -2.233   0.112  0.00  0.00     0.072 C 
HETATM    8  C   UNK N   1       3.787  -1.839  -0.836  0.00  0.00     0.031 C 
BRANCH   7   9
HETATM    9  C   UNK N   1       5.380  -3.611  -0.305  0.00  0.00     0.029 C 
BRANCH   9  10
HETATM   10  C   UNK N   1       6.238  -4.247   0.774  0.00  0.00     0.040 C 
BRANCH  10  11
HETATM   11  C   UNK N   1       7.675  -4.289   0.378  0.00  0.00    -0.058 A 
HETATM   12  C   UNK N   1       8.288  -5.524   0.145  0.00  0.00     0.007 A 
HETATM   13  C   UNK N   1       9.641  -5.581  -0.202  0.00  0.00     0.001 A 
HETATM   14  C   UNK N   1      10.386  -4.403  -0.310  0.00  0.00     0.000 A 
HETATM   15  C   UNK N   1       9.777  -3.166  -0.073  0.00  0.00     0.001 A 
HETATM   16  C   UNK N   1       8.424  -3.109   0.271  0.00  0.00     0.007 A 
ENDBRANCH  10  11
ENDBRANCH   9  10
ENDBRANCH   7   9
ENDBRANCH   5   7
ENDBRANCH   4   5
ENDBRANCH   1   4
BRANCH   1  17
HETATM   17  C   UNK N   1       4.155   1.758  -0.186  0.00  0.00    -0.027 A 
HETATM   18  C   UNK N   1       4.103   3.152  -0.078  0.00  0.00     0.029 A 
HETATM   19  C   UNK N   1       2.875   3.822   0.017  0.00  0.00     0.065 A 
HETATM   20  C   UNK N   1       1.678   3.067   0.012  0.00  0.00     0.081 A 
HETATM   21  C   UNK N   1       1.733   1.676  -0.093  0.00  0.00     0.038 A 
HETATM   22  C   UNK N   1       2.961   1.028  -0.200  0.00  0.00     0.012 A 
BRANCH  19  23
HETATM   23  C   UNK N   1       2.873   5.305   0.105  0.00  0.00     0.252 C 
HETATM   24  O   UNK N   1       1.827   5.926   0.174  0.00  0.00    -0.268 OA
HETATM   25  N   UNK N   1       4.042   5.982   0.096  0.00  0.00    -0.366 N 
HETATM   26  H   UNK N   1       4.895   5.492   0.090  0.00  0.00     0.159 HD
HETATM   27  H   UNK N   1       4.040   6.967   0.096  0.00  0.00     0.159 HD
ENDBRANCH  19  23
BRANCH  20  28
HETATM   28  O   UNK N   1       0.477   3.663   0.101  0.00  0.00    -0.360 OA
HETATM   29  H   UNK N   1       0.419   4.596   0.164  0.00  0.00     0.217 HD
ENDBRANCH  20  28
ENDBRANCH   1  17
TORSDOF 10
