REMARK  6 active torsions:
REMARK  status: ('A' for Active; 'I' for Inactive)
REMARK    1  A    between atoms: O_3  and  C_16 
REMARK    2  A    between atoms: O_6  and  C_20 
REMARK    3  A    between atoms: O_6  and  C_28 
REMARK    4  A    between atoms: C_12  and  N_8 
REMARK       I    between atoms: N_8  and  C_17 
REMARK    5  A    between atoms: C_11  and  C_16 
REMARK    6  A    between atoms: C_17  and  C_18 
ROOT
HETATM    1  O   UNK N   1       5.338   0.722   0.489  0.00  0.00    -0.268 OA
HETATM    2  N   UNK N   1       3.605   0.944  -0.920  0.00  0.00    -0.342 N 
HETATM    3  C   UNK N   1       4.539   1.455  -0.075  0.00  0.00     0.256 C 
HETATM    4  H   UNK N   1       3.023   1.603  -1.363  0.00  0.00     0.163 HD
ENDROOT
BRANCH   2   5
HETATM    5  C   UNK N   1       3.352  -0.448  -1.258  0.00  0.00     0.199 A 
HETATM    6  C   UNK N   1       2.299  -1.040  -0.203  0.00  0.00     0.160 A 
HETATM    7  S   UNK N   1       0.998  -2.092  -0.900  0.00  0.00    -0.135 SA
HETATM    8  N   UNK N   1       3.311  -1.917   0.246  0.00  0.00    -0.219 NA
HETATM    9  C   UNK N   1       1.567  -3.556   0.058  0.00  0.00     0.029 C 
HETATM   10  C   UNK N   1       3.001  -3.284   0.577  0.00  0.00     0.182 C 
HETATM   11  C   UNK N   1       0.650  -3.728   1.252  0.00  0.00     0.029 C 
HETATM   12  C   UNK N   1       1.443  -4.766  -0.846  0.00  0.00     0.029 C 
HETATM   13  C   UNK N   1       4.218  -1.472  -0.590  0.00  0.00     0.227 A 
HETATM   14  O   UNK N   1       5.141  -2.116  -1.060  0.00  0.00    -0.277 OA
BRANCH  10  15
HETATM   15  C   UNK N   1       4.133  -4.285   0.463  0.00  0.00     0.160 C 
HETATM   16  O   UNK N   1       5.151  -4.111   1.113  0.00  0.00    -0.649 OA
BRANCH  15  17
HETATM   17  O   UNK N   1       4.038  -5.368  -0.331  0.00  0.00    -0.775 OA
HETATM   18  H   UNK N   1       3.352  -5.687  -0.884  0.00  0.00     0.167 HD
ENDBRANCH  15  17
ENDBRANCH  10  15
ENDBRANCH   2   5
BRANCH   3  19
HETATM   19  C   UNK N   1       4.661   2.939   0.046  0.00  0.00     0.076 A 
HETATM   20  C   UNK N   1       5.951   3.533   0.119  0.00  0.00    -0.007 A 
HETATM   21  C   UNK N   1       6.082   4.942   0.120  0.00  0.00    -0.025 A 
HETATM   22  C   UNK N   1       7.120   2.749   0.137  0.00  0.00     0.013 A 
HETATM   23  C   UNK N   1       4.955   5.751   0.057  0.00  0.00     0.015 A 
HETATM   24  C   UNK N   1       7.349   5.532   0.149  0.00  0.00     0.012 A 
HETATM   25  C   UNK N   1       3.688   5.183   0.004  0.00  0.00     0.039 A 
HETATM   26  C   UNK N   1       3.512   3.798   0.008  0.00  0.00     0.085 A 
HETATM   27  C   UNK N   1       8.495   4.736   0.176  0.00  0.00     0.001 A 
HETATM   28  C   UNK N   1       8.381   3.346   0.169  0.00  0.00     0.001 A 
BRANCH  26  29
HETATM   29  O   UNK N   1       2.230   3.350   0.019  0.00  0.00    -0.350 OA
BRANCH  29  30
HETATM   30  C   UNK N   1       1.802   2.272   0.758  0.00  0.00     0.171 C 
HETATM   31  C   UNK N   1       0.312   2.078   0.570  0.00  0.00     0.034 C 
ENDBRANCH  29  30
ENDBRANCH  26  29
ENDBRANCH   3  19
TORSDOF 6
