REMARK  3 active torsions:
REMARK  status: ('A' for Active; 'I' for Inactive)
REMARK    1  A    between atoms: N_4  and  C_12 
REMARK    2  A    between atoms: C_5  and  C_6 
REMARK    3  A    between atoms: C_8  and  C_12 
ROOT
HETATM    1  N   UNK N   1       3.113  -2.159  -0.000  0.00  0.00    -0.369 N 
ATOM      2  HN  UNK N   1       3.048  -3.177  -0.000  1.00  0.00     0.165 HD
HETATM    3  C   UNK N   1       1.968  -1.419  -0.000  0.00  0.00     0.009 A 
HETATM    4  C   UNK N   1       2.042  -0.028  -0.000  0.00  0.00     0.039 A 
HETATM    5  C   UNK N   1       3.290   0.612   0.000  0.00  0.00     0.004 A 
HETATM    6  C   UNK N   1       4.449  -0.175   0.000  0.00  0.00     0.031 A 
HETATM    7  C   UNK N   1       4.340  -1.569   0.000  0.00  0.00     0.089 A 
ENDROOT
BRANCH   5   8
HETATM    8  C   UNK N   1       3.394   2.098   0.000  0.00  0.00     0.104 C 
HETATM    9  S   UNK N   1       2.218   2.931   0.000  0.00  0.00    -0.060 SA
BRANCH   8  10
HETATM   10  N   UNK N   1       4.666   2.714   0.000  0.00  0.00    -0.390 N 
HETATM   11  H   UNK N   1       5.481   2.161   0.000  0.00  0.00     0.157 HD
HETATM   12  H   UNK N   1       4.738   3.696   0.000  0.00  0.00     0.157 HD
ENDBRANCH   8  10
ENDBRANCH   5   8
BRANCH   3  13
HETATM   13  C   UNK N   1       0.614  -2.060  -0.000  0.00  0.00     0.052 C 
HETATM   14  C   UNK N   1       0.665  -3.577   0.000  0.00  0.00     0.011 C 
ENDBRANCH   3  13
TORSDOF 3
