REMARK  1 active torsions:
REMARK  status: ('A' for Active; 'I' for Inactive)
REMARK    1  A    between atoms: C_5  and  C_6 
ROOT
HETATM    1  O   UNK N   1       1.965   0.495  -0.001  0.00  0.00    -0.283 OA
HETATM    2  O   UNK N   1       4.919  -1.170   0.000  0.00  0.00    -0.269 OA
HETATM    3  O   UNK N   1       0.517  -1.236  -0.000  0.00  0.00    -0.238 OA
HETATM    4  N   UNK N   1       2.725  -1.551   0.001  0.00  0.00    -0.266 N 
HETATM    5  C   UNK N   1       3.348   0.802   0.000  0.00  0.00     0.149 A 
HETATM    6  C   UNK N   1       3.772  -0.730   0.000  0.00  0.00     0.263 A 
HETATM    7  C   UNK N   1       2.790   2.220   0.001  0.00  0.00     0.057 C 
HETATM    8  C   UNK N   1       1.660  -0.804   0.000  0.00  0.00     0.370 A 
HETATM    9  C   UNK N   1       2.758  -2.993   0.000  0.00  0.00     0.165 C 
ENDROOT
BRANCH   5  10
HETATM   10  C   UNK N   1       4.837   1.358  -0.005  0.00  0.00     0.044 C 
HETATM   11  C   UNK N   1       5.339   2.823   0.003  0.00  0.00     0.009 C 
ENDBRANCH   5  10
TORSDOF 1
