REMARK  6 active torsions:
REMARK  status: ('A' for Active; 'I' for Inactive)
REMARK    1  A    between atoms: N_2  and  C_16 
REMARK       I    between atoms: N_4  and  C_24 
REMARK    2  A    between atoms: N_4  and  C_25 
REMARK    3  A    between atoms: N_5  and  C_26 
REMARK       I    between atoms: N_5  and  C_32 
REMARK    4  A    between atoms: C_16  and  C_18 
REMARK    5  A    between atoms: C_23  and  C_24 
REMARK    6  A    between atoms: C_33  and  C_34 
ROOT
HETATM    1  C   UNK N   1       7.659   0.987   0.405  0.00  0.00     0.037 A 
HETATM    2  C   UNK N   1       8.319   3.305   0.083  0.00  0.00     0.057 A 
HETATM    3  C   UNK N   1       7.337   2.334   0.232  0.00  0.00     0.060 A 
HETATM    4  C   UNK N   1       9.669   2.904   0.086  0.00  0.00    -0.035 A 
HETATM    5  C   UNK N   1       8.996   0.591   0.449  0.00  0.00     0.030 A 
HETATM    6  C   UNK N   1      10.002   1.553   0.280  0.00  0.00     0.011 A 
HETATM    7  C   UNK N   1      10.760   3.900  -0.110  0.00  0.00     0.050 C 
ENDROOT
BRANCH   1   8
HETATM    8  N   UNK N   1       6.605   0.046   0.466  0.00  0.00    -0.323 N 
HETATM    9  C   UNK N   1       5.636   0.072  -0.488  0.00  0.00     0.256 C 
HETATM   10  O   UNK N   1       5.820   0.694  -1.528  0.00  0.00    -0.267 OA
HETATM   11  H   UNK N   1       6.573  -0.620   1.190  0.00  0.00     0.169 HD
BRANCH   9  12
HETATM   12  C   UNK N   1       4.343  -0.582  -0.279  0.00  0.00     0.032 A 
HETATM   13  C   UNK N   1       4.044  -1.246   0.919  0.00  0.00     0.017 A 
HETATM   14  C   UNK N   1       2.779  -1.810   1.101  0.00  0.00     0.010 A 
HETATM   15  C   UNK N   1       1.811  -1.696   0.097  0.00  0.00    -0.030 A 
HETATM   16  C   UNK N   1       2.101  -1.010  -1.084  0.00  0.00     0.010 A 
HETATM   17  C   UNK N   1       3.360  -0.457  -1.269  0.00  0.00     0.017 A 
BRANCH  15  18
HETATM   18  C   UNK N   1       0.501  -2.397   0.250  0.00  0.00     0.311 C 
BRANCH  18  19
HETATM   19  N   UNK N   1       0.245  -3.436  -0.771  0.00  0.00     0.096 N 
HETATM   20  C   UNK N   1      -0.407  -4.578  -0.118  0.00  0.00     0.303 C 
HETATM   21  C   UNK N   1       0.592  -5.628   0.402  0.00  0.00     0.302 C 
HETATM   22  N   UNK N   1       1.918  -5.040   0.568  0.00  0.00     0.087 N 
HETATM   23  C   UNK N   1       2.441  -4.662  -0.744  0.00  0.00     0.302 C 
HETATM   24  C   UNK N   1       2.792  -6.071   1.095  0.00  0.00     0.310 C 
HETATM   25  C   UNK N   1       1.406  -3.880  -1.572  0.00  0.00     0.303 C 
ENDBRANCH  18  19
ENDBRANCH  15  18
ENDBRANCH   9  12
ENDBRANCH   1   8
BRANCH   2  26
HETATM   26  N   UNK N   1       7.970   4.678  -0.077  0.00  0.00    -0.191 N 
HETATM   27  C   UNK N   1       6.647   5.225  -0.049  0.00  0.00     0.683 A 
HETATM   28  N   UNK N   1       5.549   4.432   0.126  0.00  0.00    -0.191 N 
HETATM   29  N   UNK N   1       6.491   6.565  -0.200  0.00  0.00    -0.202 N 
HETATM   30  C   UNK N   1       4.289   4.960   0.144  0.00  0.00     0.062 A 
ATOM     31  HN  UNK N   1       5.672   3.426   0.246  1.00  0.00     0.184 HD
HETATM   32  C   UNK N   1       4.127   6.339  -0.015  0.00  0.00     0.048 A 
HETATM   33  C   UNK N   1       5.256   7.133  -0.184  0.00  0.00     0.108 A 
ATOM     34  HN  UNK N   1       7.313   7.155  -0.327  1.00  0.00     0.183 HD
HETATM   35  H   UNK N   1       8.710   5.311  -0.219  0.00  0.00     0.184 HD
BRANCH  30  36
HETATM   36  C   UNK N   1       3.107   4.083   0.321  0.00  0.00     0.007 A 
HETATM   37  C   UNK N   1       1.807   4.610   0.274  0.00  0.00     0.016 A 
HETATM   38  C   UNK N   1       0.703   3.772   0.433  0.00  0.00     0.018 A 
HETATM   39  C   UNK N   1       0.908   2.408   0.645  0.00  0.00     0.087 A 
HETATM   40  N   UNK N   1       2.172   1.908   0.694  0.00  0.00    -0.374 N 
HETATM   41  C   UNK N   1       3.262   2.707   0.534  0.00  0.00     0.101 A 
ATOM     42  HN  UNK N   1       2.306   0.910   0.854  1.00  0.00     0.164 HD
ENDBRANCH  30  36
ENDBRANCH   2  26
TORSDOF 6
