REMARK  5 active torsions:
REMARK  status: ('A' for Active; 'I' for Inactive)
REMARK    1  A    between atoms: C_15  and  O_3 
REMARK    2  A    between atoms: C_16  and  O_4 
REMARK    3  A    between atoms: O_6  and  C_26 
REMARK    4  A    between atoms: C_12  and  C_22 
REMARK    5  A    between atoms: C_22  and  C_26 
ROOT
HETATM    1  F   UNK N   1       3.973  -0.896   1.636  0.00  0.00    -0.238 F 
HETATM    2  O   UNK N   1       8.247   0.917   1.670  0.00  0.00    -0.378 OA
HETATM    3  O   UNK N   1      -0.624  -3.442   0.481  0.00  0.00    -0.289 OA
HETATM    4  C   UNK N   1       6.869   0.316  -0.203  0.00  0.00     0.003 C 
HETATM    5  C   UNK N   1       6.697  -1.064   0.441  0.00  0.00     0.007 C 
HETATM    6  C   UNK N   1       5.424  -1.753  -0.082  0.00  0.00     0.035 C 
HETATM    7  C   UNK N   1       4.156  -0.887   0.258  0.00  0.00     0.147 C 
HETATM    8  C   UNK N   1       8.278   0.696   0.287  0.00  0.00     0.153 C 
HETATM    9  C   UNK N   1       5.712   1.202   0.262  0.00  0.00     0.048 C 
HETATM   10  C   UNK N   1       8.032  -1.757   0.174  0.00  0.00     0.041 C 
HETATM   11  C   UNK N   1       4.372   0.596  -0.194  0.00  0.00     0.160 C 
HETATM   12  C   UNK N   1       9.070  -0.622   0.038  0.00  0.00     0.161 C 
HETATM   13  C   UNK N   1       2.908  -1.531  -0.452  0.00  0.00     0.036 C 
HETATM   14  C   UNK N   1       5.250  -3.166   0.487  0.00  0.00     0.013 C 
HETATM   15  C   UNK N   1       6.860   0.259  -1.748  0.00  0.00     0.019 C 
HETATM   16  C   UNK N   1       4.082  -3.858  -0.217  0.00  0.00     0.036 C 
HETATM   17  C   UNK N   1       2.839  -3.025  -0.102  0.00  0.00    -0.061 C 
HETATM   18  C   UNK N   1       3.083  -1.430  -1.965  0.00  0.00     0.028 C 
HETATM   19  C   UNK N   1       1.618  -0.787  -0.138  0.00  0.00    -0.006 C 
HETATM   20  C   UNK N   1       1.691  -3.629   0.240  0.00  0.00     0.058 C 
HETATM   21  C   UNK N   1       0.480  -1.404   0.209  0.00  0.00     0.052 C 
HETATM   22  C   UNK N   1       0.441  -2.865   0.325  0.00  0.00     0.172 C 
HETATM   23  H   UNK N   1       8.369   1.012   2.628  0.00  0.00     0.211 HD
ENDROOT
BRANCH   8  24
HETATM   24  C   UNK N   1       8.851   1.949  -0.366  0.00  0.00     0.187 C 
HETATM   25  O   UNK N   1       9.894   1.906  -1.000  0.00  0.00    -0.292 OA
BRANCH  24  26
HETATM   26  C   UNK N   1       8.130   3.255  -0.242  0.00  0.00     0.245 C 
BRANCH  26  27
HETATM   27  O   UNK N   1       8.946   4.194   0.387  0.00  0.00    -0.393 OA
HETATM   28  H   UNK N   1       9.796   4.029   0.825  0.00  0.00     0.209 HD
ENDBRANCH  26  27
ENDBRANCH  24  26
ENDBRANCH   8  24
BRANCH  12  29
HETATM   29  O   UNK N   1       9.578  -0.691  -1.263  0.00  0.00    -0.392 OA
HETATM   30  H   UNK N   1       9.712  -1.021  -2.166  0.00  0.00     0.210 HD
ENDBRANCH  12  29
BRANCH  11  31
HETATM   31  O   UNK N   1       3.334   1.419   0.247  0.00  0.00    -0.392 OA
HETATM   32  H   UNK N   1       3.468   2.329   0.554  0.00  0.00     0.210 HD
ENDBRANCH  11  31
TORSDOF 5
