REMARK  1 active torsions:
REMARK  status: ('A' for Active; 'I' for Inactive)
REMARK    1  A    between atoms: C_9  and  O_1 
ROOT
HETATM    1  O   UNK N   1       0.749  -0.975  -0.361  0.00  0.00    -0.321 OA
HETATM    2  O   UNK N   1      -0.237  -2.787   0.492  0.00  0.00    -0.265 OA
HETATM    3  C   UNK N   1       6.910  -0.093  -0.382  0.00  0.00     0.001 C 
HETATM    4  C   UNK N   1       6.859   1.311   0.219  0.00  0.00    -0.009 C 
HETATM    5  C   UNK N   1       5.654  -0.909  -0.019  0.00  0.00    -0.005 C 
HETATM    6  C   UNK N   1       4.396  -0.146  -0.514  0.00  0.00     0.001 C 
HETATM    7  C   UNK N   1       3.110  -0.865  -0.008  0.00  0.00    -0.014 C 
HETATM    8  C   UNK N   1       8.255   1.833  -0.140  0.00  0.00     0.062 C 
HETATM    9  C   UNK N   1       5.690   2.082  -0.396  0.00  0.00     0.013 C 
HETATM   10  C   UNK N   1       4.376   1.350  -0.103  0.00  0.00     0.007 C 
HETATM   11  C   UNK N   1       8.261  -0.620   0.091  0.00  0.00     0.009 C 
HETATM   12  C   UNK N   1       3.235  -2.437  -0.066  0.00  0.00     0.005 C 
HETATM   13  C   UNK N   1       5.704  -2.307  -0.679  0.00  0.00     0.006 C 
HETATM   14  C   UNK N   1       9.155   0.636   0.194  0.00  0.00     0.038 C 
HETATM   15  C   UNK N   1       4.320  -2.885  -1.045  0.00  0.00     0.006 C 
HETATM   16  C   UNK N   1       6.690   1.265   1.755  0.00  0.00     0.018 C 
HETATM   17  C   UNK N   1       1.905  -0.388  -0.843  0.00  0.00     0.188 C 
HETATM   18  C   UNK N   1       2.835  -0.489   1.458  0.00  0.00     0.018 C 
HETATM   19  C   UNK N   1       1.915  -3.146  -0.428  0.00  0.00     0.116 C 
HETATM   20  C   UNK N   1       8.661   3.089   0.620  0.00  0.00     0.046 C 
HETATM   21  C   UNK N   1       0.724  -2.300  -0.082  0.00  0.00     0.259 C 
ENDROOT
BRANCH   8  22
HETATM   22  O   UNK N   1       8.348   2.094  -1.511  0.00  0.00    -0.389 OA
HETATM   23  H   UNK N   1       8.537   2.128  -2.462  0.00  0.00     0.210 HD
ENDBRANCH   8  22
TORSDOF 1
