REMARK  11 active torsions:
REMARK  status: ('A' for Active; 'I' for Inactive)
REMARK    1  A    between atoms: O_1  and  C_16 
REMARK    2  A    between atoms: O_1  and  C_23 
REMARK    3  A    between atoms: O_2  and  C_20 
REMARK    4  A    between atoms: N_8  and  C_22 
REMARK    5  A    between atoms: N_8  and  C_26 
REMARK    6  A    between atoms: N_9  and  C_24 
REMARK    7  A    between atoms: C_10  and  C_13 
REMARK    8  A    between atoms: C_11  and  C_16 
REMARK    9  A    between atoms: C_12  and  C_20 
REMARK   10  A    between atoms: C_22  and  C_23 
REMARK   11  A    between atoms: C_26  and  C_28 
ROOT
HETATM    1  N   UNK N   1       9.524  -3.732  -0.252  0.00  0.00    -0.362 N 
HETATM    2  C   UNK N   1       9.403  -0.934   0.314  0.00  0.00     0.101 A 
HETATM    3  C   UNK N   1       8.147  -1.787   0.045  0.00  0.00     0.052 A 
HETATM    4  C   UNK N   1      10.742  -1.702   0.199  0.00  0.00     0.052 A 
HETATM    5  C   UNK N   1       8.261  -3.114  -0.217  0.00  0.00     0.018 A 
HETATM    6  C   UNK N   1      10.734  -3.041  -0.049  0.00  0.00     0.018 A 
HETATM    7  C   UNK N   1       7.084  -4.012  -0.385  0.00  0.00     0.069 C 
HETATM    8  C   UNK N   1      11.973  -3.879   0.005  0.00  0.00     0.069 C 
HETATM    9  H   UNK N   1       9.564  -4.700  -0.427  0.00  0.00     0.165 HD
ENDROOT
BRANCH   3  10
HETATM   10  C   UNK N   1       6.818  -1.111   0.105  0.00  0.00     0.292 C 
HETATM   11  O   UNK N   1       6.697  -0.119   0.808  0.00  0.00    -0.259 OA
BRANCH  10  12
HETATM   12  O   UNK N   1       5.891  -1.341  -0.860  0.00  0.00    -0.316 OA
BRANCH  12  13
HETATM   13  C   UNK N   1       4.910  -2.293  -0.758  0.00  0.00     0.209 C 
BRANCH  13  14
HETATM   14  C   UNK N   1       3.583  -1.632  -0.491  0.00  0.00     0.299 C 
BRANCH  14  15
HETATM   15  N   UNK N   1       3.644  -0.956   0.797  0.00  0.00     0.090 N 
HETATM   16  C   UNK N   1       3.891   0.464   0.572  0.00  0.00     0.310 C 
BRANCH  15  17
HETATM   17  C   UNK N   1       2.396  -1.173   1.532  0.00  0.00     0.310 C 
BRANCH  17  18
HETATM   18  C   UNK N   1       1.206  -0.569   0.852  0.00  0.00    -0.030 A 
HETATM   19  C   UNK N   1       0.384  -1.366   0.051  0.00  0.00     0.009 A 
HETATM   20  C   UNK N   1      -0.701  -0.794  -0.618  0.00  0.00     0.001 A 
HETATM   21  C   UNK N   1      -0.963   0.573  -0.485  0.00  0.00     0.000 A 
HETATM   22  C   UNK N   1      -0.144   1.369   0.321  0.00  0.00     0.001 A 
HETATM   23  C   UNK N   1       0.940   0.798   0.989  0.00  0.00     0.009 A 
ENDBRANCH  17  18
ENDBRANCH  15  17
ENDBRANCH  14  15
ENDBRANCH  13  14
ENDBRANCH  12  13
ENDBRANCH  10  12
ENDBRANCH   3  10
BRANCH   2  24
HETATM   24  C   UNK N   1       9.379   0.451  -0.375  0.00  0.00    -0.042 A 
HETATM   25  C   UNK N   1      10.256   1.444   0.073  0.00  0.00     0.044 A 
HETATM   26  C   UNK N   1      10.190   2.762  -0.396  0.00  0.00     0.103 A 
HETATM   27  C   UNK N   1       9.196   3.110  -1.319  0.00  0.00     0.036 A 
HETATM   28  C   UNK N   1       8.310   2.137  -1.789  0.00  0.00     0.003 A 
HETATM   29  C   UNK N   1       8.403   0.817  -1.326  0.00  0.00     0.008 A 
BRANCH  26  30
HETATM   30  N   UNK N   1      11.119   3.733   0.071  0.00  0.00    -0.116 N 
HETATM   31  O   UNK N   1      11.011   4.990  -0.299  0.00  0.00    -0.532 OA
HETATM   32  O   UNK N   1      12.015   3.408   0.793  0.00  0.00    -0.532 OA
ENDBRANCH  26  30
ENDBRANCH   2  24
BRANCH   4  33
HETATM   33  C   UNK N   1      12.038  -0.989   0.486  0.00  0.00     0.291 C 
HETATM   34  O   UNK N   1      12.052  -0.111   1.332  0.00  0.00    -0.260 OA
BRANCH  33  35
HETATM   35  O   UNK N   1      13.201  -1.268  -0.164  0.00  0.00    -0.323 OA
HETATM   36  C   UNK N   1      13.264  -1.809  -1.430  0.00  0.00     0.213 C 
ENDBRANCH  33  35
ENDBRANCH   4  33
TORSDOF 11
