REMARK  3 active torsions:
REMARK  status: ('A' for Active; 'I' for Inactive)
REMARK    1  A    between atoms: C_8  and  C_12 
REMARK    2  A    between atoms: C_11  and  C_14 
REMARK    3  A    between atoms: C_11  and  C_16 
ROOT
HETATM    1 Cl   UNK N   1       7.881   0.908  -1.177  0.00  0.00    -0.084 Cl
HETATM    2  O   UNK N   1       1.941   0.762   1.110  0.00  0.00    -0.265 OA
HETATM    3  O   UNK N   1       0.569   2.507   1.399  0.00  0.00    -0.238 OA
HETATM    4  N   UNK N   1       2.479   2.922   0.326  0.00  0.00    -0.302 N 
HETATM    5  C   UNK N   1       2.868   0.116   0.297  0.00  0.00     0.261 C 
HETATM    6  C   UNK N   1       3.987   1.065  -0.116  0.00  0.00     0.027 A 
HETATM    7  C   UNK N   1       3.734   2.444  -0.116  0.00  0.00     0.047 A 
HETATM    8  C   UNK N   1       5.264   0.598  -0.476  0.00  0.00     0.037 A 
HETATM    9  C   UNK N   1       4.735   3.343  -0.499  0.00  0.00     0.032 A 
HETATM   10  C   UNK N   1       1.618   2.078   0.948  0.00  0.00     0.367 C 
HETATM   11  C   UNK N   1       6.272   1.498  -0.821  0.00  0.00     0.034 A 
HETATM   12  C   UNK N   1       6.005   2.870  -0.846  0.00  0.00     0.026 A 
HETATM   13  H   UNK N   1       2.230   3.863   0.182  0.00  0.00     0.171 HD
ENDROOT
BRANCH   5  14
HETATM   14  C   UNK N   1       3.457  -1.047   0.981  0.00  0.00    -0.053 C 
HETATM   15  C   UNK N   1       4.072  -2.026   1.321  0.00  0.00    -0.098 C 
BRANCH  15  16
HETATM   16  C   UNK N   1       4.772  -3.277   1.597  0.00  0.00     0.065 A 
HETATM   17  C   UNK N   1       5.770  -3.513   0.477  0.00  0.00     0.018 A 
HETATM   18  C   UNK N   1       4.457  -4.262   0.487  0.00  0.00     0.018 A 
ENDBRANCH  15  16
ENDBRANCH   5  14
BRANCH   5  19
HETATM   19  C   UNK N   1       2.112  -0.422  -0.938  0.00  0.00     0.435 C 
HETATM   20  F   UNK N   1       2.963  -1.121  -1.777  0.00  0.00    -0.166 F 
HETATM   21  F   UNK N   1       1.097  -1.274  -0.526  0.00  0.00    -0.166 F 
HETATM   22  F   UNK N   1       1.541   0.618  -1.649  0.00  0.00    -0.166 F 
ENDBRANCH   5  19
TORSDOF 3
