REMARK  24 active torsions:
REMARK  status: ('A' for Active; 'I' for Inactive)
REMARK    1  A    between atoms: Ca_1  and  Ca_1 
REMARK    2  A    between atoms: C_19  and  O_3 
REMARK    3  A    between atoms: C_20  and  O_4 
REMARK    4  A    between atoms: C_21  and  O_5 
REMARK    5  A    between atoms: C_22  and  O_6 
REMARK    6  A    between atoms: C_23  and  O_7 
REMARK    7  A    between atoms: C_24  and  O_8 
REMARK    8  A    between atoms: C_25  and  O_9 
REMARK    9  A    between atoms: O_10  and  C_26 
REMARK   10  A    between atoms: O_11  and  C_27 
REMARK   11  A    between atoms: O_12  and  C_28 
REMARK   12  A    between atoms: O_13  and  C_29 
REMARK   13  A    between atoms: C_18  and  C_19 
REMARK   14  A    between atoms: C_18  and  C_22 
REMARK   15  A    between atoms: C_19  and  C_24 
REMARK   16  A    between atoms: C_20  and  C_21 
REMARK   17  A    between atoms: C_20  and  C_23 
REMARK   18  A    between atoms: C_21  and  C_25 
REMARK   19  A    between atoms: C_22  and  C_26 
REMARK   20  A    between atoms: C_23  and  C_27 
REMARK   21  A    between atoms: C_24  and  C_28 
REMARK   22  A    between atoms: C_25  and  C_29 
REMARK   23  A    between atoms: C_26  and  C_30 
REMARK   24  A    between atoms: C_27  and  C_31 
ROOT
HETATM    1 Ca   UNK N   1       8.825   1.705   2.533  0.00  0.00     0.000 Ca
ENDROOT
TORSDOF 24
