REMARK  3 active torsions:
REMARK  status: ('A' for Active; 'I' for Inactive)
REMARK    1  A    between atoms: O_3  and  C_20 
REMARK    2  A    between atoms: C_9  and  C_12 
REMARK    3  A    between atoms: C_11  and  C_20 
ROOT
HETATM    1 Cl   UNK N   1       1.601  -4.699   0.534  0.00  0.00    -0.084 Cl
HETATM    2  O   UNK N   1       1.798   3.251  -0.992  0.00  0.00    -0.270 OA
HETATM    3  N   UNK N   1       1.303   1.146  -0.596  0.00  0.00    -0.324 N 
HETATM    4  N   UNK N   1       4.279   1.114   0.046  0.00  0.00    -0.367 N 
ATOM      5  HN  UNK N   1       5.219   1.443  -0.171  1.00  0.00     0.161 HD
HETATM    6  C   UNK N   1       2.743  -0.835   0.046  0.00  0.00     0.019 A 
HETATM    7  C   UNK N   1       4.109  -0.164  -0.052  0.00  0.00     0.052 C 
HETATM    8  C   UNK N   1       1.477  -0.197  -0.176  0.00  0.00     0.047 A 
HETATM    9  C   UNK N   1       3.343   2.140   0.415  0.00  0.00     0.273 C 
HETATM   10  C   UNK N   1       2.125   2.199  -0.462  0.00  0.00     0.255 C 
HETATM   11  C   UNK N   1       2.720  -2.226   0.276  0.00  0.00     0.040 A 
HETATM   12  C   UNK N   1       0.302  -0.963  -0.133  0.00  0.00     0.032 A 
HETATM   13  C   UNK N   1       1.542  -2.964   0.307  0.00  0.00     0.035 A 
HETATM   14  C   UNK N   1       0.328  -2.330   0.113  0.00  0.00     0.026 A 
HETATM   15  H   UNK N   1       0.452   1.335  -1.054  0.00  0.00     0.169 HD
ENDROOT
BRANCH   7  16
HETATM   16  C   UNK N   1       5.390  -0.961  -0.166  0.00  0.00    -0.009 A 
HETATM   17  C   UNK N   1       6.612  -0.271  -0.296  0.00  0.00     0.014 A 
HETATM   18  C   UNK N   1       7.828  -0.958  -0.346  0.00  0.00     0.001 A 
HETATM   19  C   UNK N   1       7.847  -2.349  -0.251  0.00  0.00     0.000 A 
HETATM   20  C   UNK N   1       6.650  -3.053  -0.120  0.00  0.00     0.001 A 
HETATM   21  C   UNK N   1       5.435  -2.364  -0.082  0.00  0.00     0.014 A 
ENDBRANCH   7  16
BRANCH   9  22
HETATM   22  C   UNK N   1       4.141   3.431   0.527  0.00  0.00     0.173 C 
HETATM   23  O   UNK N   1       3.862   4.421  -0.133  0.00  0.00    -0.648 OA
BRANCH  22  24
HETATM   24  O   UNK N   1       5.213   3.471   1.341  0.00  0.00    -0.774 OA
HETATM   25  H   UNK N   1       5.610   2.839   1.907  0.00  0.00     0.167 HD
ENDBRANCH  22  24
ENDBRANCH   9  22
TORSDOF 3
