REMARK  3 active torsions:
REMARK  status: ('A' for Active; 'I' for Inactive)
REMARK    1  A    between atoms: O_4  and  C_24 
REMARK    2  A    between atoms: C_10  and  C_20 
REMARK    3  A    between atoms: C_20  and  C_24 
ROOT
HETATM    1  O   UNK N   1       8.280   1.178  -1.731  0.00  0.00    -0.381 OA
HETATM    2  O   UNK N   1       3.490   1.765   0.385  0.00  0.00    -0.297 OA
HETATM    3  O   UNK N   1      -0.579  -3.120  -0.074  0.00  0.00    -0.289 OA
HETATM    4  C   UNK N   1       6.840   0.963   0.190  0.00  0.00     0.005 C 
HETATM    5  C   UNK N   1       6.718  -0.536  -0.131  0.00  0.00     0.002 C 
HETATM    6  C   UNK N   1       5.397  -1.138   0.383  0.00  0.00     0.003 C 
HETATM    7  C   UNK N   1       4.219  -0.407  -0.340  0.00  0.00     0.076 C 
HETATM    8  C   UNK N   1       8.275   1.228  -0.330  0.00  0.00     0.128 C 
HETATM    9  C   UNK N   1       8.012  -1.113   0.418  0.00  0.00     0.009 C 
HETATM   10  C   UNK N   1       5.697   1.737  -0.493  0.00  0.00     0.091 C 
HETATM   11  C   UNK N   1       9.045   0.004   0.199  0.00  0.00     0.047 C 
HETATM   12  C   UNK N   1       2.865  -1.041   0.088  0.00  0.00     0.008 C 
HETATM   13  C   UNK N   1       5.387  -2.667   0.188  0.00  0.00     0.010 C 
HETATM   14  C   UNK N   1       4.376   1.094  -0.120  0.00  0.00     0.133 C 
HETATM   15  C   UNK N   1       6.760   1.206   1.713  0.00  0.00     0.019 C 
HETATM   16  C   UNK N   1       4.185  -3.227  -0.569  0.00  0.00     0.036 C 
HETATM   17  C   UNK N   1       2.899  -2.543  -0.208  0.00  0.00    -0.063 C 
HETATM   18  C   UNK N   1       2.649  -0.877   1.596  0.00  0.00     0.025 C 
HETATM   19  C   UNK N   1       1.654  -0.414  -0.578  0.00  0.00    -0.008 C 
HETATM   20  C   UNK N   1       1.756  -3.245  -0.257  0.00  0.00     0.058 C 
HETATM   21  C   UNK N   1       0.482  -1.080  -0.583  0.00  0.00     0.052 C 
HETATM   22  C   UNK N   1       0.473  -2.518  -0.219  0.00  0.00     0.171 C 
HETATM   23  H   UNK N   1       8.251   1.157  -2.700  0.00  0.00     0.211 HD
ENDROOT
BRANCH   8  24
HETATM   24  C   UNK N   1       8.941   2.527   0.089  0.00  0.00     0.184 C 
HETATM   25  O   UNK N   1       8.342   3.349   0.764  0.00  0.00    -0.292 OA
BRANCH  24  26
HETATM   26  C   UNK N   1      10.340   2.839  -0.355  0.00  0.00     0.245 C 
BRANCH  26  27
HETATM   27  O   UNK N   1      11.242   1.909   0.165  0.00  0.00    -0.393 OA
HETATM   28  H   UNK N   1      10.995   1.043   0.526  0.00  0.00     0.209 HD
ENDBRANCH  26  27
ENDBRANCH  24  26
ENDBRANCH   8  24
TORSDOF 3
