REMARK  5 active torsions:
REMARK  status: ('A' for Active; 'I' for Inactive)
REMARK    1  A    between atoms: O_2  and  C_5 
REMARK    2  A    between atoms: O_2  and  C_9 
REMARK    3  A    between atoms: O_3  and  C_8 
REMARK    4  A    between atoms: O_3  and  C_10 
REMARK    5  A    between atoms: C_5  and  C_8 
ROOT
HETATM    1  O   UNK N   1       2.535   0.261  -0.275  0.00  0.00    -0.331 OA
ENDROOT
BRANCH   1   2
HETATM    2  C   UNK N   1       3.403   0.930   0.589  0.00  0.00     0.148 C 
HETATM    3  C   UNK N   1       2.535   1.846   1.438  0.00  0.00     0.057 C 
HETATM    4  C   UNK N   1       4.157   0.029   1.563  0.00  0.00     0.057 C 
BRANCH   2   5
HETATM    5  C   UNK N   1       4.405   1.754  -0.183  0.00  0.00     0.293 C 
HETATM    6  O   UNK N   1       5.210   1.201  -0.924  0.00  0.00    -0.262 OA
BRANCH   5   7
HETATM    7  O   UNK N   1       4.430   3.103  -0.022  0.00  0.00    -0.319 OA
BRANCH   7   8
HETATM    8  C   UNK N   1       5.351   3.923  -0.627  0.00  0.00     0.174 C 
HETATM    9  C   UNK N   1       5.100   5.352  -0.189  0.00  0.00     0.034 C 
ENDBRANCH   7   8
ENDBRANCH   5   7
ENDBRANCH   2   5
ENDBRANCH   1   2
BRANCH   1  10
HETATM   10  C   UNK N   1       2.202  -1.060  -0.284  0.00  0.00     0.070 A 
HETATM   11  C   UNK N   1       3.128  -2.081  -0.008  0.00  0.00     0.038 A 
HETATM   12  C   UNK N   1       2.710  -3.414   0.058  0.00  0.00     0.026 A 
HETATM   13  C   UNK N   1       1.365  -3.735  -0.148  0.00  0.00     0.034 A 
HETATM   14 Cl   UNK N   1       0.824  -5.393  -0.001  0.00  0.00    -0.084 Cl
HETATM   15  C   UNK N   1       0.447  -2.730  -0.455  0.00  0.00     0.026 A 
HETATM   16  C   UNK N   1       0.867  -1.400  -0.532  0.00  0.00     0.038 A 
ENDBRANCH   1  10
TORSDOF 5
