REMARK  3 active torsions:
REMARK  status: ('A' for Active; 'I' for Inactive)
REMARK    1  A    between atoms: O_2  and  C_22 
REMARK       I    between atoms: N_7  and  C_14 
REMARK       I    between atoms: N_7  and  C_22 
REMARK    2  A    between atoms: C_10  and  C_15 
REMARK    3  A    between atoms: C_15  and  C_16 
ROOT
HETATM    1  O   UNK N   1      10.043  -2.370   0.001  0.00  0.00    -0.238 OA
HETATM    2  N   UNK N   1       7.711   1.044   0.000  0.00  0.00    -0.189 N 
HETATM    3  N   UNK N   1       7.677  -1.223  -0.002  0.00  0.00    -0.189 N 
ATOM      4  HN  UNK N   1       7.985  -2.195  -0.003  1.00  0.00     0.184 HD
HETATM    5  N   UNK N   1       9.864  -0.128  -0.000  0.00  0.00    -0.135 N 
HETATM    6  C   UNK N   1       6.439   0.605  -0.000  0.00  0.00     0.077 A 
HETATM    7  C   UNK N   1       6.428  -0.755  -0.002  0.00  0.00     0.076 A 
HETATM    8  C   UNK N   1       4.027   0.636  -0.000  0.00  0.00     0.017 A 
HETATM    9  C   UNK N   1       5.256   1.350   0.001  0.00  0.00     0.048 A 
HETATM   10  C   UNK N   1       5.260  -1.492  -0.002  0.00  0.00     0.033 A 
HETATM   11  C   UNK N   1       4.056  -0.782  -0.002  0.00  0.00     0.018 A 
HETATM   12  C   UNK N   1       8.442  -0.104  -0.001  0.00  0.00     0.687 A 
HETATM   13  C   UNK N   1      10.596  -1.276   0.001  0.00  0.00     0.378 C 
HETATM   14  H   UNK N   1       8.036   1.973   0.001  0.00  0.00     0.184 HD
HETATM   15  H   UNK N   1      10.345   0.732  -0.001  0.00  0.00     0.189 HD
ENDROOT
BRANCH   8  16
HETATM   16  C   UNK N   1       2.724   1.373   0.001  0.00  0.00     0.192 C 
HETATM   17  O   UNK N   1       2.747   2.596   0.002  0.00  0.00    -0.287 OA
BRANCH  16  18
HETATM   18  C   UNK N   1       1.390   0.684   0.001  0.00  0.00     0.015 A 
HETATM   19  C   UNK N   1       1.276  -0.718  -0.000  0.00  0.00     0.015 A 
HETATM   20  C   UNK N   1       0.027  -1.340  -0.001  0.00  0.00     0.001 A 
HETATM   21  C   UNK N   1      -1.133  -0.568  -0.000  0.00  0.00     0.000 A 
HETATM   22  C   UNK N   1      -1.041   0.826   0.001  0.00  0.00     0.001 A 
HETATM   23  C   UNK N   1       0.212   1.449   0.001  0.00  0.00     0.015 A 
ENDBRANCH  16  18
ENDBRANCH   8  16
BRANCH  13  24
HETATM   24  O   UNK N   1      11.948  -1.201   0.001  0.00  0.00    -0.308 OA
HETATM   25  C   UNK N   1      12.743  -2.324   0.002  0.00  0.00     0.215 C 
ENDBRANCH  13  24
TORSDOF 3
