REMARK  3 active torsions:
REMARK  status: ('A' for Active; 'I' for Inactive)
REMARK    1  A    between atoms: C_5  and  C_6 
REMARK    2  A    between atoms: C_5  and  C_7 
REMARK    3  A    between atoms: C_5  and  C_8 
ROOT
HETATM    1  C   UNK N   1       2.946   0.617  -0.548  0.00  0.00     0.086 C 
ENDROOT
BRANCH   1   2
HETATM    2  C   UNK N   1       4.279   1.319  -0.300  0.00  0.00    -0.047 A 
HETATM    3  C   UNK N   1       5.441   0.826  -0.916  0.00  0.00     0.009 A 
HETATM    4  C   UNK N   1       6.673   1.459  -0.719  0.00  0.00     0.024 A 
HETATM    5  C   UNK N   1       6.754   2.597   0.088  0.00  0.00     0.034 A 
HETATM    6 Cl   UNK N   1       8.294   3.393   0.331  0.00  0.00    -0.084 Cl
HETATM    7  C   UNK N   1       5.605   3.103   0.698  0.00  0.00     0.024 A 
HETATM    8  C   UNK N   1       4.376   2.468   0.505  0.00  0.00     0.009 A 
ENDBRANCH   1   2
BRANCH   1   9
HETATM    9  C   UNK N   1       2.917  -0.854  -0.151  0.00  0.00    -0.025 A 
HETATM   10  C   UNK N   1       1.842  -1.692  -0.537  0.00  0.00     0.041 A 
HETATM   11 Cl   UNK N   1       0.488  -1.091  -1.489  0.00  0.00    -0.084 Cl
HETATM   12  C   UNK N   1       1.838  -3.041  -0.174  0.00  0.00     0.024 A 
HETATM   13  C   UNK N   1       2.892  -3.577   0.567  0.00  0.00     0.002 A 
HETATM   14  C   UNK N   1       3.957  -2.764   0.951  0.00  0.00     0.001 A 
HETATM   15  C   UNK N   1       3.971  -1.415   0.597  0.00  0.00     0.009 A 
ENDBRANCH   1   9
BRANCH   1  16
HETATM   16  C   UNK N   1       1.713   1.349   0.022  0.00  0.00     0.191 C 
HETATM   17 Cl   UNK N   1       1.453   2.945  -0.731  0.00  0.00    -0.107 Cl
HETATM   18 Cl   UNK N   1       1.685   1.453   1.806  0.00  0.00    -0.107 Cl
ENDBRANCH   1  16
TORSDOF 3
