REMARK  3 active torsions:
REMARK  status: ('A' for Active; 'I' for Inactive)
REMARK    1  A    between atoms: N_3  and  C_7 
REMARK    2  A    between atoms: C_4  and  C_6 
REMARK    3  A    between atoms: C_7  and  C_8 
ROOT
HETATM    1  O   UNK N   1       3.125   1.167   0.000  0.00  0.00    -0.380 OA
HETATM    2  C   UNK N   1       1.741   0.779  -0.000  0.00  0.00     0.159 A 
HETATM    3  C   UNK N   1       2.925  -0.170  -0.000  0.00  0.00     0.201 A 
ENDROOT
BRANCH   2   4
HETATM    4  C   UNK N   1       0.848  -0.440   0.000  0.00  0.00     0.148 C 
HETATM    5 Cl   UNK N   1      -0.854   0.075  -0.000  0.00  0.00    -0.128 Cl
ENDBRANCH   2   4
TORSDOF 3
