REMARK  10 active torsions:
REMARK  status: ('A' for Active; 'I' for Inactive)
REMARK    1  A    between atoms: O_1  and  C_11 
REMARK    2  A    between atoms: O_1  and  C_12 
REMARK    3  A    between atoms: O_2  and  C_21 
REMARK    4  A    between atoms: O_3  and  C_22 
REMARK    5  A    between atoms: O_4  and  C_23 
REMARK    6  A    between atoms: N_6  and  C_8 
REMARK    7  A    between atoms: N_7  and  C_10 
REMARK       I    between atoms: N_7  and  C_18 
REMARK    8  A    between atoms: C_8  and  C_11 
REMARK    9  A    between atoms: C_9  and  C_10 
REMARK   10  A    between atoms: C_13  and  C_18 
ROOT
HETATM    1  O   UNK N   1       1.068   0.052  -0.727  0.00  0.00    -0.268 OA
HETATM    2  N   UNK N   1       2.851   0.912   0.284  0.00  0.00    -0.353 N 
HETATM    3  C   UNK N   1       2.148  -0.153  -0.197  0.00  0.00     0.252 C 
HETATM    4  H   UNK N   1       2.589   1.815  -0.009  0.00  0.00     0.163 HD
ENDROOT
BRANCH   2   5
HETATM    5  C   UNK N   1       3.961   0.782   1.200  0.00  0.00     0.161 C 
BRANCH   5   6
HETATM    6  C   UNK N   1       5.278   1.140   0.606  0.00  0.00    -0.040 A 
HETATM    7  C   UNK N   1       5.515   2.421   0.101  0.00  0.00     0.011 A 
HETATM    8  C   UNK N   1       6.792   2.763  -0.348  0.00  0.00     0.037 A 
HETATM    9  C   UNK N   1       7.848   1.834  -0.281  0.00  0.00     0.068 A 
HETATM   10  C   UNK N   1       7.598   0.550   0.210  0.00  0.00     0.037 A 
HETATM   11  C   UNK N   1       6.321   0.208   0.657  0.00  0.00     0.011 A 
BRANCH   9  12
HETATM   12  O   UNK N   1       9.108   2.161  -0.661  0.00  0.00    -0.349 OA
BRANCH  12  13
HETATM   13  C   UNK N   1       9.475   3.429  -1.063  0.00  0.00     0.206 C 
BRANCH  13  14
HETATM   14  C   UNK N   1       9.473   4.387   0.121  0.00  0.00     0.297 C 
BRANCH  14  15
HETATM   15  N   UNK N   1       8.895   5.658  -0.283  0.00  0.00     0.082 N 
HETATM   16  C   UNK N   1       7.600   5.774   0.364  0.00  0.00     0.309 C 
HETATM   17  C   UNK N   1       9.733   6.706   0.267  0.00  0.00     0.309 C 
ENDBRANCH  14  15
ENDBRANCH  13  14
ENDBRANCH  12  13
ENDBRANCH   9  12
ENDBRANCH   5   6
ENDBRANCH   2   5
BRANCH   3  18
HETATM   18  C   UNK N   1       2.643  -1.556  -0.090  0.00  0.00     0.037 A 
HETATM   19  C   UNK N   1       4.003  -1.823   0.043  0.00  0.00     0.057 A 
HETATM   20  C   UNK N   1       4.505  -3.120   0.078  0.00  0.00     0.105 A 
HETATM   21  C   UNK N   1       3.605  -4.218   0.005  0.00  0.00     0.135 A 
HETATM   22  C   UNK N   1       2.210  -3.957  -0.121  0.00  0.00     0.105 A 
HETATM   23  C   UNK N   1       1.755  -2.627  -0.190  0.00  0.00     0.057 A 
BRANCH  20  24
HETATM   24  O   UNK N   1       5.855  -3.252   0.177  0.00  0.00    -0.353 OA
HETATM   25  C   UNK N   1       6.557  -4.435   0.144  0.00  0.00     0.210 C 
ENDBRANCH  20  24
BRANCH  21  26
HETATM   26  O   UNK N   1       4.109  -5.483   0.062  0.00  0.00    -0.351 OA
HETATM   27  C   UNK N   1       3.384  -6.651   0.013  0.00  0.00     0.210 C 
ENDBRANCH  21  26
BRANCH  22  28
HETATM   28  O   UNK N   1       1.320  -4.980  -0.170  0.00  0.00    -0.353 OA
HETATM   29  C   UNK N   1      -0.045  -4.803  -0.219  0.00  0.00     0.210 C 
ENDBRANCH  22  28
ENDBRANCH   3  18
TORSDOF 10
