REMARK  2 active torsions:
REMARK  status: ('A' for Active; 'I' for Inactive)
REMARK    1  A    between atoms: N_3  and  C_13 
REMARK       I    between atoms: N_5  and  C_15 
REMARK    2  A    between atoms: C_13  and  C_15 
ROOT
HETATM    1  O   UNK N   1       5.240  -0.869  -0.753  0.00  0.00    -0.271 OA
HETATM    2  O   UNK N   1       2.958   5.348   0.377  0.00  0.00    -0.267 OA
HETATM    3  N   UNK N   1       4.120   1.117  -0.247  0.00  0.00    -0.263 N 
HETATM    4  N   UNK N   1       4.741   4.113   0.284  0.00  0.00    -0.320 N 
HETATM    5  N   UNK N   1       6.512   0.969  -0.087  0.00  0.00    -0.350 N 
ATOM      6  HN  UNK N   1       6.376  -0.027  -0.261  1.00  0.00     0.166 HD
HETATM    7  C   UNK N   1       4.176  -0.301  -0.561  0.00  0.00     0.258 C 
HETATM    8  C   UNK N   1       2.842   1.749  -0.155  0.00  0.00     0.059 A 
HETATM    9  C   UNK N   1       5.380   1.752  -0.057  0.00  0.00     0.142 A 
HETATM   10  C   UNK N   1       2.536   3.154   0.066  0.00  0.00     0.059 A 
HETATM   11  C   UNK N   1       5.633   3.137   0.194  0.00  0.00     0.080 A 
HETATM   12  C   UNK N   1       1.686   0.938  -0.302  0.00  0.00     0.031 A 
HETATM   13  C   UNK N   1       3.414   4.221   0.238  0.00  0.00     0.258 A 
HETATM   14  C   UNK N   1       1.172   3.559   0.112  0.00  0.00     0.019 A 
HETATM   15  C   UNK N   1       6.955   3.574   0.368  0.00  0.00     0.035 A 
HETATM   16  C   UNK N   1       0.371   1.366  -0.241  0.00  0.00     0.002 A 
HETATM   17  C   UNK N   1       0.111   2.692  -0.031  0.00  0.00     0.001 A 
HETATM   18  C   UNK N   1       8.032   2.715   0.322  0.00  0.00     0.019 A 
HETATM   19  C   UNK N   1       7.786   1.387   0.090  0.00  0.00     0.090 A 
HETATM   20  H   UNK N   1       5.172   4.987   0.422  0.00  0.00     0.169 HD
ENDROOT
BRANCH   7  21
HETATM   21  C   UNK N   1       3.002  -1.233  -0.747  0.00  0.00     0.375 C 
BRANCH  21  22
HETATM   22  N   UNK N   1       2.593  -1.878   0.509  0.00  0.00     0.100 N 
HETATM   23  C   UNK N   1       1.544  -2.858   0.222  0.00  0.00     0.303 C 
HETATM   24  C   UNK N   1       2.074  -4.019  -0.640  0.00  0.00     0.302 C 
HETATM   25  N   UNK N   1       3.250  -4.668  -0.046  0.00  0.00     0.087 N 
HETATM   26  C   UNK N   1       4.278  -3.695   0.336  0.00  0.00     0.302 C 
HETATM   27  C   UNK N   1       2.857  -5.459   1.111  0.00  0.00     0.310 C 
HETATM   28  C   UNK N   1       3.703  -2.557   1.191  0.00  0.00     0.303 C 
ENDBRANCH  21  22
ENDBRANCH   7  21
TORSDOF 2
