REMARK  8 active torsions:
REMARK  status: ('A' for Active; 'I' for Inactive)
REMARK    1  A    between atoms: O_1  and  C_12 
REMARK    2  A    between atoms: O_1  and  C_20 
REMARK    3  A    between atoms: N_2  and  C_19 
REMARK    4  A    between atoms: C_3  and  C_5 
REMARK    5  A    between atoms: C_3  and  C_7 
REMARK    6  A    between atoms: C_4  and  C_6 
REMARK    7  A    between atoms: C_4  and  C_8 
REMARK    8  A    between atoms: C_19  and  C_20 
ROOT
HETATM    1  C   UNK N   1       4.800   2.455  -0.023  0.00  0.00    -0.009 C 
HETATM    2  C   UNK N   1       3.558   3.089  -0.033  0.00  0.00    -0.036 C 
ENDROOT
BRANCH   1   3
HETATM    3  C   UNK N   1       4.925   0.938   0.067  0.00  0.00    -0.024 A 
HETATM    4  C   UNK N   1       6.084   0.282  -0.388  0.00  0.00     0.015 A 
HETATM    5  C   UNK N   1       6.212  -1.109  -0.303  0.00  0.00     0.037 A 
HETATM    6  C   UNK N   1       5.183  -1.877   0.242  0.00  0.00     0.068 A 
HETATM    7  C   UNK N   1       4.037  -1.236   0.732  0.00  0.00     0.037 A 
HETATM    8  C   UNK N   1       3.921   0.151   0.657  0.00  0.00     0.015 A 
BRANCH   6   9
HETATM    9  O   UNK N   1       5.310  -3.228   0.278  0.00  0.00    -0.349 OA
BRANCH   9  10
HETATM   10  C   UNK N   1       4.297  -4.078   0.674  0.00  0.00     0.206 C 
BRANCH  10  11
HETATM   11  C   UNK N   1       3.216  -4.137  -0.397  0.00  0.00     0.297 C 
BRANCH  11  12
HETATM   12  N   UNK N   1       1.913  -3.902   0.201  0.00  0.00     0.082 N 
HETATM   13  C   UNK N   1       1.282  -5.196   0.394  0.00  0.00     0.309 C 
HETATM   14  C   UNK N   1       1.117  -3.184  -0.778  0.00  0.00     0.309 C 
ENDBRANCH  11  12
ENDBRANCH  10  11
ENDBRANCH   9  10
ENDBRANCH   6   9
ENDBRANCH   1   3
BRANCH   1  15
HETATM   15  C   UNK N   1       6.097   3.264  -0.020  0.00  0.00    -0.025 A 
HETATM   16  C   UNK N   1       6.151   4.600  -0.464  0.00  0.00     0.012 A 
HETATM   17  C   UNK N   1       7.346   5.325  -0.448  0.00  0.00     0.001 A 
HETATM   18  C   UNK N   1       8.516   4.729   0.019  0.00  0.00     0.000 A 
HETATM   19  C   UNK N   1       8.492   3.408   0.463  0.00  0.00     0.001 A 
HETATM   20  C   UNK N   1       7.296   2.685   0.441  0.00  0.00     0.012 A 
ENDBRANCH   1  15
BRANCH   2  21
HETATM   21  C   UNK N   1       3.463   4.596   0.057  0.00  0.00     0.036 C 
HETATM   22  C   UNK N   1       2.956   5.062   1.410  0.00  0.00     0.010 C 
ENDBRANCH   2  21
BRANCH   2  23
HETATM   23  C   UNK N   1       2.239   2.378  -0.164  0.00  0.00    -0.029 A 
HETATM   24  C   UNK N   1       2.077   1.295  -1.048  0.00  0.00     0.012 A 
HETATM   25  C   UNK N   1       0.835   0.671  -1.194  0.00  0.00     0.001 A 
HETATM   26  C   UNK N   1      -0.266   1.129  -0.470  0.00  0.00     0.000 A 
HETATM   27  C   UNK N   1      -0.132   2.227   0.381  0.00  0.00     0.001 A 
HETATM   28  C   UNK N   1       1.107   2.858   0.517  0.00  0.00     0.012 A 
ENDBRANCH   2  23
TORSDOF 8
