REMARK  4 active torsions:
REMARK  status: ('A' for Active; 'I' for Inactive)
REMARK    1  A    between atoms: O_1  and  C_4 
REMARK    2  A    between atoms: O_1  and  C_8 
REMARK    3  A    between atoms: C_3  and  C_4 
REMARK    4  A    between atoms: C_5  and  C_8 
ROOT
HETATM    1  O   UNK N   1       2.074   1.163  -0.382  0.00  0.00    -0.313 OA
ENDROOT
BRANCH   1   2
HETATM    2  C   UNK N   1       3.220   1.020  -1.133  0.00  0.00     0.217 C 
BRANCH   2   3
HETATM    3  C   UNK N   1       4.390   1.700  -0.507  0.00  0.00    -0.034 A 
HETATM    4  C   UNK N   1       4.372   3.082  -0.282  0.00  0.00     0.009 A 
HETATM    5  C   UNK N   1       5.499   3.719   0.249  0.00  0.00     0.001 A 
HETATM    6  C   UNK N   1       6.647   2.977   0.546  0.00  0.00     0.000 A 
HETATM    7  C   UNK N   1       6.667   1.598   0.317  0.00  0.00     0.001 A 
HETATM    8  C   UNK N   1       5.540   0.961  -0.212  0.00  0.00     0.009 A 
ENDBRANCH   2   3
ENDBRANCH   1   2
BRANCH   1   9
HETATM    9  C   UNK N   1       1.254   0.130  -0.039  0.00  0.00     0.293 C 
HETATM   10  O   UNK N   1       0.091   0.382   0.230  0.00  0.00    -0.259 OA
BRANCH   9  11
HETATM   11  C   UNK N   1       1.710  -1.291   0.008  0.00  0.00     0.039 A 
HETATM   12  C   UNK N   1       3.070  -1.630  -0.047  0.00  0.00     0.017 A 
HETATM   13  C   UNK N   1       3.475  -2.966   0.023  0.00  0.00     0.001 A 
HETATM   14  C   UNK N   1       2.521  -3.979   0.140  0.00  0.00     0.000 A 
HETATM   15  C   UNK N   1       1.164  -3.656   0.196  0.00  0.00     0.001 A 
HETATM   16  C   UNK N   1       0.760  -2.319   0.141  0.00  0.00     0.017 A 
ENDBRANCH   9  11
ENDBRANCH   1   9
TORSDOF 4
