REMARK  4 active torsions:
REMARK  status: ('A' for Active; 'I' for Inactive)
REMARK    1  A    between atoms: C_14  and  O_3 
REMARK    2  A    between atoms: O_5  and  C_27 
REMARK    3  A    between atoms: C_11  and  C_23 
REMARK    4  A    between atoms: C_23  and  C_27 
ROOT
HETATM    1  F   UNK N   1       4.403  -0.536  -1.756  0.00  0.00    -0.239 F 
HETATM    2  O   UNK N   1       8.454   0.979  -1.799  0.00  0.00    -0.381 OA
HETATM    3  O   UNK N   1      -0.507  -2.937   0.605  0.00  0.00    -0.293 OA
HETATM    4  C   UNK N   1       7.010   0.897   0.126  0.00  0.00     0.001 C 
HETATM    5  C   UNK N   1       6.819  -0.592  -0.167  0.00  0.00     0.005 C 
HETATM    6  C   UNK N   1       5.469  -1.116   0.334  0.00  0.00     0.034 C 
HETATM    7  C   UNK N   1       4.319  -0.322  -0.384  0.00  0.00     0.144 C 
HETATM    8  C   UNK N   1       8.455   1.082  -0.401  0.00  0.00     0.128 C 
HETATM    9  C   UNK N   1       5.907   1.700  -0.577  0.00  0.00     0.048 C 
HETATM   10  C   UNK N   1       2.947  -0.879   0.122  0.00  0.00     0.019 C 
HETATM   11  C   UNK N   1       4.510   1.206  -0.134  0.00  0.00     0.160 C 
HETATM   12  C   UNK N   1       8.080  -1.221   0.407  0.00  0.00     0.009 C 
HETATM   13  C   UNK N   1       9.167  -0.155   0.179  0.00  0.00     0.047 C 
HETATM   14  C   UNK N   1       5.384  -2.643   0.124  0.00  0.00     0.013 C 
HETATM   15  C   UNK N   1       6.938   1.182   1.642  0.00  0.00     0.019 C 
HETATM   16  C   UNK N   1       2.900  -2.388  -0.109  0.00  0.00    -0.065 C 
HETATM   17  C   UNK N   1       4.118  -3.126  -0.578  0.00  0.00     0.036 C 
HETATM   18  C   UNK N   1       1.730  -0.273  -0.597  0.00  0.00     0.025 C 
HETATM   19  C   UNK N   1       2.799  -0.596   1.623  0.00  0.00     0.023 C 
HETATM   20  C   UNK N   1       0.407  -0.845  -0.035  0.00  0.00     0.084 C 
HETATM   21  C   UNK N   1       1.749  -3.061   0.019  0.00  0.00     0.053 C 
HETATM   22  C   UNK N   1       0.488  -2.330   0.244  0.00  0.00     0.149 C 
HETATM   23  H   UNK N   1       8.392   0.945  -2.766  0.00  0.00     0.211 HD
ENDROOT
BRANCH   8  24
HETATM   24  C   UNK N   1       9.183   2.365  -0.030  0.00  0.00     0.184 C 
HETATM   25  O   UNK N   1       8.615   3.229   0.620  0.00  0.00    -0.292 OA
BRANCH  24  26
HETATM   26  C   UNK N   1      10.607   2.614  -0.457  0.00  0.00     0.245 C 
BRANCH  26  27
HETATM   27  O   UNK N   1      11.121   1.568  -1.227  0.00  0.00    -0.393 OA
HETATM   28  H   UNK N   1      10.670   0.895  -1.761  0.00  0.00     0.209 HD
ENDBRANCH  26  27
ENDBRANCH  24  26
ENDBRANCH   8  24
BRANCH  11  29
HETATM   29  O   UNK N   1       3.537   1.952  -0.802  0.00  0.00    -0.392 OA
HETATM   30  H   UNK N   1       3.647   2.796  -1.267  0.00  0.00     0.210 HD
ENDBRANCH  11  29
TORSDOF 4
