REMARK  6 active torsions:
REMARK  status: ('A' for Active; 'I' for Inactive)
REMARK    1  A    between atoms: N_4  and  C_8 
REMARK    2  A    between atoms: N_5  and  C_9 
REMARK    3  A    between atoms: N_5  and  C_11 
REMARK    4  A    between atoms: N_5  and  C_12 
REMARK    5  A    between atoms: C_8  and  C_9 
REMARK    6  A    between atoms: C_15  and  C_21 
ROOT
HETATM    1 Cl   UNK N   1       4.742  -4.644  -0.252  0.00  0.00    -0.084 Cl
HETATM    2  O   UNK N   1       5.423   3.455   0.269  0.00  0.00    -0.271 OA
HETATM    3  N   UNK N   1       4.648   1.354   0.296  0.00  0.00    -0.314 N 
HETATM    4  N   UNK N   1       7.669   1.026  -0.394  0.00  0.00    -0.380 N 
ATOM      5  HN  UNK N   1       8.614   1.372  -0.229  1.00  0.00     0.160 HD
HETATM    6  C   UNK N   1       4.783  -0.075   0.071  0.00  0.00     0.050 A 
HETATM    7  C   UNK N   1       6.030  -0.798  -0.111  0.00  0.00     0.020 A 
HETATM    8  C   UNK N   1       5.592   2.278  -0.028  0.00  0.00     0.242 C 
HETATM    9  C   UNK N   1       7.446  -0.210  -0.115  0.00  0.00     0.054 C 
HETATM   10  C   UNK N   1       6.722   1.957  -0.911  0.00  0.00     0.223 C 
HETATM   11  C   UNK N   1       3.590  -0.834   0.149  0.00  0.00     0.032 A 
HETATM   12  C   UNK N   1       5.941  -2.200  -0.211  0.00  0.00     0.040 A 
HETATM   13  C   UNK N   1       3.565  -2.213   0.037  0.00  0.00     0.026 A 
HETATM   14  C   UNK N   1       4.746  -2.898  -0.145  0.00  0.00     0.035 A 
ENDROOT
BRANCH   3  15
HETATM   15  C   UNK N   1       3.379   1.862   0.807  0.00  0.00     0.162 C 
BRANCH  15  16
HETATM   16  C   UNK N   1       2.322   1.769  -0.299  0.00  0.00     0.292 C 
BRANCH  16  17
HETATM   17  N   UNK N   1       1.052   2.339   0.117  0.00  0.00     0.089 N 
BRANCH  17  18
HETATM   18  C   UNK N   1       0.012   1.564  -0.547  0.00  0.00     0.268 C 
HETATM   19  C   UNK N   1      -0.623   0.598   0.435  0.00  0.00     0.037 C 
ENDBRANCH  17  18
BRANCH  17  20
HETATM   20  C   UNK N   1       1.004   3.682  -0.441  0.00  0.00     0.268 C 
HETATM   21  C   UNK N   1      -0.038   4.516   0.281  0.00  0.00     0.037 C 
ENDBRANCH  17  20
ENDBRANCH  16  17
ENDBRANCH  15  16
ENDBRANCH   3  15
BRANCH   9  22
HETATM   22  C   UNK N   1       8.692  -1.077   0.071  0.00  0.00     0.030 A 
HETATM   23  C   UNK N   1       9.997  -0.507   0.053  0.00  0.00     0.128 A 
HETATM   24  F   UNK N   1      10.189   0.829  -0.069  0.00  0.00    -0.205 F 
HETATM   25  C   UNK N   1      11.130  -1.323   0.153  0.00  0.00     0.043 A 
HETATM   26  C   UNK N   1      11.003  -2.705   0.270  0.00  0.00     0.003 A 
HETATM   27  C   UNK N   1       9.737  -3.281   0.303  0.00  0.00     0.001 A 
HETATM   28  C   UNK N   1       8.603  -2.475   0.208  0.00  0.00     0.017 A 
ENDBRANCH   9  22
TORSDOF 6
