REMARK  1 active torsions:
REMARK  status: ('A' for Active; 'I' for Inactive)
REMARK       I    between atoms: N_4  and  C_13 
REMARK    1  A    between atoms: N_4  and  C_14 
ROOT
HETATM    1 Cl   UNK N   1       1.162  -1.080  -0.020  0.00  0.00    -0.082 Cl
HETATM    2  S   UNK N   1       7.568  -1.498   0.007  0.00  0.00     0.068 SA
HETATM    3  N   UNK N   1       6.408  -0.341   0.002  0.00  0.00    -0.308 N 
ATOM      4  HN  UNK N   1       6.512   0.673  -0.000  1.00  0.00     0.176 HD
HETATM    5  N   UNK N   1       6.771  -2.926   0.008  0.00  0.00    -0.310 N 
ATOM      6  HN  UNK N   1       7.146  -3.875   0.012  1.00  0.00     0.176 HD
HETATM    7  C   UNK N   1       3.971  -0.537  -0.004  0.00  0.00     0.100 A 
HETATM    8  C   UNK N   1       5.266  -1.089   0.001  0.00  0.00     0.096 A 
HETATM    9  C   UNK N   1       5.474  -2.514   0.005  0.00  0.00     0.069 A 
HETATM   10  C   UNK N   1       2.868  -1.468  -0.007  0.00  0.00     0.063 A 
HETATM   11  C   UNK N   1       4.402  -3.383   0.004  0.00  0.00     0.034 A 
HETATM   12  C   UNK N   1       3.115  -2.853  -0.002  0.00  0.00     0.028 A 
ENDROOT
BRANCH   7  13
HETATM   13  N   UNK N   1       3.893   0.901  -0.008  0.00  0.00    -0.188 N 
HETATM   14  C   UNK N   1       2.832   1.855  -0.002  0.00  0.00     0.674 A 
HETATM   15  N   UNK N   1       3.071   3.226  -0.014  0.00  0.00    -0.225 N 
HETATM   16  N   UNK N   1       1.601   1.571   0.016  0.00  0.00    -0.225 N 
HETATM   17  C   UNK N   1       1.809   3.916  -0.003  0.00  0.00     0.158 A 
HETATM   18  H   UNK N   1       3.958   3.654  -0.027  0.00  0.00     0.177 HD
HETATM   19  C   UNK N   1       0.782   2.758   0.018  0.00  0.00     0.158 A 
ATOM     20  HN  UNK N   1       1.233   0.620   0.029  1.00  0.00     0.177 HD
HETATM   21  H   UNK N   1       4.781   1.326  -0.018  0.00  0.00     0.184 HD
ENDBRANCH   7  13
TORSDOF 1
