REMARK  4 active torsions:
REMARK  status: ('A' for Active; 'I' for Inactive)
REMARK    1  A    between atoms: C_7  and  O_2 
REMARK    2  A    between atoms: O_4  and  C_24 
REMARK    3  A    between atoms: N_5  and  C_16 
REMARK    4  A    between atoms: C_16  and  C_18 
ROOT
HETATM    1  O   UNK N   1       0.962  -0.214  -0.812  0.00  0.00    -0.334 OA
HETATM    2  O   UNK N   1      -0.165  -2.612   0.271  0.00  0.00    -0.295 OA
HETATM    3  N   UNK N   1       6.034  -0.933  -0.494  0.00  0.00     0.096 N 
HETATM    4  C   UNK N   1       3.116  -1.070  -0.449  0.00  0.00     0.058 C 
HETATM    5  C   UNK N   1       3.936  -1.911   0.530  0.00  0.00     0.104 C 
HETATM    6  C   UNK N   1       5.279  -1.116   0.763  0.00  0.00     0.262 C 
HETATM    7  C   UNK N   1       1.626  -1.448  -0.740  0.00  0.00     0.214 C 
HETATM    8  C   UNK N   1       3.886  -0.953  -1.780  0.00  0.00     0.051 C 
HETATM    9  C   UNK N   1       2.915   0.283   0.096  0.00  0.00    -0.001 A 
HETATM   10  C   UNK N   1       3.139  -2.085   1.822  0.00  0.00     0.049 C 
HETATM   11  C   UNK N   1       5.276  -0.336  -1.602  0.00  0.00     0.274 C 
HETATM   12  C   UNK N   1       5.060   0.307   1.366  0.00  0.00     0.078 C 
HETATM   13  C   UNK N   1       3.817   0.999   0.863  0.00  0.00    -0.046 A 
HETATM   14  C   UNK N   1       1.782  -2.761   1.583  0.00  0.00     0.084 C 
HETATM   15  C   UNK N   1       1.005  -2.278   0.373  0.00  0.00     0.157 C 
HETATM   16  C   UNK N   1       1.695   0.740  -0.225  0.00  0.00     0.110 A 
HETATM   17  C   UNK N   1       3.467   2.304   1.249  0.00  0.00     0.011 A 
HETATM   18  C   UNK N   1       1.310   2.040   0.116  0.00  0.00     0.099 A 
HETATM   19  C   UNK N   1       2.220   2.839   0.842  0.00  0.00     0.040 A 
ENDROOT
BRANCH   3  20
HETATM   20  C   UNK N   1       6.758  -2.127  -0.915  0.00  0.00     0.277 C 
BRANCH  20  21
HETATM   21  C   UNK N   1       8.216  -1.775  -1.197  0.00  0.00     0.014 A 
HETATM   22  C   UNK N   1       9.087  -2.477  -0.173  0.00  0.00     0.007 A 
HETATM   23  C   UNK N   1       8.831  -0.995  -0.043  0.00  0.00     0.007 A 
ENDBRANCH  20  21
ENDBRANCH   3  20
BRANCH   5  24
HETATM   24  O   UNK N   1       4.198  -3.177  -0.008  0.00  0.00    -0.386 OA
HETATM   25  H   UNK N   1       3.530  -3.773  -0.380  0.00  0.00     0.210 HD
ENDBRANCH   5  24
BRANCH  18  26
HETATM   26  O   UNK N   1       0.099   2.514  -0.220  0.00  0.00    -0.358 OA
HETATM   27  H   UNK N   1      -0.037   3.411  -0.454  0.00  0.00     0.217 HD
ENDBRANCH  18  26
TORSDOF 4
