REMARK  2 active torsions:
REMARK  status: ('A' for Active; 'I' for Inactive)
REMARK       I    between atoms: N_2  and  C_9 
REMARK       I    between atoms: N_4  and  C_9 
REMARK    1  A    between atoms: N_4  and  C_11 
REMARK    2  A    between atoms: N_4  and  C_12 
ROOT
HETATM    1  O   UNK N   1       5.301  -1.980   0.343  0.00  0.00    -0.247 OA
HETATM    2  N   UNK N   1       4.250  -0.107  -0.286  0.00  0.00    -0.331 N 
HETATM    3  N   UNK N   1       4.279   2.701  -0.280  0.00  0.00     0.087 N 
HETATM    4  N   UNK N   1       3.115  -2.255  -0.054  0.00  0.00    -0.335 N 
HETATM    5  C   UNK N   1       5.516   0.609  -0.264  0.00  0.00     0.157 C 
HETATM    6  C   UNK N   1       3.079   0.637  -0.724  0.00  0.00     0.157 C 
HETATM    7  C   UNK N   1       5.347   1.974   0.400  0.00  0.00     0.291 C 
HETATM    8  C   UNK N   1       3.027   1.995  -0.024  0.00  0.00     0.291 C 
HETATM    9  C   UNK N   1       4.239  -1.455   0.017  0.00  0.00     0.320 C 
HETATM   10  C   UNK N   1       4.186   4.023   0.310  0.00  0.00     0.310 C 
ENDROOT
BRANCH   4  11
HETATM   11  C   UNK N   1       3.268  -3.682   0.220  0.00  0.00     0.123 C 
HETATM   12  C   UNK N   1       2.015  -4.516  -0.033  0.00  0.00     0.026 C 
ENDBRANCH   4  11
BRANCH   4  13
HETATM   13  C   UNK N   1       1.809  -1.746  -0.432  0.00  0.00     0.123 C 
HETATM   14  C   UNK N   1       1.018  -1.364   0.807  0.00  0.00     0.026 C 
ENDBRANCH   4  13
TORSDOF 2
