REMARK  6 active torsions:
REMARK  status: ('A' for Active; 'I' for Inactive)
REMARK    1  A    between atoms: O_1  and  C_5 
REMARK    2  A    between atoms: O_2  and  C_9 
REMARK    3  A    between atoms: O_3  and  C_11 
REMARK    4  A    between atoms: N_4  and  C_6 
REMARK    5  A    between atoms: C_5  and  C_6 
REMARK    6  A    between atoms: C_5  and  C_7 
ROOT
HETATM    1  C   UNK N   1       3.599   0.118  -0.018  0.00  0.00     0.008 A 
HETATM    2  C   UNK N   1       2.389  -0.638   0.116  0.00  0.00     0.077 A 
HETATM    3  C   UNK N   1       4.815  -0.577  -0.141  0.00  0.00     0.049 A 
HETATM    4  C   UNK N   1       4.868  -1.970  -0.135  0.00  0.00     0.069 A 
HETATM    5  C   UNK N   1       2.460  -2.037   0.094  0.00  0.00     0.040 A 
HETATM    6  C   UNK N   1       3.679  -2.699  -0.025  0.00  0.00     0.039 A 
ENDROOT
BRANCH   1   7
HETATM    7  C   UNK N   1       3.615   1.640  -0.049  0.00  0.00     0.175 C 
BRANCH   7   8
HETATM    8  O   UNK N   1       2.897   2.076  -1.165  0.00  0.00    -0.389 OA
HETATM    9  H   UNK N   1       2.909   2.659  -1.940  0.00  0.00     0.210 HD
ENDBRANCH   7   8
BRANCH   7  10
HETATM   10  C   UNK N   1       5.010   2.292  -0.084  0.00  0.00     0.103 C 
HETATM   11  C   UNK N   1       5.833   1.946   1.145  0.00  0.00     0.034 C 
BRANCH  10  12
HETATM   12  N   UNK N   1       4.877   3.738  -0.156  0.00  0.00    -0.424 N 
HETATM   13  H   UNK N   1       5.709   4.326  -0.206  0.00  0.00     0.150 HD
HETATM   14  H   UNK N   1       3.951   4.165  -0.156  0.00  0.00     0.150 HD
ENDBRANCH  10  12
ENDBRANCH   7  10
ENDBRANCH   1   7
BRANCH   2  15
HETATM   15  O   UNK N   1       1.150  -0.097   0.272  0.00  0.00    -0.355 OA
HETATM   16  C   UNK N   1       0.856   1.213   0.565  0.00  0.00     0.210 C 
ENDBRANCH   2  15
BRANCH   4  17
HETATM   17  O   UNK N   1       6.072  -2.581  -0.229  0.00  0.00    -0.356 OA
HETATM   18  C   UNK N   1       6.230  -3.949  -0.190  0.00  0.00     0.210 C 
ENDBRANCH   4  17
TORSDOF 6
