REMARK  3 active torsions:
REMARK  status: ('A' for Active; 'I' for Inactive)
REMARK    1  A    between atoms: O_5  and  C_12 
REMARK    2  A    between atoms: O_5  and  C_16 
REMARK    3  A    between atoms: N_8  and  C_15 
ROOT
HETATM    1  S   UNK N   1       7.457   1.287   0.089  0.00  0.00    -0.052 SA
HETATM    2  N   UNK N   1       7.377  -1.193  -0.074  0.00  0.00    -0.336 N 
ATOM      3  HN  UNK N   1       7.640  -2.176  -0.147  1.00  0.00     0.168 HD
HETATM    4  C   UNK N   1       5.936   0.648   0.099  0.00  0.00     0.037 A 
HETATM    5  C   UNK N   1       6.080  -0.737  -0.002  0.00  0.00     0.051 A 
HETATM    6  C   UNK N   1       4.699   1.267   0.196  0.00  0.00     0.058 A 
HETATM    7  C   UNK N   1       3.547   0.461   0.175  0.00  0.00     0.079 A 
HETATM    8  C   UNK N   1       4.951  -1.554  -0.016  0.00  0.00     0.034 A 
HETATM    9  C   UNK N   1       3.682  -0.950   0.070  0.00  0.00     0.039 A 
HETATM   10  C   UNK N   1       8.262  -0.158  -0.034  0.00  0.00     0.143 A 
ENDROOT
BRANCH   7  11
HETATM   11  O   UNK N   1       2.336   1.070   0.273  0.00  0.00    -0.255 OA
BRANCH  11  12
HETATM   12  C   UNK N   1       1.095   0.564  -0.084  0.00  0.00     0.530 C 
HETATM   13  F   UNK N   1       1.176  -0.646  -0.751  0.00  0.00    -0.144 F 
HETATM   14  F   UNK N   1       0.314   0.409   1.046  0.00  0.00    -0.144 F 
HETATM   15  F   UNK N   1       0.484   1.477  -0.921  0.00  0.00    -0.144 F 
ENDBRANCH  11  12
ENDBRANCH   7  11
BRANCH  10  16
HETATM   16  N   UNK N   1       9.661  -0.316  -0.066  0.00  0.00    -0.380 N 
HETATM   17  H   UNK N   1      10.054  -1.218  -0.088  0.00  0.00     0.158 HD
HETATM   18  H   UNK N   1      10.246   0.476  -0.066  0.00  0.00     0.158 HD
ENDBRANCH  10  16
TORSDOF 3
