REMARK  5 active torsions:
REMARK  status: ('A' for Active; 'I' for Inactive)
REMARK    1  A    between atoms: C_10  and  O_1 
REMARK    2  A    between atoms: C_13  and  O_2 
REMARK    3  A    between atoms: O_4  and  C_26 
REMARK    4  A    between atoms: C_10  and  C_22 
REMARK    5  A    between atoms: C_22  and  C_26 
ROOT
HETATM    1  O   UNK N   1      -0.351  -3.373  -0.161  0.00  0.00    -0.293 OA
HETATM    2  C   UNK N   1       7.023   0.872  -0.292  0.00  0.00     0.001 C 
HETATM    3  C   UNK N   1       6.816  -0.535   0.272  0.00  0.00     0.002 C 
HETATM    4  C   UNK N   1       5.584  -1.219  -0.335  0.00  0.00    -0.002 C 
HETATM    5  C   UNK N   1       4.334  -0.364   0.069  0.00  0.00     0.031 C 
HETATM    6  C   UNK N   1       8.338   1.260   0.421  0.00  0.00     0.128 C 
HETATM    7  C   UNK N   1       5.796   1.740   0.022  0.00  0.00     0.045 C 
HETATM    8  C   UNK N   1       3.023  -1.105  -0.336  0.00  0.00    -0.014 C 
HETATM    9  C   UNK N   1       4.495   1.081  -0.492  0.00  0.00     0.124 C 
HETATM   10  C   UNK N   1       8.174  -1.185   0.075  0.00  0.00     0.009 C 
HETATM   11  C   UNK N   1       9.168  -0.040   0.332  0.00  0.00     0.047 C 
HETATM   12  C   UNK N   1       5.499  -2.692   0.117  0.00  0.00     0.010 C 
HETATM   13  C   UNK N   1       7.229   0.846  -1.820  0.00  0.00     0.019 C 
HETATM   14  C   UNK N   1       3.034  -2.491   0.309  0.00  0.00    -0.068 C 
HETATM   15  C   UNK N   1       4.278  -3.007   0.971  0.00  0.00     0.035 C 
HETATM   16  C   UNK N   1       1.756  -0.383   0.151  0.00  0.00     0.022 C 
HETATM   17  C   UNK N   1       2.948  -1.246  -1.859  0.00  0.00     0.020 C 
HETATM   18  C   UNK N   1       0.478  -1.156  -0.238  0.00  0.00     0.084 C 
HETATM   19  C   UNK N   1       1.913  -3.221   0.387  0.00  0.00     0.053 C 
HETATM   20  C   UNK N   1       0.621  -2.647  -0.035  0.00  0.00     0.149 C 
ENDROOT
BRANCH   6  21
HETATM   21  O   UNK N   1       8.082   1.514   1.774  0.00  0.00    -0.381 OA
HETATM   22  H   UNK N   1       8.146   1.756   2.712  0.00  0.00     0.211 HD
ENDBRANCH   6  21
BRANCH   6  23
HETATM   23  C   UNK N   1       9.047   2.471  -0.158  0.00  0.00     0.184 C 
HETATM   24  O   UNK N   1       8.474   3.548  -0.184  0.00  0.00    -0.292 OA
BRANCH  23  25
HETATM   25  C   UNK N   1      10.461   2.394  -0.660  0.00  0.00     0.245 C 
BRANCH  25  26
HETATM   26  O   UNK N   1      10.553   1.514  -1.739  0.00  0.00    -0.393 OA
HETATM   27  H   UNK N   1      10.055   1.153  -2.489  0.00  0.00     0.209 HD
ENDBRANCH  25  26
ENDBRANCH  23  25
ENDBRANCH   6  23
BRANCH   9  28
HETATM   28  O   UNK N   1       3.417   1.888  -0.126  0.00  0.00    -0.395 OA
HETATM   29  H   UNK N   1       3.529   2.817   0.129  0.00  0.00     0.210 HD
ENDBRANCH   9  28
TORSDOF 5
