REMARK  27 active torsions:
REMARK  status: ('A' for Active; 'I' for Inactive)
REMARK    1  A    between atoms: O_1  and  N_9 
REMARK    2  A    between atoms: O_2  and  N_12 
REMARK    3  A    between atoms: O_6  and  N_13 
REMARK    4  A    between atoms: N_9  and  C_19 
REMARK       I    between atoms: N_9  and  C_33 
REMARK    5  A    between atoms: N_10  and  C_21 
REMARK       I    between atoms: N_10  and  C_34 
REMARK    6  A    between atoms: N_11  and  C_25 
REMARK       I    between atoms: N_11  and  C_35 
REMARK    7  A    between atoms: N_12  and  C_26 
REMARK       I    between atoms: N_12  and  C_37 
REMARK    8  A    between atoms: N_13  and  C_28 
REMARK       I    between atoms: N_13  and  C_38 
REMARK    9  A    between atoms: N_14  and  C_36 
REMARK   10  A    between atoms: C_15  and  C_16 
REMARK   11  A    between atoms: C_15  and  C_17 
REMARK   12  A    between atoms: C_16  and  C_19 
REMARK   13  A    between atoms: C_17  and  C_21 
REMARK   14  A    between atoms: C_18  and  C_20 
REMARK   15  A    between atoms: C_18  and  C_22 
REMARK   16  A    between atoms: C_20  and  C_25 
REMARK   17  A    between atoms: C_22  and  C_28 
REMARK   18  A    between atoms: C_23  and  C_24 
REMARK   19  A    between atoms: C_23  and  C_26 
REMARK   20  A    between atoms: C_24  and  C_27 
REMARK   21  A    between atoms: C_27  and  C_36 
REMARK   22  A    between atoms: C_29  and  C_30 
REMARK   23  A    between atoms: C_29  and  C_33 
REMARK   24  A    between atoms: C_30  and  C_35 
REMARK   25  A    between atoms: C_31  and  C_32 
REMARK   26  A    between atoms: C_31  and  C_34 
REMARK   27  A    between atoms: C_32  and  C_37 
ROOT
HETATM    1  C   UNK N   1      12.004   1.274  -0.354  0.00  0.00     0.022 C 
ENDROOT
BRANCH   1   2
HETATM    2  C   UNK N   1      11.854   0.043  -1.262  0.00  0.00     0.003 C 
BRANCH   2   3
HETATM    3  C   UNK N   1      11.751  -1.305  -0.535  0.00  0.00     0.020 C 
BRANCH   3   4
HETATM    4  C   UNK N   1      10.788  -1.282   0.643  0.00  0.00     0.122 C 
BRANCH   4   5
HETATM    5  N   UNK N   1       9.460  -0.960   0.192  0.00  0.00    -0.361 N 
HETATM    6  C   UNK N   1       8.867   0.217   0.511  0.00  0.00     0.217 C 
HETATM    7  O   UNK N   1       9.455   1.044   1.191  0.00  0.00    -0.274 OA
HETATM    8  H   UNK N   1       8.970  -1.610  -0.362  0.00  0.00     0.162 HD
BRANCH   6   9
HETATM    9  C   UNK N   1       7.488   0.529   0.032  0.00  0.00     0.112 C 
BRANCH   9  10
HETATM   10  C   UNK N   1       6.881  -0.586  -0.805  0.00  0.00     0.114 C 
BRANCH  10  11
HETATM   11  C   UNK N   1       5.554  -0.986  -0.243  0.00  0.00     0.243 C 
HETATM   12  O   UNK N   1       5.390  -2.144   0.114  0.00  0.00    -0.271 OA
HETATM   13  N   UNK N   1       4.537  -0.086  -0.148  0.00  0.00    -0.229 N 
BRANCH  13  14
HETATM   14  O   UNK N   1       4.723   1.182  -0.552  0.00  0.00    -0.285 OA
HETATM   15  H   UNK N   1       5.583   1.524  -0.844  0.00  0.00     0.245 HD
ENDBRANCH  13  14
BRANCH  13  16
HETATM   16  C   UNK N   1       3.250  -0.505   0.363  0.00  0.00     0.159 C 
BRANCH  16  17
HETATM   17  C   UNK N   1       2.185   0.562   0.197  0.00  0.00     0.022 C 
BRANCH  17  18
HETATM   18  C   UNK N   1       0.856  -0.146   0.079  0.00  0.00     0.003 C 
BRANCH  18  19
HETATM   19  C   UNK N   1      -0.274   0.852   0.001  0.00  0.00     0.019 C 
BRANCH  19  20
HETATM   20  C   UNK N   1      -1.578   0.085  -0.056  0.00  0.00     0.111 C 
BRANCH  20  21
HETATM   21  N   UNK N   1      -2.691   1.012  -0.011  0.00  0.00    -0.430 N 
HETATM   22  H   UNK N   1      -2.518   2.017   0.021  0.00  0.00     0.149 HD
HETATM   23  H   UNK N   1      -3.648   0.660  -0.011  0.00  0.00     0.149 HD
ENDBRANCH  20  21
ENDBRANCH  19  20
ENDBRANCH  18  19
ENDBRANCH  17  18
ENDBRANCH  16  17
ENDBRANCH  13  16
ENDBRANCH  10  11
ENDBRANCH   9  10
ENDBRANCH   6   9
ENDBRANCH   4   5
ENDBRANCH   3   4
ENDBRANCH   2   3
ENDBRANCH   1   2
BRANCH   1  24
HETATM   24  C   UNK N   1      12.923   1.057   0.850  0.00  0.00     0.159 C 
BRANCH  24  25
HETATM   25  N   UNK N   1      14.196   0.523   0.433  0.00  0.00    -0.229 N 
HETATM   26  C   UNK N   1      15.073   1.293  -0.283  0.00  0.00     0.243 C 
HETATM   27  O   UNK N   1      14.797   2.461  -0.515  0.00  0.00    -0.271 OA
BRANCH  25  28
HETATM   28  O   UNK N   1      14.484  -0.742   0.766  0.00  0.00    -0.285 OA
HETATM   29  H   UNK N   1      13.795  -1.381   1.006  0.00  0.00     0.245 HD
ENDBRANCH  25  28
BRANCH  26  30
HETATM   30  C   UNK N   1      16.389   0.779  -0.816  0.00  0.00     0.114 C 
BRANCH  30  31
HETATM   31  C   UNK N   1      16.664  -0.716  -0.691  0.00  0.00     0.112 C 
BRANCH  31  32
HETATM   32  C   UNK N   1      17.981  -0.986  -0.035  0.00  0.00     0.217 C 
HETATM   33  O   UNK N   1      18.370  -2.139   0.077  0.00  0.00    -0.274 OA
HETATM   34  N   UNK N   1      18.738   0.043   0.414  0.00  0.00    -0.361 N 
HETATM   35  H   UNK N   1      18.384   0.958   0.339  0.00  0.00     0.162 HD
BRANCH  34  36
HETATM   36  C   UNK N   1      20.036  -0.150   0.995  0.00  0.00     0.122 C 
BRANCH  36  37
HETATM   37  C   UNK N   1      21.043   0.549   0.114  0.00  0.00     0.020 C 
BRANCH  37  38
HETATM   38  C   UNK N   1      21.845  -0.475  -0.666  0.00  0.00     0.003 C 
BRANCH  38  39
HETATM   39  C   UNK N   1      23.218  -0.647  -0.044  0.00  0.00     0.022 C 
BRANCH  39  40
HETATM   40  C   UNK N   1      23.980   0.675  -0.113  0.00  0.00     0.159 C 
BRANCH  40  41
HETATM   41  N   UNK N   1      25.433   0.622  -0.006  0.00  0.00    -0.229 N 
HETATM   42  C   UNK N   1      26.173  -0.530   0.031  0.00  0.00     0.239 C 
HETATM   43  O   UNK N   1      25.648  -1.631  -0.013  0.00  0.00    -0.272 OA
HETATM   44  C   UNK N   1      27.663  -0.458   0.116  0.00  0.00     0.119 C 
BRANCH  41  45
HETATM   45  O   UNK N   1      26.078   1.797   0.031  0.00  0.00    -0.285 OA
HETATM   46  H   UNK N   1      27.047   1.818   0.057  0.00  0.00     0.245 HD
ENDBRANCH  41  45
ENDBRANCH  40  41
ENDBRANCH  39  40
ENDBRANCH  38  39
ENDBRANCH  37  38
ENDBRANCH  36  37
ENDBRANCH  34  36
ENDBRANCH  31  32
ENDBRANCH  30  31
ENDBRANCH  26  30
ENDBRANCH  24  25
ENDBRANCH   1  24
TORSDOF 27
