REMARK  5 active torsions:
REMARK  status: ('A' for Active; 'I' for Inactive)
REMARK    1  A    between atoms: N_2  and  C_4 
REMARK    2  A    between atoms: N_2  and  C_5 
REMARK       I    between atoms: N_3  and  C_7 
REMARK    3  A    between atoms: N_3  and  C_9 
REMARK    4  A    between atoms: C_4  and  C_7 
REMARK    5  A    between atoms: C_5  and  C_6 
ROOT
HETATM    1  O   UNK N   1       5.170  -0.306  -0.359  0.00  0.00    -0.271 OA
HETATM    2  N   UNK N   1       2.925  -0.398  -0.250  0.00  0.00    -0.325 N 
HETATM    3  C   UNK N   1       4.095   0.280  -0.390  0.00  0.00     0.244 C 
HETATM    4  H   UNK N   1       2.095   0.125  -0.328  0.00  0.00     0.169 HD
ENDROOT
BRANCH   2   5
HETATM    5  C   UNK N   1       2.785  -1.796  -0.001  0.00  0.00     0.040 A 
HETATM    6  C   UNK N   1       1.515  -2.392  -0.104  0.00  0.00    -0.035 A 
HETATM    7  C   UNK N   1       1.362  -3.764   0.116  0.00  0.00     0.009 A 
HETATM    8  C   UNK N   1       0.318  -1.579  -0.466  0.00  0.00     0.050 C 
HETATM    9  C   UNK N   1       2.467  -4.551   0.451  0.00  0.00     0.001 A 
HETATM   10  C   UNK N   1       3.729  -3.967   0.572  0.00  0.00     0.002 A 
HETATM   11  C   UNK N   1       3.889  -2.598   0.345  0.00  0.00     0.030 A 
ENDBRANCH   2   5
BRANCH   3  12
HETATM   12  C   UNK N   1       4.092   1.767  -0.589  0.00  0.00     0.165 C 
HETATM   13  C   UNK N   1       2.736   2.300  -1.035  0.00  0.00     0.042 C 
BRANCH  12  14
HETATM   14  N   UNK N   1       4.500   2.413   0.652  0.00  0.00    -0.409 N 
HETATM   15  H   UNK N   1       4.339   2.052   1.593  0.00  0.00     0.154 HD
BRANCH  14  16
HETATM   16  C   UNK N   1       5.175   3.657   0.324  0.00  0.00     0.114 C 
BRANCH  16  17
HETATM   17  C   UNK N   1       6.641   3.385   0.049  0.00  0.00     0.015 C 
HETATM   18  C   UNK N   1       7.342   4.684  -0.281  0.00  0.00     0.006 C 
ENDBRANCH  16  17
ENDBRANCH  14  16
ENDBRANCH  12  14
ENDBRANCH   3  12
TORSDOF 5
