REMARK  0 active torsions:
REMARK  status: ('A' for Active; 'I' for Inactive)
REMARK       I    between atoms: N_4  and  C_12 
ROOT
HETATM    1  N   UNK N   1       3.516  -0.961   0.000  0.00  0.00    -0.173 N 
HETATM    2  N   UNK N   1       1.992  -2.628  -0.000  0.00  0.00    -0.224 N 
ATOM      3  HN  UNK N   1       1.617  -3.577  -0.000  1.00  0.00     0.177 HD
HETATM    4  N   UNK N   1       4.214  -3.375   0.000  0.00  0.00    -0.235 N 
HETATM    5  C   UNK N   1       2.232  -0.308   0.000  0.00  0.00     0.160 A 
HETATM    6  C   UNK N   1       1.842   1.139   0.000  0.00  0.00    -0.026 A 
HETATM    7  C   UNK N   1       1.178  -1.436  -0.000  0.00  0.00     0.169 A 
HETATM    8  C   UNK N   1       4.844  -0.399   0.000  0.00  0.00     0.059 A 
HETATM    9  C   UNK N   1       2.736   2.225   0.000  0.00  0.00    -0.045 A 
HETATM   10  C   UNK N   1       4.212   2.154   0.000  0.00  0.00     0.080 A 
HETATM   11  C   UNK N   1       5.142   0.997   0.000  0.00  0.00    -0.026 A 
HETATM   12  C   UNK N   1       3.236  -2.352   0.000  0.00  0.00     0.675 A 
HETATM   13  C   UNK N   1       0.461   1.410  -0.000  0.00  0.00     0.010 A 
HETATM   14  C   UNK N   1       2.232   3.532   0.000  0.00  0.00     0.008 A 
HETATM   15  C   UNK N   1       5.938  -1.289  -0.000  0.00  0.00     0.031 A 
HETATM   16  C   UNK N   1       6.482   1.410   0.000  0.00  0.00     0.010 A 
HETATM   17  C   UNK N   1      -0.026   2.716  -0.000  0.00  0.00     0.001 A 
HETATM   18  C   UNK N   1       0.864   3.782  -0.000  0.00  0.00     0.001 A 
HETATM   19  C   UNK N   1       7.259  -0.853  -0.000  0.00  0.00     0.002 A 
HETATM   20  C   UNK N   1       7.532   0.503  -0.000  0.00  0.00     0.001 A 
HETATM   21  H   UNK N   1       3.938  -4.319   0.000  0.00  0.00     0.174 HD
HETATM   22  H   UNK N   1       5.170  -3.141   0.000  0.00  0.00     0.174 HD
ENDROOT
TORSDOF 0
