REMARK  2 active torsions:
REMARK  status: ('A' for Active; 'I' for Inactive)
REMARK    1  A    between atoms: N_3  and  C_9 
REMARK    2  A    between atoms: C_5  and  C_7 
ROOT
HETATM    1  O   UNK N   1       5.144   0.649   0.000  0.00  0.00    -0.270 OA
HETATM    2  O   UNK N   1       1.315   2.982  -0.000  0.00  0.00    -0.247 OA
HETATM    3  N   UNK N   1       3.437   2.148   0.000  0.00  0.00    -0.268 N 
HETATM    4  N   UNK N   1       1.661   0.757  -0.000  0.00  0.00    -0.325 N 
HETATM    5  C   UNK N   1       2.832  -0.086  -0.000  0.00  0.00     0.212 A 
HETATM    6  C   UNK N   1       3.949   0.903   0.000  0.00  0.00     0.255 A 
HETATM    7  C   UNK N   1       2.086   2.036  -0.000  0.00  0.00     0.326 A 
HETATM    8  H   UNK N   1       0.725   0.454  -0.000  0.00  0.00     0.165 HD
ENDROOT
BRANCH   5   9
HETATM    9  C   UNK N   1       2.720  -1.574  -0.000  0.00  0.00    -0.026 A 
HETATM   10  C   UNK N   1       3.862  -2.382   0.000  0.00  0.00     0.010 A 
HETATM   11  C   UNK N   1       3.731  -3.776   0.000  0.00  0.00     0.001 A 
HETATM   12  C   UNK N   1       2.460  -4.360   0.000  0.00  0.00     0.000 A 
HETATM   13  C   UNK N   1       1.319  -3.554   0.000  0.00  0.00     0.001 A 
HETATM   14  C   UNK N   1       1.450  -2.165   0.000  0.00  0.00     0.010 A 
ENDBRANCH   5   9
BRANCH   3  15
HETATM   15  C   UNK N   1       4.250   3.357   0.000  0.00  0.00     0.132 C 
HETATM   16  C   UNK N   1       3.452   4.654   0.000  0.00  0.00     0.027 C 
ENDBRANCH   3  15
TORSDOF 2
