REMARK  0 active torsions:
REMARK  status: ('A' for Active; 'I' for Inactive)
ROOT
HETATM    1  S   UNK N   1       4.530  -0.470  -0.000  0.00  0.00    -0.040 SA
HETATM    2  N   UNK N   1       2.066  -0.615  -0.000  0.00  0.00    -0.337 N 
HETATM    3  N   UNK N   1       2.982   1.421   0.000  0.00  0.00    -0.342 N 
HETATM    4  C   UNK N   1       3.210   0.096  -0.000  0.00  0.00     0.177 A 
HETATM    5  C   UNK N   1       1.068   0.281   0.000  0.00  0.00     0.110 A 
HETATM    6  C   UNK N   1       1.884  -2.061  -0.000  0.00  0.00     0.158 C 
HETATM    7  C   UNK N   1       1.635   1.546   0.000  0.00  0.00     0.107 A 
HETATM    8  H   UNK N   1       3.650   2.144   0.000  0.00  0.00     0.167 HD
ENDROOT
TORSDOF 0
