REMARK  6 active torsions:
REMARK  status: ('A' for Active; 'I' for Inactive)
REMARK    1  A    between atoms: O_2  and  C_25 
REMARK    2  A    between atoms: N_4  and  C_13 
REMARK    3  A    between atoms: C_10  and  C_11 
REMARK    4  A    between atoms: C_10  and  C_13 
REMARK    5  A    between atoms: C_15  and  C_20 
REMARK    6  A    between atoms: C_20  and  C_25 
ROOT
HETATM    1  O   UNK N   1       6.352   3.444  -0.019  0.00  0.00    -0.346 OA
HETATM    2  C   UNK N   1       6.762   0.436   0.182  0.00  0.00    -0.016 C 
HETATM    3  C   UNK N   1       5.426   1.202   0.199  0.00  0.00     0.009 A 
HETATM    4  C   UNK N   1       8.129   1.075  -0.011  0.00  0.00    -0.017 A 
HETATM    5  C   UNK N   1       8.347   2.373  -0.526  0.00  0.00    -0.023 A 
HETATM    6  C   UNK N   1       5.305   2.627   0.155  0.00  0.00     0.080 A 
HETATM    7  C   UNK N   1       6.803  -0.897   0.481  0.00  0.00    -0.012 C 
HETATM    8  C   UNK N   1       7.246   3.209  -1.018  0.00  0.00     0.215 C 
HETATM    9  C   UNK N   1       4.231   0.473   0.354  0.00  0.00     0.022 A 
HETATM   10  C   UNK N   1       2.984   1.082   0.471  0.00  0.00    -0.047 A 
HETATM   11  C   UNK N   1       9.272   0.325   0.354  0.00  0.00     0.013 A 
HETATM   12  C   UNK N   1       4.048   3.231   0.300  0.00  0.00     0.038 A 
HETATM   13  C   UNK N   1       9.644   2.889  -0.640  0.00  0.00     0.010 A 
HETATM   14  C   UNK N   1       2.896   2.470   0.461  0.00  0.00     0.010 A 
HETATM   15  C   UNK N   1      10.561   0.845   0.238  0.00  0.00     0.001 A 
HETATM   16  C   UNK N   1      10.747   2.133  -0.250  0.00  0.00     0.001 A 
ENDROOT
BRANCH   7  17
HETATM   17  C   UNK N   1       5.669  -1.805   0.858  0.00  0.00     0.058 C 
BRANCH  17  18
HETATM   18  C   UNK N   1       5.701  -3.128   0.103  0.00  0.00     0.275 C 
BRANCH  18  19
HETATM   19  N   UNK N   1       4.696  -3.179  -0.954  0.00  0.00     0.080 N 
HETATM   20  C   UNK N   1       4.778  -4.507  -1.535  0.00  0.00     0.309 C 
HETATM   21  C   UNK N   1       3.367  -3.078  -0.365  0.00  0.00     0.309 C 
ENDBRANCH  18  19
ENDBRANCH  17  18
ENDBRANCH   7  17
BRANCH  10  22
HETATM   22  C   UNK N   1       1.769   0.233   0.677  0.00  0.00     0.148 C 
BRANCH  22  23
HETATM   23  C   UNK N   1       0.745   0.407  -0.402  0.00  0.00     0.143 C 
HETATM   24  O   UNK N   1       0.176   1.478  -0.544  0.00  0.00    -0.650 OA
BRANCH  23  25
HETATM   25  O   UNK N   1       0.420  -0.633  -1.190  0.00  0.00    -0.776 OA
HETATM   26  H   UNK N   1      -0.320  -0.800  -1.739  0.00  0.00     0.167 HD
ENDBRANCH  23  25
ENDBRANCH  22  23
ENDBRANCH  10  22
TORSDOF 6
