REMARK  8 active torsions:
REMARK  status: ('A' for Active; 'I' for Inactive)
REMARK    1  A    between atoms: C_16  and  O_1 
REMARK    2  A    between atoms: C_22  and  O_1 
REMARK    3  A    between atoms: C_24  and  O_6 
REMARK    4  A    between atoms: C_26  and  O_8 
REMARK    5  A    between atoms: O_11  and  C_36 
REMARK    6  A    between atoms: O_12  and  C_37 
REMARK    7  A    between atoms: O_13  and  C_39 
REMARK    8  A    between atoms: C_17  and  C_23 
ROOT
HETATM    1  O   UNK N   1       6.585   1.450   0.818  0.00  0.00    -0.321 OA
HETATM    2  O   UNK N   1       8.308   0.046   0.712  0.00  0.00    -0.265 OA
HETATM    3  O   UNK N   1       1.288  -4.961   0.287  0.00  0.00    -0.323 OA
HETATM    4  O   UNK N   1       3.029  -6.014  -0.586  0.00  0.00    -0.323 OA
HETATM    5  C   UNK N   1       4.888   0.067   0.239  0.00  0.00     0.058 C 
HETATM    6  C   UNK N   1       6.064  -0.838   0.564  0.00  0.00     0.107 C 
HETATM    7  C   UNK N   1       3.510  -0.558   0.537  0.00  0.00     0.165 C 
HETATM    8  C   UNK N   1       6.025  -1.981  -0.485  0.00  0.00     0.066 C 
HETATM    9  C   UNK N   1       3.518  -2.039   0.222  0.00  0.00    -0.019 A 
HETATM   10  C   UNK N   1       4.680  -2.727  -0.299  0.00  0.00    -0.037 A 
HETATM   11  C   UNK N   1       5.221   1.383   0.943  0.00  0.00     0.187 C 
HETATM   12  C   UNK N   1       7.109   0.239   0.605  0.00  0.00     0.264 C 
HETATM   13  C   UNK N   1       2.325  -2.755   0.453  0.00  0.00     0.050 A 
HETATM   14  C   UNK N   1       4.558  -4.099  -0.624  0.00  0.00     0.048 A 
HETATM   15  C   UNK N   1       2.297  -4.102   0.143  0.00  0.00     0.105 A 
HETATM   16  C   UNK N   1       3.346  -4.739  -0.379  0.00  0.00     0.105 A 
HETATM   17  C   UNK N   1       1.708  -6.214  -0.168  0.00  0.00     0.352 A 
ENDROOT
BRANCH   7  18
HETATM   18  O   UNK N   1       2.475   0.018  -0.251  0.00  0.00    -0.348 OA
BRANCH  18  19
HETATM   19  C   UNK N   1       2.456   1.411  -0.095  0.00  0.00     0.292 C 
HETATM   20  O   UNK N   1       3.202   2.008  -1.142  0.00  0.00    -0.348 OA
HETATM   21  C   UNK N   1       3.307   3.418  -0.993  0.00  0.00     0.180 C 
HETATM   22  C   UNK N   1       2.506   4.020   0.192  0.00  0.00     0.187 C 
HETATM   23  C   UNK N   1       4.766   3.870  -0.846  0.00  0.00     0.205 C 
HETATM   24  O   UNK N   1       2.594   5.438   0.223  0.00  0.00    -0.351 OA
HETATM   25  C   UNK N   1       1.055   3.518   0.080  0.00  0.00     0.183 C 
HETATM   26  C   UNK N   1       3.877   5.884  -0.218  0.00  0.00     0.256 C 
HETATM   27  O   UNK N   1       4.897   4.947   0.064  0.00  0.00    -0.359 OA
HETATM   28  C   UNK N   1       4.216   7.202   0.445  0.00  0.00     0.070 C 
HETATM   29  C   UNK N   1       1.026   1.979  -0.077  0.00  0.00     0.204 C 
BRANCH  25  30
HETATM   30  O   UNK N   1       0.421   4.098  -1.021  0.00  0.00    -0.390 OA
HETATM   31  H   UNK N   1       0.549   4.681  -1.785  0.00  0.00     0.210 HD
ENDBRANCH  25  30
BRANCH  29  32
HETATM   32  O   UNK N   1       0.282   1.407   0.954  0.00  0.00    -0.388 OA
HETATM   33  H   UNK N   1      -0.322   1.657   1.671  0.00  0.00     0.210 HD
ENDBRANCH  29  32
ENDBRANCH  18  19
ENDBRANCH   7  18
BRANCH   8  34
HETATM   34  C   UNK N   1       7.297  -2.814  -0.407  0.00  0.00    -0.043 A 
HETATM   35  C   UNK N   1       8.518  -2.200  -0.686  0.00  0.00     0.047 A 
HETATM   36  C   UNK N   1       9.732  -2.856  -0.502  0.00  0.00     0.104 A 
HETATM   37  C   UNK N   1       9.723  -4.206  -0.073  0.00  0.00     0.132 A 
HETATM   38  C   UNK N   1       8.502  -4.856   0.162  0.00  0.00     0.104 A 
HETATM   39  C   UNK N   1       7.301  -4.148   0.009  0.00  0.00     0.047 A 
BRANCH  36  40
HETATM   40  O   UNK N   1      10.866  -2.140  -0.719  0.00  0.00    -0.353 OA
HETATM   41  C   UNK N   1      12.134  -2.536  -0.360  0.00  0.00     0.210 C 
ENDBRANCH  36  40
BRANCH  37  42
HETATM   42  O   UNK N   1      10.871  -4.883   0.111  0.00  0.00    -0.356 OA
HETATM   43  H   UNK N   1      10.862  -5.811   0.239  0.00  0.00     0.218 HD
ENDBRANCH  37  42
BRANCH  38  44
HETATM   44  O   UNK N   1       8.501  -6.154   0.550  0.00  0.00    -0.353 OA
HETATM   45  C   UNK N   1       7.347  -6.874   0.771  0.00  0.00     0.210 C 
ENDBRANCH  38  44
ENDBRANCH   8  34
TORSDOF 8
