REMARK  0 active torsions:
REMARK  status: ('A' for Active; 'I' for Inactive)
REMARK       I    between atoms: N_3  and  C_15 
REMARK       I    between atoms: N_4  and  C_15 
ROOT
HETATM    1  O   UNK N   1       3.200   3.479  -0.245  0.00  0.00    -0.292 OA
HETATM    2  O   UNK N   1       3.010  -2.868   0.304  0.00  0.00    -0.247 OA
HETATM    3  N   UNK N   1       3.969  -0.787   0.119  0.00  0.00    -0.263 N 
HETATM    4  N   UNK N   1       5.198  -2.845   0.370  0.00  0.00    -0.351 N 
HETATM    5  C   UNK N   1       5.494   1.257   0.399  0.00  0.00    -0.024 A 
HETATM    6  C   UNK N   1       5.250  -0.073  -0.028  0.00  0.00     0.051 A 
HETATM    7  C   UNK N   1       4.494   2.071   1.065  0.00  0.00     0.125 C 
HETATM    8  C   UNK N   1       2.635  -0.123   0.032  0.00  0.00     0.058 A 
HETATM    9  C   UNK N   1       2.392   1.297  -0.063  0.00  0.00     0.037 A 
HETATM   10  C   UNK N   1       3.395   2.334   0.140  0.00  0.00     0.166 C 
HETATM   11  C   UNK N   1       6.758   1.845   0.255  0.00  0.00     0.010 A 
HETATM   12  C   UNK N   1       6.355  -0.743  -0.615  0.00  0.00     0.031 A 
HETATM   13  C   UNK N   1       1.475  -0.934  -0.048  0.00  0.00     0.031 A 
HETATM   14  C   UNK N   1       1.083   1.776  -0.267  0.00  0.00     0.017 A 
HETATM   15  C   UNK N   1       4.020  -2.189   0.250  0.00  0.00     0.325 C 
HETATM   16  C   UNK N   1       7.813   1.147  -0.318  0.00  0.00     0.001 A 
HETATM   17  C   UNK N   1       7.610  -0.152  -0.755  0.00  0.00     0.002 A 
HETATM   18  C   UNK N   1       0.188  -0.436  -0.212  0.00  0.00     0.002 A 
HETATM   19  C   UNK N   1      -0.007   0.924  -0.342  0.00  0.00     0.001 A 
HETATM   20  H   UNK N   1       5.213  -3.825   0.456  0.00  0.00     0.160 HD
HETATM   21  H   UNK N   1       6.042  -2.339   0.370  0.00  0.00     0.160 HD
ENDROOT
TORSDOF 0
