REMARK  5 active torsions:
REMARK  status: ('A' for Active; 'I' for Inactive)
REMARK    1  A    between atoms: N_3  and  C_6 
REMARK    2  A    between atoms: N_4  and  C_5 
REMARK    3  A    between atoms: C_5  and  C_6 
REMARK    4  A    between atoms: C_16  and  C_22 
REMARK    5  A    between atoms: C_22  and  C_23 
ROOT
HETATM    1  S   UNK N   1       3.518  -3.489   0.037  0.00  0.00    -0.086 SA
HETATM    2  N   UNK N   1       3.258  -0.345  -0.551  0.00  0.00    -0.343 N 
HETATM    3  C   UNK N   1       4.570  -0.885  -0.302  0.00  0.00     0.053 A 
HETATM    4  C   UNK N   1       2.056  -1.090  -0.266  0.00  0.00     0.052 A 
HETATM    5  C   UNK N   1       4.791  -2.253  -0.007  0.00  0.00     0.032 A 
HETATM    6  C   UNK N   1       2.067  -2.467   0.070  0.00  0.00     0.032 A 
HETATM    7  C   UNK N   1       5.695  -0.034  -0.339  0.00  0.00     0.046 A 
HETATM    8  C   UNK N   1       0.808  -0.446  -0.314  0.00  0.00     0.031 A 
HETATM    9  C   UNK N   1       6.994  -0.512  -0.098  0.00  0.00     0.012 A 
HETATM   10  C   UNK N   1       6.088  -2.725   0.204  0.00  0.00     0.022 A 
HETATM   11  C   UNK N   1       0.868  -3.126   0.368  0.00  0.00     0.021 A 
HETATM   12  C   UNK N   1       7.178  -1.869   0.160  0.00  0.00     0.016 A 
HETATM   13  C   UNK N   1      -0.378  -1.108  -0.003  0.00  0.00     0.002 A 
HETATM   14  C   UNK N   1      -0.347  -2.451   0.349  0.00  0.00     0.002 A 
ENDROOT
BRANCH   2  15
HETATM   15  C   UNK N   1       3.166   0.931  -1.281  0.00  0.00     0.164 C 
BRANCH  15  16
HETATM   16  C   UNK N   1       2.790   2.231  -0.515  0.00  0.00     0.236 C 
HETATM   17  C   UNK N   1       1.352   2.291  -0.013  0.00  0.00     0.044 C 
BRANCH  16  18
HETATM   18  N   UNK N   1       3.777   2.673   0.480  0.00  0.00     0.085 N 
HETATM   19  C   UNK N   1       3.368   3.962   1.027  0.00  0.00     0.310 C 
HETATM   20  C   UNK N   1       5.023   2.957  -0.213  0.00  0.00     0.310 C 
ENDBRANCH  16  18
ENDBRANCH  15  16
ENDBRANCH   2  15
BRANCH   9  21
HETATM   21  C   UNK N   1       8.159   0.407  -0.106  0.00  0.00     0.159 C 
HETATM   22  O   UNK N   1       7.984   1.608  -0.246  0.00  0.00    -0.292 OA
BRANCH  21  23
HETATM   23  C   UNK N   1       9.566  -0.105   0.024  0.00  0.00     0.079 C 
HETATM   24  C   UNK N   1       9.807  -0.769   1.368  0.00  0.00     0.013 C 
ENDBRANCH  21  23
ENDBRANCH   9  21
TORSDOF 5
