REMARK  3 active torsions:
REMARK  status: ('A' for Active; 'I' for Inactive)
REMARK    1  A    between atoms: O_2  and  C_17 
REMARK    2  A    between atoms: N_4  and  C_9 
REMARK    3  A    between atoms: C_11  and  C_17 
ROOT
HETATM    1  O   UNK N   1       4.400   2.711   0.100  0.00  0.00    -0.286 OA
HETATM    2  N   UNK N   1       3.996  -1.281  -0.095  0.00  0.00    -0.342 N 
HETATM    3  N   UNK N   1       6.355  -1.523  -0.165  0.00  0.00    -0.345 N 
ATOM      4  HN  UNK N   1       6.236  -2.535  -0.211  1.00  0.00     0.167 HD
HETATM    5  C   UNK N   1       5.247  -0.726  -0.106  0.00  0.00     0.122 A 
HETATM    6  C   UNK N   1       5.404   0.677  -0.048  0.00  0.00     0.059 A 
HETATM    7  C   UNK N   1       2.890  -0.484   0.010  0.00  0.00     0.115 A 
HETATM    8  C   UNK N   1       2.992   0.909   0.091  0.00  0.00     0.104 A 
HETATM    9  C   UNK N   1       4.271   1.498   0.043  0.00  0.00     0.204 A 
HETATM   10  C   UNK N   1       6.695   1.219  -0.065  0.00  0.00     0.021 A 
HETATM   11  C   UNK N   1       7.613  -1.005  -0.163  0.00  0.00     0.007 A 
HETATM   12  C   UNK N   1       7.804   0.376  -0.119  0.00  0.00     0.025 A 
HETATM   13  C   UNK N   1       8.788  -1.915  -0.191  0.00  0.00     0.068 C 
ENDROOT
BRANCH   8  14
HETATM   14  C   UNK N   1       1.747   1.705   0.249  0.00  0.00     0.181 C 
HETATM   15  O   UNK N   1       1.785   2.924   0.312  0.00  0.00    -0.646 OA
BRANCH  14  16
HETATM   16  O   UNK N   1       0.559   1.078   0.358  0.00  0.00    -0.772 OA
HETATM   17  H   UNK N   1      -0.231   1.575   0.434  0.00  0.00     0.167 HD
ENDBRANCH  14  16
ENDBRANCH   8  14
BRANCH   2  18
HETATM   18  C   UNK N   1       3.858  -2.743  -0.184  0.00  0.00     0.125 C 
HETATM   19  C   UNK N   1       2.414  -3.231  -0.259  0.00  0.00     0.027 C 
ENDBRANCH   2  18
TORSDOF 3
