REMARK  4 active torsions:
REMARK  status: ('A' for Active; 'I' for Inactive)
REMARK    1  A    between atoms: N_1  and  N_2 
REMARK    2  A    between atoms: N_1  and  C_5 
REMARK    3  A    between atoms: C_3  and  C_4 
REMARK    4  A    between atoms: C_3  and  C_5 
ROOT
HETATM    1  C   UNK N   1       2.052   0.762  -0.000  0.00  0.00     0.060 C 
ENDROOT
BRANCH   1   2
HETATM    2  C   UNK N   1       2.071  -0.738   0.000  0.00  0.00    -0.057 A 
HETATM    3  C   UNK N   1       3.277  -1.463  -0.000  0.00  0.00     0.007 A 
HETATM    4  C   UNK N   1       3.263  -2.858  -0.000  0.00  0.00     0.001 A 
HETATM    5  C   UNK N   1       2.046  -3.543   0.000  0.00  0.00     0.000 A 
HETATM    6  C   UNK N   1       0.843  -2.831   0.000  0.00  0.00     0.001 A 
HETATM    7  C   UNK N   1       0.856  -1.433   0.000  0.00  0.00     0.007 A 
ENDBRANCH   1   2
BRANCH   1   8
HETATM    8  C   UNK N   1       3.447   1.369  -0.000  0.00  0.00     0.143 C 
BRANCH   8   9
HETATM    9  N   UNK N   1       3.365   2.816   0.000  0.00  0.00    -0.343 N 
HETATM   10  H   UNK N   1       2.516   3.381   0.000  0.00  0.00     0.179 HD
BRANCH   9  11
HETATM   11  N   UNK N   1       4.684   3.282   0.000  0.00  0.00    -0.349 N 
HETATM   12  H   UNK N   1       5.459   2.619   0.000  0.00  0.00     0.176 HD
HETATM   13  H   UNK N   1       4.870   4.285   0.000  0.00  0.00     0.176 HD
ENDBRANCH   9  11
ENDBRANCH   8   9
ENDBRANCH   1   8
TORSDOF 4
