REMARK  10 active torsions:
REMARK  status: ('A' for Active; 'I' for Inactive)
REMARK    1  A    between atoms: C_18  and  O_1 
REMARK    2  A    between atoms: O_5  and  N_8 
REMARK    3  A    between atoms: C_10  and  N_6 
REMARK       I    between atoms: N_6  and  C_14 
REMARK       I    between atoms: N_7  and  C_19 
REMARK       I    between atoms: N_8  and  C_22 
REMARK    4  A    between atoms: C_9  and  C_10 
REMARK    5  A    between atoms: C_10  and  C_19 
REMARK    6  A    between atoms: C_11  and  C_12 
REMARK    7  A    between atoms: C_11  and  C_14 
REMARK    8  A    between atoms: C_11  and  C_18 
REMARK    9  A    between atoms: C_12  and  C_13 
REMARK   10  A    between atoms: C_18  and  C_22 
ROOT
HETATM    1  C   UNK N   1       6.124   0.626   0.136  0.00  0.00     0.116 C 
ENDROOT
BRANCH   1   2
HETATM    2  C   UNK N   1       6.187   2.014   0.771  0.00  0.00     0.021 C 
BRANCH   2   3
HETATM    3  C   UNK N   1       6.055   3.107  -0.279  0.00  0.00    -0.022 C 
HETATM    4  C   UNK N   1       5.922   4.448   0.410  0.00  0.00     0.009 C 
HETATM    5  C   UNK N   1       7.286   3.132  -1.168  0.00  0.00     0.009 C 
ENDBRANCH   2   3
ENDBRANCH   1   2
BRANCH   1   6
HETATM    6  C   UNK N   1       4.700   0.265  -0.192  0.00  0.00     0.225 C 
HETATM    7  O   UNK N   1       4.399   0.062  -1.357  0.00  0.00    -0.273 OA
HETATM    8  N   UNK N   1       3.775   0.148   0.803  0.00  0.00    -0.347 N 
HETATM    9  H   UNK N   1       4.083   0.313   1.723  0.00  0.00     0.163 HD
BRANCH   8  10
HETATM   10  C   UNK N   1       2.366  -0.201   0.624  0.00  0.00     0.183 C 
BRANCH  10  11
HETATM   11  C   UNK N   1       1.510   0.957   0.034  0.00  0.00    -0.022 C 
HETATM   12  C   UNK N   1       1.926   1.349  -1.371  0.00  0.00     0.017 C 
HETATM   13  C   UNK N   1       0.036   0.591  -0.007  0.00  0.00     0.017 C 
HETATM   14  C   UNK N   1       1.637   2.175   0.930  0.00  0.00     0.017 C 
ENDBRANCH  10  11
BRANCH  10  15
HETATM   15  C   UNK N   1       2.161  -1.581   0.020  0.00  0.00     0.240 C 
HETATM   16  O   UNK N   1       3.100  -2.190  -0.473  0.00  0.00    -0.271 OA
HETATM   17  N   UNK N   1       0.940  -2.164   0.087  0.00  0.00    -0.364 N 
HETATM   18  C   UNK N   1       0.697  -3.491  -0.422  0.00  0.00     0.149 C 
HETATM   19  H   UNK N   1       0.195  -1.667   0.497  0.00  0.00     0.161 HD
ENDBRANCH  10  15
ENDBRANCH   8  10
ENDBRANCH   1   6
BRANCH   1  20
HETATM   20  C   UNK N   1       6.823  -0.414   1.028  0.00  0.00     0.225 C 
BRANCH  20  21
HETATM   21  O   UNK N   1       8.120   0.025   1.314  0.00  0.00    -0.385 OA
HETATM   22  H   UNK N   1       8.834  -0.602   1.513  0.00  0.00     0.210 HD
ENDBRANCH  20  21
BRANCH  20  23
HETATM   23  C   UNK N   1       6.880  -1.771   0.368  0.00  0.00     0.270 C 
HETATM   24  O   UNK N   1       5.845  -2.387   0.156  0.00  0.00    -0.268 OA
HETATM   25  N   UNK N   1       8.068  -2.315   0.019  0.00  0.00    -0.235 N 
HETATM   26  H   UNK N   1       8.900  -1.823   0.202  0.00  0.00     0.197 HD
BRANCH  25  27
HETATM   27  O   UNK N   1       8.127  -3.515  -0.574  0.00  0.00    -0.287 OA
HETATM   28  H   UNK N   1       7.396  -3.987  -1.003  0.00  0.00     0.244 HD
ENDBRANCH  25  27
ENDBRANCH  20  23
ENDBRANCH   1  20
TORSDOF 10
