REMARK  5 active torsions:
REMARK  status: ('A' for Active; 'I' for Inactive)
REMARK    1  A    between atoms: O_1  and  C_12 
REMARK    2  A    between atoms: O_1  and  C_17 
REMARK    3  A    between atoms: O_3  and  C_18 
REMARK    4  A    between atoms: N_4  and  C_12 
REMARK       I    between atoms: N_10  and  C_16 
REMARK    5  A    between atoms: C_17  and  C_18 
ROOT
HETATM    1  O   UNK N   1       2.711  -3.872  -0.000  0.00  0.00    -0.265 OA
HETATM    2  N   UNK N   1       5.280  -0.229   0.000  0.00  0.00    -0.305 N 
HETATM    3  N   UNK N   1       2.894   0.115   0.000  0.00  0.00    -0.174 N 
HETATM    4  N   UNK N   1       5.241  -2.475   0.000  0.00  0.00    -0.345 N 
ATOM      5  HN  UNK N   1       5.536  -3.452  -0.000  1.00  0.00     0.167 HD
HETATM    6  N   UNK N   1       1.620  -1.895  -0.000  0.00  0.00    -0.154 N 
ATOM      7  HN  UNK N   1       0.710  -2.357  -0.000  1.00  0.00     0.187 HD
HETATM    8  N   UNK N   1       0.496   0.236   0.000  0.00  0.00    -0.234 N 
HETATM    9  C   UNK N   1       4.013  -0.645   0.000  0.00  0.00     0.158 A 
HETATM   10  C   UNK N   1       3.985  -1.991   0.000  0.00  0.00     0.147 A 
HETATM   11  C   UNK N   1       6.030  -1.362   0.000  0.00  0.00     0.187 A 
HETATM   12  C   UNK N   1       2.769  -2.655  -0.000  0.00  0.00     0.290 A 
HETATM   13  C   UNK N   1       1.683  -0.521   0.000  0.00  0.00     0.680 A 
HETATM   14  H   UNK N   1       2.949   1.098   0.000  0.00  0.00     0.186 HD
HETATM   15  H   UNK N   1       0.539   1.220  -0.000  0.00  0.00     0.174 HD
HETATM   16  H   UNK N   1      -0.378  -0.218   0.000  0.00  0.00     0.174 HD
ENDROOT
BRANCH   2  17
HETATM   17  C   UNK N   1       5.723   1.158   0.000  0.00  0.00     0.301 C 
BRANCH  17  18
HETATM   18  O   UNK N   1       7.115   1.238  -0.000  0.00  0.00    -0.369 OA
BRANCH  18  19
HETATM   19  C   UNK N   1       7.369   2.608  -0.000  0.00  0.00     0.196 C 
BRANCH  19  20
HETATM   20  C   UNK N   1       8.862   2.846   0.000  0.00  0.00     0.190 C 
BRANCH  20  21
HETATM   21  O   UNK N   1       9.108   4.217   0.000  0.00  0.00    -0.399 OA
HETATM   22  H   UNK N   1      10.021   4.546   0.000  0.00  0.00     0.209 HD
ENDBRANCH  20  21
ENDBRANCH  19  20
ENDBRANCH  18  19
ENDBRANCH  17  18
ENDBRANCH   2  17
TORSDOF 5
