REMARK  3 active torsions:
REMARK  status: ('A' for Active; 'I' for Inactive)
REMARK    1  A    between atoms: O_5  and  C_6 
REMARK    2  A    between atoms: O_5  and  C_12 
REMARK    3  A    between atoms: C_12  and  C_13 
ROOT
HETATM    1 Cl   UNK N   1       0.654   0.122   0.003  0.00  0.00    -0.081 Cl
HETATM    2 Cl   UNK N   1       5.539  -3.877  -0.001  0.00  0.00    -0.082 Cl
HETATM    3 Cl   UNK N   1       2.502  -4.992  -0.002  0.00  0.00    -0.082 Cl
HETATM    4  C   UNK N   1       3.338  -0.514   0.001  0.00  0.00     0.093 A 
HETATM    5  C   UNK N   1       2.015  -0.989   0.002  0.00  0.00     0.069 A 
HETATM    6  C   UNK N   1       4.400  -1.426   0.001  0.00  0.00     0.064 A 
HETATM    7  C   UNK N   1       4.161  -2.794  -0.000  0.00  0.00     0.058 A 
HETATM    8  C   UNK N   1       1.773  -2.366   0.001  0.00  0.00     0.052 A 
HETATM    9  C   UNK N   1       2.840  -3.271  -0.000  0.00  0.00     0.057 A 
ENDROOT
BRANCH   4  10
HETATM   10  O   UNK N   1       3.577   0.812   0.002  0.00  0.00    -0.338 OA
BRANCH  10  11
HETATM   11  C   UNK N   1       4.844   1.353  -0.001  0.00  0.00     0.270 C 
BRANCH  11  12
HETATM   12  C   UNK N   1       4.674   2.791  -0.002  0.00  0.00    -0.069 C 
HETATM   13  C   UNK N   1       4.342   3.943  -0.002  0.00  0.00    -0.028 C 
HETATM   14  I   UNK N   1       3.433   5.802  -0.001  0.00  0.00     0.018 I 
ENDBRANCH  11  12
ENDBRANCH  10  11
ENDBRANCH   4  10
TORSDOF 3
