REMARK  8 active torsions:
REMARK  status: ('A' for Active; 'I' for Inactive)
REMARK    1  A    between atoms: O_1  and  C_17 
REMARK    2  A    between atoms: O_1  and  C_30 
REMARK    3  A    between atoms: O_2  and  C_29 
REMARK    4  A    between atoms: N_4  and  C_13 
REMARK    5  A    between atoms: C_13  and  C_15 
REMARK    6  A    between atoms: C_18  and  C_29 
REMARK    7  A    between atoms: C_21  and  C_26 
REMARK    8  A    between atoms: C_28  and  C_34 
ROOT
HETATM    1  C   UNK N   1       5.091  -0.514  -0.265  0.00  0.00    -0.040 A 
HETATM    2  C   UNK N   1       5.527   0.319  -1.294  0.00  0.00     0.010 A 
HETATM    3  C   UNK N   1       6.004  -1.100   0.611  0.00  0.00     0.010 A 
HETATM    4  C   UNK N   1       7.801   0.016  -0.516  0.00  0.00    -0.025 A 
HETATM    5  C   UNK N   1       6.883   0.605  -1.407  0.00  0.00     0.013 A 
HETATM    6  C   UNK N   1       7.358  -0.856   0.471  0.00  0.00     0.013 A 
ENDROOT
BRANCH   1   7
HETATM    7  C   UNK N   1       3.647  -0.623  -0.003  0.00  0.00     0.171 C 
BRANCH   7   8
HETATM    8  N   UNK N   1       3.077  -1.963   0.048  0.00  0.00    -0.306 N 
HETATM    9  C   UNK N   1       1.771  -2.238   0.249  0.00  0.00     0.082 A 
HETATM   10  C   UNK N   1       1.607  -3.598   0.140  0.00  0.00     0.063 A 
HETATM   11  C   UNK N   1       0.656  -1.383   0.500  0.00  0.00     0.067 A 
HETATM   12  N   UNK N   1       2.788  -4.199  -0.088  0.00  0.00    -0.320 N 
HETATM   13  C   UNK N   1       0.369  -4.214   0.228  0.00  0.00     0.032 A 
HETATM   14  C   UNK N   1       3.671  -3.176  -0.147  0.00  0.00     0.227 A 
ATOM     15  HN  UNK N   1       2.974  -5.196  -0.193  1.00  0.00     0.169 HD
HETATM   16  C   UNK N   1      -0.753  -3.399   0.424  0.00  0.00     0.003 A 
HETATM   17  C   UNK N   1      -0.609  -2.005   0.562  0.00  0.00     0.021 A 
BRANCH  14  18
HETATM   18  O   UNK N   1       4.988  -3.345  -0.405  0.00  0.00    -0.322 OA
BRANCH  18  19
HETATM   19  C   UNK N   1       5.588  -4.580  -0.468  0.00  0.00     0.174 C 
HETATM   20  C   UNK N   1       6.860  -4.563   0.359  0.00  0.00     0.034 C 
ENDBRANCH  18  19
ENDBRANCH  14  18
BRANCH  11  21
HETATM   21  C   UNK N   1       0.690   0.092   0.740  0.00  0.00     0.178 C 
HETATM   22  O   UNK N   1       1.712   0.667   1.067  0.00  0.00    -0.646 OA
BRANCH  21  23
HETATM   23  O   UNK N   1      -0.458   0.796   0.704  0.00  0.00    -0.773 OA
HETATM   24  H   UNK N   1      -0.433   1.732   0.679  0.00  0.00     0.167 HD
ENDBRANCH  21  23
ENDBRANCH  11  21
ENDBRANCH   7   8
ENDBRANCH   1   7
BRANCH   4  25
HETATM   25  C   UNK N   1       9.118   0.610  -0.319  0.00  0.00    -0.012 A 
HETATM   26  C   UNK N   1       9.220   1.994  -0.034  0.00  0.00     0.021 A 
HETATM   27  C   UNK N   1      10.483   2.557   0.172  0.00  0.00     0.016 A 
HETATM   28  C   UNK N   1      11.625   1.748   0.141  0.00  0.00     0.001 A 
HETATM   29  C   UNK N   1      11.513   0.375  -0.101  0.00  0.00     0.001 A 
HETATM   30  C   UNK N   1      10.261  -0.194  -0.331  0.00  0.00     0.013 A 
BRANCH  26  31
HETATM   31  C   UNK N   1       8.002   2.821   0.164  0.00  0.00     0.145 A 
HETATM   32  N   UNK N   1       6.882   2.390   0.781  0.00  0.00    -0.271 N 
HETATM   33  N   UNK N   1       6.022   3.386   0.706  0.00  0.00    -0.225 N 
ATOM     34  HN  UNK N   1       6.731   1.479   1.216  1.00  0.00     0.190 HD
HETATM   35  N   UNK N   1       6.586   4.400   0.063  0.00  0.00    -0.005 NA
HETATM   36  H   UNK N   1       5.107   3.378   1.069  0.00  0.00     0.205 HD
HETATM   37  N   UNK N   1       7.825   4.078  -0.272  0.00  0.00    -0.266 N 
ATOM     38  HN  UNK N   1       8.504   4.663  -0.760  1.00  0.00     0.186 HD
ENDBRANCH  26  31
ENDBRANCH   4  25
TORSDOF 8
