REMARK  5 active torsions:
REMARK  status: ('A' for Active; 'I' for Inactive)
REMARK    1  A    between atoms: O_2  and  C_24 
REMARK    2  A    between atoms: O_2  and  C_25 
REMARK    3  A    between atoms: C_15  and  C_17 
REMARK    4  A    between atoms: C_18  and  C_19 
REMARK    5  A    between atoms: C_21  and  C_24 
ROOT
HETATM    1  C   UNK N   1       5.398   1.242  -0.082  0.00  0.00    -0.060 C 
HETATM    2  C   UNK N   1       6.225   0.399  -0.035  0.00  0.00    -0.043 C 
ENDROOT
BRANCH   1   3
HETATM    3  C   UNK N   1       4.206   1.947  -0.128  0.00  0.00     0.018 A 
HETATM    4  C   UNK N   1       3.123   1.133  -0.088  0.00  0.00     0.029 A 
HETATM    5  C   UNK N   1       1.852   1.619   0.029  0.00  0.00    -0.032 A 
HETATM    6  C   UNK N   1       0.771   0.571   0.106  0.00  0.00    -0.018 C 
HETATM    7  C   UNK N   1       1.662   3.025   0.077  0.00  0.00     0.007 A 
HETATM    8  C   UNK N   1      -0.585   1.139   0.481  0.00  0.00     0.024 C 
HETATM    9  C   UNK N   1       0.695  -0.136  -1.243  0.00  0.00     0.020 C 
HETATM   10  C   UNK N   1       1.135  -0.470   1.162  0.00  0.00     0.020 C 
HETATM   11  C   UNK N   1      -0.909   2.342  -0.374  0.00  0.00     0.080 C 
HETATM   12  S   UNK N   1       0.031   3.765   0.254  0.00  0.00    -0.129 SA
HETATM   13  C   UNK N   1       2.785   3.878  -0.007  0.00  0.00     0.020 A 
HETATM   14  C   UNK N   1       4.076   3.336  -0.099  0.00  0.00     0.022 A 
ENDBRANCH   1   3
BRANCH   2  15
HETATM   15  C   UNK N   1       7.259  -0.531   0.018  0.00  0.00     0.086 A 
HETATM   16  N   UNK N   1       7.064  -1.886   0.098  0.00  0.00    -0.358 N 
HETATM   17  C   UNK N   1       8.140  -2.735   0.098  0.00  0.00     0.106 A 
ATOM     18  HN  UNK N   1       6.118  -2.262   0.158  1.00  0.00     0.166 HD
HETATM   19  C   UNK N   1       9.434  -2.184  -0.008  0.00  0.00     0.054 A 
HETATM   20  C   UNK N   1       9.581  -0.809  -0.060  0.00  0.00     0.022 A 
HETATM   21  C   UNK N   1       8.508   0.012  -0.040  0.00  0.00     0.040 A 
BRANCH  19  22
HETATM   22  C   UNK N   1      10.695  -2.909  -0.092  0.00  0.00     0.294 C 
HETATM   23  O   UNK N   1      10.778  -4.109   0.116  0.00  0.00    -0.259 OA
BRANCH  22  24
HETATM   24  O   UNK N   1      11.777  -2.172  -0.448  0.00  0.00    -0.318 OA
BRANCH  24  25
HETATM   25  C   UNK N   1      13.017  -2.261   0.113  0.00  0.00     0.174 C 
HETATM   26  C   UNK N   1      13.601  -0.856   0.150  0.00  0.00     0.034 C 
ENDBRANCH  24  25
ENDBRANCH  22  24
ENDBRANCH  19  22
ENDBRANCH   2  15
TORSDOF 5
