REMARK  4 active torsions:
REMARK  status: ('A' for Active; 'I' for Inactive)
REMARK    1  A    between atoms: O_2  and  C_15 
REMARK    2  A    between atoms: O_3  and  C_18 
REMARK    3  A    between atoms: O_4  and  C_21 
REMARK    4  A    between atoms: C_6  and  C_12 
ROOT
HETATM    1 Cl   UNK N   1      -0.405   1.083   0.318  0.00  0.00    -0.081 Cl
HETATM    2  N   UNK N   1       4.465   3.130  -0.315  0.00  0.00    -0.420 N 
HETATM    3  C   UNK N   1       4.932   0.793   0.269  0.00  0.00     0.069 C 
HETATM    4  C   UNK N   1       3.561   0.102   0.173  0.00  0.00    -0.037 A 
HETATM    5  C   UNK N   1       5.026   1.880  -0.804  0.00  0.00     0.128 C 
HETATM    6  C   UNK N   1       2.352   0.842   0.308  0.00  0.00    -0.025 A 
HETATM    7  C   UNK N   1       2.364   2.318   0.592  0.00  0.00     0.060 C 
HETATM    8  C   UNK N   1       3.028   3.098  -0.529  0.00  0.00     0.118 C 
HETATM    9  C   UNK N   1       3.468  -1.275  -0.069  0.00  0.00     0.048 A 
HETATM   10  C   UNK N   1       1.108   0.185   0.179  0.00  0.00     0.076 A 
HETATM   11  C   UNK N   1       2.244  -1.921  -0.183  0.00  0.00     0.101 A 
HETATM   12  C   UNK N   1       1.060  -1.195  -0.067  0.00  0.00     0.121 A 
HETATM   13  H   UNK N   1       4.990   3.897   0.106  0.00  0.00     0.153 HD
ENDROOT
BRANCH   3  14
HETATM   14  C   UNK N   1       6.212  -0.046   0.206  0.00  0.00    -0.048 A 
HETATM   15  C   UNK N   1       7.454   0.609   0.302  0.00  0.00     0.011 A 
HETATM   16  C   UNK N   1       8.650  -0.112   0.216  0.00  0.00     0.037 A 
HETATM   17  C   UNK N   1       8.622  -1.498   0.043  0.00  0.00     0.065 A 
HETATM   18  C   UNK N   1       7.400  -2.163  -0.036  0.00  0.00     0.037 A 
HETATM   19  C   UNK N   1       6.209  -1.441   0.043  0.00  0.00     0.011 A 
BRANCH  17  20
HETATM   20  O   UNK N   1       9.769  -2.190  -0.047  0.00  0.00    -0.361 OA
HETATM   21  H   UNK N   1       9.751  -3.125  -0.110  0.00  0.00     0.217 HD
ENDBRANCH  17  20
ENDBRANCH   3  14
BRANCH  11  22
HETATM   22  O   UNK N   1       2.212  -3.245  -0.410  0.00  0.00    -0.358 OA
HETATM   23  H   UNK N   1       1.401  -3.687  -0.568  0.00  0.00     0.217 HD
ENDBRANCH  11  22
BRANCH  12  24
HETATM   24  O   UNK N   1      -0.123  -1.822  -0.189  0.00  0.00    -0.356 OA
HETATM   25  H   UNK N   1      -0.914  -1.327  -0.275  0.00  0.00     0.218 HD
ENDBRANCH  12  24
TORSDOF 4
