REMARK  11 active torsions:
REMARK  status: ('A' for Active; 'I' for Inactive)
REMARK    1  A    between atoms: O_1  and  C_9 
REMARK    2  A    between atoms: O_1  and  C_13 
REMARK    3  A    between atoms: O_2  and  C_14 
REMARK    4  A    between atoms: O_2  and  C_18 
REMARK    5  A    between atoms: N_4  and  C_6 
REMARK    6  A    between atoms: N_4  and  C_7 
REMARK    7  A    between atoms: N_4  and  C_8 
REMARK    8  A    between atoms: N_5  and  C_15 
REMARK    9  A    between atoms: C_6  and  C_9 
REMARK   10  A    between atoms: C_12  and  C_13 
REMARK   11  A    between atoms: C_18  and  C_20 
ROOT
HETATM    1  C   UNK N   1       6.395   1.284   0.282  0.00  0.00     0.041 A 
HETATM    2  C   UNK N   1       3.882   2.499  -0.130  0.00  0.00     0.095 A 
HETATM    3  C   UNK N   1       5.056   3.265  -0.192  0.00  0.00     0.060 A 
HETATM    4  C   UNK N   1       6.299   2.656   0.005  0.00  0.00     0.049 A 
HETATM    5  C   UNK N   1       5.217   0.528   0.361  0.00  0.00     0.020 A 
HETATM    6  C   UNK N   1       3.974   1.126   0.152  0.00  0.00     0.040 A 
ENDROOT
BRANCH   1   7
HETATM    7  C   UNK N   1       7.745   0.675   0.475  0.00  0.00     0.293 C 
HETATM    8  O   UNK N   1       8.728   1.389   0.336  0.00  0.00    -0.259 OA
BRANCH   7   9
HETATM    9  O   UNK N   1       7.953  -0.632   0.789  0.00  0.00    -0.316 OA
BRANCH   9  10
HETATM   10  C   UNK N   1       6.988  -1.599   0.957  0.00  0.00     0.209 C 
BRANCH  10  11
HETATM   11  C   UNK N   1       7.118  -2.659  -0.132  0.00  0.00     0.299 C 
BRANCH  11  12
HETATM   12  N   UNK N   1       8.447  -3.258  -0.127  0.00  0.00     0.089 N 
BRANCH  12  13
HETATM   13  C   UNK N   1       8.316  -4.569  -0.743  0.00  0.00     0.268 C 
HETATM   14  C   UNK N   1       9.461  -5.468  -0.313  0.00  0.00     0.037 C 
ENDBRANCH  12  13
BRANCH  12  15
HETATM   15  C   UNK N   1       9.296  -2.454  -0.998  0.00  0.00     0.268 C 
HETATM   16  C   UNK N   1      10.604  -2.142  -0.295  0.00  0.00     0.037 C 
ENDBRANCH  12  15
ENDBRANCH  11  12
ENDBRANCH  10  11
ENDBRANCH   9  10
ENDBRANCH   7   9
ENDBRANCH   1   7
BRANCH   3  17
HETATM   17  N   UNK N   1       4.996   4.643  -0.479  0.00  0.00    -0.397 N 
HETATM   18  H   UNK N   1       5.809   5.162  -0.680  0.00  0.00     0.156 HD
HETATM   19  H   UNK N   1       4.122   5.098  -0.479  0.00  0.00     0.156 HD
ENDBRANCH   3  17
BRANCH   2  20
HETATM   20  O   UNK N   1       2.683   3.089  -0.356  0.00  0.00    -0.349 OA
BRANCH  20  21
HETATM   21  C   UNK N   1       1.536   2.364  -0.594  0.00  0.00     0.175 C 
BRANCH  21  22
HETATM   22  C   UNK N   1       0.524   2.580   0.508  0.00  0.00     0.022 C 
HETATM   23  C   UNK N   1      -0.715   1.769   0.191  0.00  0.00     0.007 C 
ENDBRANCH  21  22
ENDBRANCH  20  21
ENDBRANCH   2  20
TORSDOF 11
