REMARK  4 active torsions:
REMARK  status: ('A' for Active; 'I' for Inactive)
REMARK    1  A    between atoms: S_2  and  N_8 
REMARK    2  A    between atoms: S_2  and  C_21 
REMARK    3  A    between atoms: N_6  and  N_7 
REMARK       I    between atoms: N_7  and  C_18 
REMARK    4  A    between atoms: C_18  and  C_19 
ROOT
HETATM    1  O   UNK N   1       3.034  -0.194  -1.280  0.00  0.00    -0.266 OA
HETATM    2  N   UNK N   1       4.442  -1.284   0.089  0.00  0.00    -0.263 N 
HETATM    3  C   UNK N   1       4.012  -0.160  -0.551  0.00  0.00     0.270 C 
HETATM    4  H   UNK N   1       5.311  -1.246   0.550  0.00  0.00     0.190 HD
ENDROOT
BRANCH   3   5
HETATM    5  C   UNK N   1       4.713   1.128  -0.381  0.00  0.00     0.035 A 
HETATM    6  C   UNK N   1       6.032   1.205   0.094  0.00  0.00     0.044 A 
HETATM    7  C   UNK N   1       6.659   2.456   0.234  0.00  0.00     0.102 A 
HETATM    8  C   UNK N   1       5.942   3.633  -0.059  0.00  0.00     0.057 A 
HETATM    9 Cl   UNK N   1       6.660   5.227   0.118  0.00  0.00    -0.083 Cl
HETATM   10  C   UNK N   1       4.631   3.549  -0.522  0.00  0.00     0.026 A 
HETATM   11  C   UNK N   1       4.029   2.308  -0.701  0.00  0.00     0.019 A 
BRANCH   7  12
HETATM   12  S   UNK N   1       8.389   2.533   0.709  0.00  0.00     0.258 S 
HETATM   13  O   UNK N   1       8.672   3.470   1.893  0.00  0.00    -0.201 OA
HETATM   14  O   UNK N   1       8.949   1.192   1.204  0.00  0.00    -0.201 OA
BRANCH  12  15
HETATM   15  N   UNK N   1       9.508   3.042  -0.558  0.00  0.00    -0.324 N 
HETATM   16  H   UNK N   1      10.086   2.629  -1.290  0.00  0.00     0.169 HD
HETATM   17  H   UNK N   1       9.606   4.057  -0.558  0.00  0.00     0.169 HD
ENDBRANCH  12  15
ENDBRANCH   7  12
ENDBRANCH   3   5
BRANCH   2  18
HETATM   18  N   UNK N   1       3.737  -2.480   0.134  0.00  0.00    -0.284 N 
HETATM   19  C   UNK N   1       4.387  -3.750   0.390  0.00  0.00     0.109 A 
HETATM   20  C   UNK N   1       3.230  -4.800   0.396  0.00  0.00     0.067 A 
HETATM   21  C   UNK N   1       5.367  -4.083  -0.718  0.00  0.00     0.034 C 
HETATM   22  C   UNK N   1       2.009  -3.954   0.239  0.00  0.00    -0.028 A 
HETATM   23  C   UNK N   1       2.338  -2.642   0.109  0.00  0.00     0.057 A 
HETATM   24  C   UNK N   1       0.678  -4.378   0.240  0.00  0.00     0.009 A 
HETATM   25  C   UNK N   1       1.345  -1.660   0.015  0.00  0.00     0.031 A 
HETATM   26  C   UNK N   1      -0.001  -2.052   0.007  0.00  0.00     0.002 A 
HETATM   27  C   UNK N   1      -0.334  -3.414   0.111  0.00  0.00     0.001 A 
ENDBRANCH   2  18
TORSDOF 4
