REMARK  7 active torsions:
REMARK  status: ('A' for Active; 'I' for Inactive)
REMARK    1  A    between atoms: O_2  and  C_11 
REMARK       I    between atoms: N_3  and  C_7 
REMARK    2  A    between atoms: N_3  and  C_8 
REMARK    3  A    between atoms: N_3  and  C_10 
REMARK    4  A    between atoms: C_6  and  C_7 
REMARK    5  A    between atoms: C_6  and  C_9 
REMARK    6  A    between atoms: C_6  and  C_11 
REMARK    7  A    between atoms: C_8  and  C_12 
ROOT
HETATM    1  O   UNK N   1       4.688  -1.049   0.550  0.00  0.00    -0.273 OA
HETATM    2  N   UNK N   1       3.836   0.891  -0.150  0.00  0.00    -0.348 N 
HETATM    3  C   UNK N   1       3.734  -0.463   0.053  0.00  0.00     0.230 C 
ENDROOT
BRANCH   3   4
HETATM    4  C   UNK N   1       2.480  -1.268  -0.328  0.00  0.00     0.134 C 
BRANCH   4   5
HETATM    5  C   UNK N   1       2.473  -2.758   0.024  0.00  0.00    -0.043 A 
HETATM    6  C   UNK N   1       3.474  -3.348   0.819  0.00  0.00     0.008 A 
HETATM    7  C   UNK N   1       3.416  -4.697   1.169  0.00  0.00     0.001 A 
HETATM    8  C   UNK N   1       2.348  -5.482   0.735  0.00  0.00     0.000 A 
HETATM    9  C   UNK N   1       1.344  -4.916  -0.055  0.00  0.00     0.001 A 
HETATM   10  C   UNK N   1       1.405  -3.562  -0.408  0.00  0.00     0.008 A 
ENDBRANCH   4   5
BRANCH   4  11
HETATM   11  C   UNK N   1       1.231  -0.649   0.289  0.00  0.00     0.182 C 
BRANCH  11  12
HETATM   12  O   UNK N   1       0.258  -0.482  -0.696  0.00  0.00    -0.400 OA
HETATM   13  H   UNK N   1       0.020   0.162  -1.381  0.00  0.00     0.209 HD
ENDBRANCH  11  12
ENDBRANCH   4  11
ENDBRANCH   3   4
BRANCH   2  14
HETATM   14  C   UNK N   1       5.078   1.545   0.259  0.00  0.00     0.164 C 
BRANCH  14  15
HETATM   15  C   UNK N   1       5.217   3.014  -0.001  0.00  0.00    -0.038 A 
HETATM   16  C   UNK N   1       6.221   3.457  -0.864  0.00  0.00     0.025 A 
HETATM   17  C   UNK N   1       6.420   4.827  -1.041  0.00  0.00     0.088 A 
HETATM   18  N   UNK N   1       5.646   5.722  -0.369  0.00  0.00    -0.375 N 
HETATM   19  C   UNK N   1       4.670   5.313   0.488  0.00  0.00     0.088 A 
ATOM     20  HN  UNK N   1       5.800   6.720  -0.509  1.00  0.00     0.164 HD
HETATM   21  C   UNK N   1       4.447   3.950   0.695  0.00  0.00     0.025 A 
ENDBRANCH  14  15
ENDBRANCH   2  14
BRANCH   2  22
HETATM   22  C   UNK N   1       2.757   1.639  -0.773  0.00  0.00     0.121 C 
HETATM   23  C   UNK N   1       1.927   2.364   0.278  0.00  0.00     0.026 C 
ENDBRANCH   2  22
TORSDOF 7
