REMARK  6 active torsions:
REMARK  status: ('A' for Active; 'I' for Inactive)
REMARK    1  A    between atoms: C_13  and  O_2 
REMARK    2  A    between atoms: C_12  and  O_3 
REMARK    3  A    between atoms: O_4  and  C_16 
REMARK    4  A    between atoms: C_15  and  N_6 
REMARK       I    between atoms: N_11  and  C_19 
REMARK    5  A    between atoms: C_14  and  C_16 
REMARK    6  A    between atoms: C_18  and  C_19 
ROOT
HETATM    1  N   UNK N   1       3.258   0.316  -0.276  0.00  0.00    -0.254 N 
HETATM    2  N   UNK N   1       4.359   1.014  -0.066  0.00  0.00    -0.275 N 
ATOM      3  HN  UNK N   1       5.310   0.654   0.000  1.00  0.00     0.189 HD
HETATM    4  N   UNK N   1       2.634   2.424  -0.089  0.00  0.00    -0.332 N 
ATOM      5  HN  UNK N   1       2.074   3.276  -0.040  1.00  0.00     0.168 HD
HETATM    6  C   UNK N   1       2.210   1.161  -0.301  0.00  0.00     0.205 A 
HETATM    7  C   UNK N   1       3.971   2.298   0.044  0.00  0.00     0.190 A 
ENDROOT
BRANCH   1   8
HETATM    8  C   UNK N   1       3.223  -1.117  -0.566  0.00  0.00     0.276 C 
HETATM    9  O   UNK N   1       4.475  -1.728  -0.320  0.00  0.00    -0.352 OA
HETATM   10  C   UNK N   1       4.169  -2.979   0.262  0.00  0.00     0.179 C 
HETATM   11  C   UNK N   1       2.700  -3.232   0.030  0.00  0.00     0.182 C 
HETATM   12  C   UNK N   1       2.188  -1.857   0.247  0.00  0.00     0.200 C 
BRANCH  10  13
HETATM   13  C   UNK N   1       5.001  -4.087  -0.357  0.00  0.00     0.198 C 
BRANCH  13  14
HETATM   14  O   UNK N   1       6.346  -3.898  -0.041  0.00  0.00    -0.398 OA
HETATM   15  H   UNK N   1       6.928  -4.643   0.179  0.00  0.00     0.209 HD
ENDBRANCH  13  14
ENDBRANCH  10  13
BRANCH  11  16
HETATM   16  O   UNK N   1       2.174  -4.133   0.956  0.00  0.00    -0.390 OA
HETATM   17  H   UNK N   1       1.449  -4.129   1.600  0.00  0.00     0.210 HD
ENDBRANCH  11  16
BRANCH  12  18
HETATM   18  O   UNK N   1       0.917  -1.708  -0.308  0.00  0.00    -0.388 OA
HETATM   19  H   UNK N   1       0.565  -0.891  -0.694  0.00  0.00     0.210 HD
ENDBRANCH  12  18
ENDBRANCH   1   8
BRANCH   7  20
HETATM   20  C   UNK N   1       4.892   3.431   0.220  0.00  0.00     0.284 C 
HETATM   21  O   UNK N   1       6.096   3.239   0.277  0.00  0.00    -0.265 OA
HETATM   22  N   UNK N   1       4.413   4.689   0.287  0.00  0.00    -0.363 N 
HETATM   23  H   UNK N   1       5.034   5.452   0.336  0.00  0.00     0.159 HD
HETATM   24  H   UNK N   1       3.441   4.846   0.287  0.00  0.00     0.159 HD
ENDBRANCH   7  20
TORSDOF 6
