REMARK  7 active torsions:
REMARK  status: ('A' for Active; 'I' for Inactive)
REMARK    1  A    between atoms: O_1  and  C_5 
REMARK    2  A    between atoms: O_2  and  C_13 
REMARK    3  A    between atoms: O_3  and  C_14 
REMARK    4  A    between atoms: N_4  and  C_6 
REMARK    5  A    between atoms: N_4  and  C_7 
REMARK    6  A    between atoms: C_5  and  C_6 
REMARK    7  A    between atoms: C_5  and  C_8 
ROOT
HETATM    1  C   UNK N   1       2.463  -0.304   0.110  0.00  0.00    -0.023 A 
HETATM    2  C   UNK N   1       3.777  -0.800   0.087  0.00  0.00     0.046 A 
HETATM    3  C   UNK N   1       1.393  -1.211   0.059  0.00  0.00     0.046 A 
HETATM    4  C   UNK N   1       1.634  -2.586  -0.032  0.00  0.00     0.069 A 
HETATM    5  C   UNK N   1       4.017  -2.172  -0.015  0.00  0.00     0.069 A 
HETATM    6  C   UNK N   1       2.946  -3.065  -0.071  0.00  0.00     0.073 A 
ENDROOT
BRANCH   1   7
HETATM    7  C   UNK N   1       2.196   1.174   0.297  0.00  0.00     0.168 C 
BRANCH   7   8
HETATM    8  O   UNK N   1       0.922   1.521  -0.159  0.00  0.00    -0.389 OA
HETATM    9  H   UNK N   1       0.687   2.407  -0.476  0.00  0.00     0.210 HD
ENDBRANCH   7   8
BRANCH   7  10
HETATM   10  C   UNK N   1       3.239   2.082  -0.345  0.00  0.00     0.150 C 
BRANCH  10  11
HETATM   11  N   UNK N   1       4.477   2.014   0.418  0.00  0.00    -0.415 N 
HETATM   12  H   UNK N   1       4.602   1.548   1.316  0.00  0.00     0.153 HD
BRANCH  11  13
HETATM   13  C   UNK N   1       5.504   2.726  -0.322  0.00  0.00     0.068 C 
HETATM   14  C   UNK N   1       5.514   4.184   0.095  0.00  0.00     0.031 C 
HETATM   15  C   UNK N   1       6.854   2.115  -0.008  0.00  0.00     0.031 C 
ENDBRANCH  11  13
ENDBRANCH  10  11
ENDBRANCH   7  10
ENDBRANCH   1   7
BRANCH   5  16
HETATM   16  O   UNK N   1       5.279  -2.631  -0.046  0.00  0.00    -0.361 OA
HETATM   17  H   UNK N   1       5.442  -3.553  -0.068  0.00  0.00     0.217 HD
ENDBRANCH   5  16
BRANCH   4  18
HETATM   18  O   UNK N   1       0.605  -3.447  -0.068  0.00  0.00    -0.361 OA
HETATM   19  H   UNK N   1      -0.275  -3.125  -0.093  0.00  0.00     0.217 HD
ENDBRANCH   4  18
TORSDOF 7
