REMARK  4 active torsions:
REMARK  status: ('A' for Active; 'I' for Inactive)
REMARK    1  A    between atoms: C_16  and  O_4 
REMARK    2  A    between atoms: O_6  and  C_26 
REMARK    3  A    between atoms: C_11  and  C_22 
REMARK    4  A    between atoms: C_22  and  C_26 
ROOT
HETATM    1  F   UNK N   1       0.571  -1.096  -0.590  0.00  0.00    -0.245 F 
HETATM    2  O   UNK N   1       7.666  -1.757  -1.092  0.00  0.00    -0.334 OA
HETATM    3  O   UNK N   1       7.727  -3.517   0.440  0.00  0.00    -0.347 OA
HETATM    4  O   UNK N   1      -0.117   3.732  -1.801  0.00  0.00    -0.289 OA
HETATM    5  C   UNK N   1       6.471  -0.212   0.403  0.00  0.00     0.004 C 
HETATM    6  C   UNK N   1       5.254  -1.121   0.320  0.00  0.00     0.004 C 
HETATM    7  C   UNK N   1       3.983  -0.406   0.841  0.00  0.00     0.001 C 
HETATM    8  C   UNK N   1       7.635  -1.204   0.194  0.00  0.00     0.160 C 
HETATM    9  C   UNK N   1       3.979   1.140   0.513  0.00  0.00     0.035 C 
HETATM   10  C   UNK N   1       7.208  -2.381   1.057  0.00  0.00     0.168 C 
HETATM   11  C   UNK N   1       5.663  -2.400   1.046  0.00  0.00     0.041 C 
HETATM   12  C   UNK N   1       6.284   0.922  -0.640  0.00  0.00     0.045 C 
HETATM   13  C   UNK N   1       4.795   1.393  -0.790  0.00  0.00     0.124 C 
HETATM   14  C   UNK N   1       2.530   1.700   0.600  0.00  0.00     0.006 C 
HETATM   15  C   UNK N   1       2.709  -1.169   0.418  0.00  0.00     0.047 C 
HETATM   16  C   UNK N   1       6.629   0.406   1.809  0.00  0.00     0.019 C 
HETATM   17  C   UNK N   1       1.818  -0.500  -0.640  0.00  0.00     0.200 C 
HETATM   18  C   UNK N   1       8.008  -3.119  -0.887  0.00  0.00     0.159 C 
HETATM   19  C   UNK N   1       1.687   0.994  -0.457  0.00  0.00    -0.030 C 
HETATM   20  C   UNK N   1       1.955   1.379   1.978  0.00  0.00     0.025 C 
HETATM   21  C   UNK N   1       2.492   3.218   0.517  0.00  0.00    -0.008 C 
HETATM   22  C   UNK N   1       9.487  -3.330  -1.169  0.00  0.00     0.078 C 
HETATM   23  C   UNK N   1       7.203  -3.981  -1.840  0.00  0.00     0.078 C 
HETATM   24  C   UNK N   1       0.861   1.676  -1.268  0.00  0.00     0.061 C 
HETATM   25  C   UNK N   1       1.651   3.879  -0.287  0.00  0.00     0.052 C 
HETATM   26  C   UNK N   1       0.735   3.138  -1.160  0.00  0.00     0.172 C 
ENDROOT
BRANCH   8  27
HETATM   27  C   UNK N   1       8.997  -0.583   0.502  0.00  0.00     0.188 C 
HETATM   28  O   UNK N   1       9.402   0.340  -0.186  0.00  0.00    -0.292 OA
BRANCH  27  29
HETATM   29  C   UNK N   1       9.818  -1.029   1.675  0.00  0.00     0.245 C 
BRANCH  29  30
HETATM   30  O   UNK N   1      11.105  -1.377   1.265  0.00  0.00    -0.393 OA
HETATM   31  H   UNK N   1      11.343  -2.273   0.979  0.00  0.00     0.209 HD
ENDBRANCH  29  30
ENDBRANCH  27  29
ENDBRANCH   8  27
BRANCH  13  32
HETATM   32  O   UNK N   1       4.789   2.740  -1.154  0.00  0.00    -0.395 OA
HETATM   33  H   UNK N   1       5.598   3.212  -1.406  0.00  0.00     0.210 HD
ENDBRANCH  13  32
TORSDOF 4
