REMARK  5 active torsions:
REMARK  status: ('A' for Active; 'I' for Inactive)
REMARK    1  A    between atoms: O_2  and  C_24 
REMARK       I    between atoms: N_5  and  C_17 
REMARK    2  A    between atoms: C_22  and  N_5 
REMARK    3  A    between atoms: C_9  and  C_17 
REMARK    4  A    between atoms: C_22  and  C_23 
REMARK    5  A    between atoms: C_22  and  C_24 
ROOT
HETATM    1  N   UNK N   1       6.914   0.635   0.431  0.00  0.00     0.094 N 
HETATM    2  N   UNK N   1       8.114  -5.269   0.069  0.00  0.00    -0.365 N 
HETATM    3  C   UNK N   1       6.917  -0.740  -0.109  0.00  0.00     0.260 C 
HETATM    4  C   UNK N   1       5.557  -1.439   0.116  0.00  0.00    -0.017 C 
HETATM    5  C   UNK N   1       8.111  -1.563   0.471  0.00  0.00     0.081 C 
HETATM    6  C   UNK N   1       4.476   0.748   0.591  0.00  0.00     0.129 C 
HETATM    7  C   UNK N   1       5.733   1.353  -0.039  0.00  0.00     0.290 C 
HETATM    8  C   UNK N   1       7.916  -3.036   0.226  0.00  0.00    -0.027 A 
HETATM    9  C   UNK N   1       5.497  -2.905  -0.027  0.00  0.00    -0.015 A 
HETATM   10  C   UNK N   1       6.693  -3.573   0.025  0.00  0.00     0.009 A 
HETATM   11  C   UNK N   1       4.456  -0.746   0.435  0.00  0.00    -0.001 C 
HETATM   12  C   UNK N   1       6.818  -4.911  -0.061  0.00  0.00     0.043 A 
HETATM   13  C   UNK N   1       8.079   1.368  -0.048  0.00  0.00     0.310 C 
HETATM   14  C   UNK N   1       8.806  -4.106   0.259  0.00  0.00     0.096 A 
HETATM   15  C   UNK N   1       4.325  -3.677  -0.160  0.00  0.00     0.013 A 
HETATM   16  C   UNK N   1       5.697  -5.726  -0.218  0.00  0.00     0.030 A 
HETATM   17  C   UNK N   1       4.430  -5.091  -0.268  0.00  0.00     0.003 A 
HETATM   18  H   UNK N   1       8.484  -6.180   0.034  0.00  0.00     0.165 HD
ENDROOT
BRANCH   6  19
HETATM   19  C   UNK N   1       3.247   1.408   0.037  0.00  0.00     0.227 C 
HETATM   20  O   UNK N   1       2.411   0.758  -0.576  0.00  0.00    -0.273 OA
HETATM   21  N   UNK N   1       3.083   2.737   0.239  0.00  0.00    -0.354 N 
HETATM   22  H   UNK N   1       3.791   3.210   0.734  0.00  0.00     0.163 HD
BRANCH  21  23
HETATM   23  C   UNK N   1       1.953   3.516  -0.212  0.00  0.00     0.107 C 
BRANCH  23  24
HETATM   24  C   UNK N   1       0.687   3.148   0.562  0.00  0.00     0.023 C 
HETATM   25  C   UNK N   1      -0.088   2.042  -0.128  0.00  0.00     0.007 C 
ENDBRANCH  23  24
BRANCH  23  26
HETATM   26  C   UNK N   1       2.286   4.972   0.065  0.00  0.00     0.189 C 
BRANCH  26  27
HETATM   27  O   UNK N   1       1.306   5.810  -0.464  0.00  0.00    -0.399 OA
HETATM   28  H   UNK N   1       1.470   6.692  -0.832  0.00  0.00     0.209 HD
ENDBRANCH  26  27
ENDBRANCH  23  26
ENDBRANCH  21  23
ENDBRANCH   6  19
TORSDOF 5
