REMARK  4 active torsions:
REMARK  status: ('A' for Active; 'I' for Inactive)
REMARK    1  A    between atoms: C_9  and  O_1 
REMARK    2  A    between atoms: O_1  and  C_24 
REMARK    3  A    between atoms: C_23  and  O_2 
REMARK    4  A    between atoms: O_2  and  C_27 
ROOT
HETATM    1  C   UNK N   1       8.127   0.714   0.306  0.00  0.00     0.003 C 
HETATM    2  C   UNK N   1       8.319  -0.768  -0.028  0.00  0.00     0.002 C 
HETATM    3  C   UNK N   1       7.019  -1.551   0.146  0.00  0.00    -0.005 C 
HETATM    4  C   UNK N   1       5.820  -0.873  -0.602  0.00  0.00    -0.002 C 
HETATM    5  C   UNK N   1       9.587   1.197   0.262  0.00  0.00     0.140 C 
HETATM    6  C   UNK N   1       7.137   1.319  -0.687  0.00  0.00     0.014 C 
HETATM    7  C   UNK N   1       9.487  -1.164   0.891  0.00  0.00     0.010 C 
HETATM    8  C   UNK N   1       5.775   0.660  -0.423  0.00  0.00     0.006 C 
HETATM    9  C   UNK N   1       4.560  -1.523   0.005  0.00  0.00     0.019 C 
HETATM   10  C   UNK N   1      10.229   0.163   1.202  0.00  0.00     0.053 C 
HETATM   11  C   UNK N   1       7.128  -3.004  -0.343  0.00  0.00     0.009 C 
HETATM   12  C   UNK N   1       7.557   0.934   1.739  0.00  0.00     0.020 C 
HETATM   13  C   UNK N   1       4.584  -3.008  -0.321  0.00  0.00    -0.077 C 
HETATM   14  C   UNK N   1       5.844  -3.796  -0.038  0.00  0.00     0.034 C 
HETATM   15  C   UNK N   1       3.254  -0.788  -0.337  0.00  0.00     0.012 C 
HETATM   16  C   UNK N   1       2.414  -1.469  -1.401  0.00  0.00     0.037 C 
HETATM   17  C   UNK N   1       9.665   2.614   0.678  0.00  0.00    -0.077 C 
HETATM   18  C   UNK N   1       3.507  -3.644  -0.807  0.00  0.00     0.008 C 
HETATM   19  C   UNK N   1       2.191  -2.942  -1.041  0.00  0.00     0.155 C 
HETATM   20  C   UNK N   1       9.769   3.770   1.015  0.00  0.00     0.015 C 
ENDROOT
BRANCH   5  21
HETATM   21  O   UNK N   1      10.135   1.006  -0.999  0.00  0.00    -0.296 OA
BRANCH  21  22
HETATM   22  C   UNK N   1      11.470   1.060  -1.275  0.00  0.00     0.256 C 
HETATM   23  O   UNK N   1      11.923   0.370  -2.180  0.00  0.00    -0.266 OA
HETATM   24  C   UNK N   1      12.409   1.877  -0.437  0.00  0.00     0.126 C 
ENDBRANCH  21  22
ENDBRANCH   5  21
BRANCH  19  25
HETATM   25  O   UNK N   1       1.312  -3.228   0.015  0.00  0.00    -0.312 OA
BRANCH  25  26
HETATM   26  C   UNK N   1       0.683  -2.378   0.888  0.00  0.00     0.255 C 
HETATM   27  O   UNK N   1       0.701  -1.167   0.735  0.00  0.00    -0.266 OA
HETATM   28  C   UNK N   1      -0.072  -2.942   2.051  0.00  0.00     0.126 C 
ENDBRANCH  25  26
ENDBRANCH  19  25
TORSDOF 4
