REMARK  2 active torsions:
REMARK  status: ('A' for Active; 'I' for Inactive)
REMARK    1  A    between atoms: N_3  and  C_8 
REMARK    2  A    between atoms: C_8  and  C_10 
ROOT
HETATM    1  O   UNK N   1       0.707  -0.342  -0.001  0.00  0.00    -0.246 OA
HETATM    2  O   UNK N   1       2.790   3.633   0.000  0.00  0.00    -0.265 OA
HETATM    3  N   UNK N   1       2.990  -0.378  -0.000  0.00  0.00    -0.283 N 
HETATM    4  N   UNK N   1       1.701   1.663  -0.000  0.00  0.00    -0.273 N 
HETATM    5  N   UNK N   1       5.302   2.252   0.001  0.00  0.00    -0.345 N 
HETATM    6  N   UNK N   1       5.384  -0.003   0.000  0.00  0.00    -0.336 N 
ATOM      7  HN  UNK N   1       5.736  -0.960   0.000  1.00  0.00     0.168 HD
HETATM    8  C   UNK N   1       4.105   0.405   0.000  0.00  0.00     0.145 A 
HETATM    9  C   UNK N   1       4.058   1.753   0.000  0.00  0.00     0.147 A 
HETATM   10  C   UNK N   1       1.753   0.280  -0.001  0.00  0.00     0.331 A 
HETATM   11  C   UNK N   1       2.847   2.417   0.000  0.00  0.00     0.280 A 
HETATM   12  C   UNK N   1       6.102   1.153   0.001  0.00  0.00     0.182 A 
HETATM   13  H   UNK N   1       0.826   2.114  -0.000  0.00  0.00     0.173 HD
HETATM   14  H   UNK N   1       5.573   3.199   0.001  0.00  0.00     0.167 HD
ENDROOT
BRANCH   3  15
HETATM   15  C   UNK N   1       3.174  -1.845  -0.000  0.00  0.00     0.135 C 
BRANCH  15  16
HETATM   16  C   UNK N   1       1.897  -2.676   0.000  0.00  0.00     0.016 C 
HETATM   17  C   UNK N   1       2.230  -4.151   0.000  0.00  0.00     0.006 C 
ENDBRANCH  15  16
ENDBRANCH   3  15
TORSDOF 2
