REMARK  3 active torsions:
REMARK  status: ('A' for Active; 'I' for Inactive)
REMARK    1  A    between atoms: P_1  and  O_3 
REMARK    2  A    between atoms: P_1  and  O_4 
REMARK    3  A    between atoms: P_1  and  C_6 
ROOT
HETATM    1  P   UNK N   1       4.081  -0.031   0.219  0.00  0.00     0.268 P 
HETATM    2  O   UNK N   1       4.504  -1.509   0.002  0.00  0.00    -0.652 OA
ENDROOT
BRANCH   1   3
HETATM    3  O   UNK N   1       4.800   0.821  -1.111  0.00  0.00    -0.327 OA
HETATM    4  H   UNK N   1       5.413   0.712  -1.855  0.00  0.00     0.220 HD
ENDBRANCH   1   3
BRANCH   1   5
HETATM    5  O   UNK N   1       4.948   0.439   1.646  0.00  0.00    -0.327 OA
HETATM    6  H   UNK N   1       5.418   0.151   2.444  0.00  0.00     0.220 HD
ENDBRANCH   1   5
BRANCH   1   7
HETATM    7  C   UNK N   1       2.231   0.126   0.386  0.00  0.00     0.261 A 
HETATM    8  O   UNK N   1       1.689   0.350  -0.893  0.00  0.00    -0.363 OA
HETATM    9  C   UNK N   1       1.545  -0.942  -0.381  0.00  0.00     0.159 A 
HETATM   10  C   UNK N   1       0.128  -1.102   0.131  0.00  0.00     0.043 C 
ENDBRANCH   1   7
TORSDOF 3
