REMARK  5 active torsions:
REMARK  status: ('A' for Active; 'I' for Inactive)
REMARK    1  A    between atoms: N_5  and  C_10 
REMARK    2  A    between atoms: N_7  and  C_14 
REMARK    3  A    between atoms: C_10  and  C_13 
REMARK    4  A    between atoms: C_13  and  C_14 
REMARK    5  A    between atoms: C_22  and  C_28 
ROOT
HETATM    1  S   UNK N   1       5.253  -4.228  -0.461  0.00  0.00    -0.086 SA
HETATM    2  N   UNK N   1       5.214  -1.296   0.844  0.00  0.00    -0.345 N 
HETATM    3  C   UNK N   1       6.457  -1.795   0.330  0.00  0.00     0.053 A 
HETATM    4  C   UNK N   1       3.958  -1.977   0.668  0.00  0.00     0.052 A 
HETATM    5  C   UNK N   1       6.592  -3.067  -0.265  0.00  0.00     0.032 A 
HETATM    6  C   UNK N   1       3.856  -3.254   0.071  0.00  0.00     0.032 A 
HETATM    7  C   UNK N   1       7.602  -0.975   0.418  0.00  0.00     0.047 A 
HETATM    8  C   UNK N   1       2.770  -1.349   1.096  0.00  0.00     0.031 A 
HETATM    9  C   UNK N   1       8.847  -1.400  -0.045  0.00  0.00     0.050 A 
HETATM   10  C   UNK N   1       7.849  -3.493  -0.714  0.00  0.00     0.022 A 
HETATM   11  C   UNK N   1       2.597  -3.847  -0.093  0.00  0.00     0.021 A 
HETATM   12  C   UNK N   1       8.969  -2.672  -0.603  0.00  0.00     0.017 A 
HETATM   13  C   UNK N   1       1.524  -1.949   0.923  0.00  0.00     0.002 A 
HETATM   14  C   UNK N   1       1.437  -3.198   0.322  0.00  0.00     0.002 A 
ENDROOT
BRANCH   2  15
HETATM   15  C   UNK N   1       5.255  -0.046   1.595  0.00  0.00     0.131 C 
BRANCH  15  16
HETATM   16  C   UNK N   1       4.479   1.078   0.927  0.00  0.00     0.050 C 
BRANCH  16  17
HETATM   17  C   UNK N   1       4.955   1.344  -0.497  0.00  0.00     0.274 C 
BRANCH  17  18
HETATM   18  N   UNK N   1       3.996   2.130  -1.286  0.00  0.00     0.091 N 
HETATM   19  C   UNK N   1       3.850   3.515  -0.827  0.00  0.00     0.302 C 
HETATM   20  C   UNK N   1       2.933   3.626   0.400  0.00  0.00     0.302 C 
HETATM   21  N   UNK N   1       1.635   2.978   0.188  0.00  0.00     0.087 N 
HETATM   22  C   UNK N   1       1.790   1.589  -0.251  0.00  0.00     0.302 C 
HETATM   23  C   UNK N   1       0.842   3.727  -0.777  0.00  0.00     0.310 C 
HETATM   24  C   UNK N   1       2.704   1.460  -1.480  0.00  0.00     0.302 C 
ENDBRANCH  17  18
ENDBRANCH  16  17
ENDBRANCH  15  16
ENDBRANCH   2  15
BRANCH   9  25
HETATM   25  C   UNK N   1      10.028  -0.478   0.050  0.00  0.00     0.417 C 
HETATM   26  F   UNK N   1      10.195  -0.067   1.360  0.00  0.00    -0.166 F 
HETATM   27  F   UNK N   1      11.188  -1.105  -0.372  0.00  0.00    -0.166 F 
HETATM   28  F   UNK N   1       9.805   0.631  -0.746  0.00  0.00    -0.166 F 
ENDBRANCH   9  25
TORSDOF 5
