REMARK  4 active torsions:
REMARK  status: ('A' for Active; 'I' for Inactive)
REMARK    1  A    between atoms: C_7  and  O_1 
REMARK    2  A    between atoms: N_3  and  C_29 
REMARK    3  A    between atoms: C_7  and  C_19 
REMARK    4  A    between atoms: C_11  and  C_17 
ROOT
HETATM    1  C   UNK N   1       9.577   1.474   0.578  0.00  0.00    -0.068 C 
HETATM    2  C   UNK N   1      10.315   1.974   1.391  0.00  0.00    -0.108 C 
HETATM    3  C   UNK N   1      11.298   2.625   2.260  0.00  0.00     0.112 C 
ENDROOT
BRANCH   1   4
HETATM    4  C   UNK N   1       8.880   0.964  -0.614  0.00  0.00     0.128 C 
HETATM    5  C   UNK N   1       7.498   0.318  -0.440  0.00  0.00     0.004 C 
HETATM    6  C   UNK N   1       7.768  -1.131  -0.058  0.00  0.00     0.006 C 
HETATM    7  C   UNK N   1       6.642   0.901   0.657  0.00  0.00     0.027 C 
HETATM    8  C   UNK N   1       6.762   0.410  -1.801  0.00  0.00     0.020 C 
HETATM    9  C   UNK N   1       6.484  -1.987  -0.269  0.00  0.00     0.021 C 
HETATM   10  C   UNK N   1       8.961  -1.499  -0.934  0.00  0.00     0.010 C 
HETATM   11  C   UNK N   1       5.227  -1.305   0.294  0.00  0.00    -0.060 C 
HETATM   12  C   UNK N   1       6.588  -3.414   0.257  0.00  0.00     0.014 C 
HETATM   13  C   UNK N   1       5.294   0.185   0.739  0.00  0.00     0.049 C 
HETATM   14  C   UNK N   1       4.069  -2.034   0.385  0.00  0.00    -0.048 C 
HETATM   15  C   UNK N   1       4.071  -3.491   0.031  0.00  0.00    -0.048 C 
HETATM   16  C   UNK N   1       2.781  -1.386   0.853  0.00  0.00     0.047 C 
HETATM   17  C   UNK N   1       5.369  -4.215  -0.233  0.00  0.00     0.040 C 
HETATM   18  C   UNK N   1       2.931  -4.196  -0.005  0.00  0.00     0.057 C 
HETATM   19  C   UNK N   1       1.636  -3.602   0.370  0.00  0.00     0.150 C 
HETATM   20  O   UNK N   1       0.606  -4.233   0.200  0.00  0.00    -0.293 OA
HETATM   21  C   UNK N   1       1.585  -2.302   1.104  0.00  0.00     0.087 C 
HETATM   22  C   UNK N   1       9.697  -0.171  -1.236  0.00  0.00     0.052 C 
BRANCH   4  23
HETATM   23  O   UNK N   1       8.799   2.056  -1.485  0.00  0.00    -0.377 OA
HETATM   24  H   UNK N   1       9.427   2.484  -2.088  0.00  0.00     0.211 HD
ENDBRANCH   4  23
BRANCH  13  25
HETATM   25  C   UNK N   1       4.251   1.145   0.269  0.00  0.00    -0.050 C 
HETATM   26  C   UNK N   1       3.398   0.874  -0.809  0.00  0.00     0.010 C 
HETATM   27  C   UNK N   1       2.230   1.621  -0.959  0.00  0.00     0.030 C 
HETATM   28  C   UNK N   1       1.929   2.653  -0.050  0.00  0.00     0.029 C 
HETATM   29  C   UNK N   1       2.872   3.010   0.920  0.00  0.00     0.030 C 
HETATM   30  C   UNK N   1       4.017   2.252   1.084  0.00  0.00     0.010 C 
BRANCH  28  31
HETATM   31  N   UNK N   1       0.620   3.206   0.011  0.00  0.00    -0.390 N 
HETATM   32  C   UNK N   1       0.285   4.159   1.041  0.00  0.00     0.149 C 
HETATM   33  C   UNK N   1      -0.464   2.555  -0.679  0.00  0.00     0.149 C 
ENDBRANCH  28  31
ENDBRANCH  13  25
ENDBRANCH   1   4
TORSDOF 4
