REMARK  4 active torsions:
REMARK  status: ('A' for Active; 'I' for Inactive)
REMARK    1  A    between atoms: C_16  and  O_4 
REMARK    2  A    between atoms: O_6  and  C_28 
REMARK    3  A    between atoms: C_11  and  C_22 
REMARK    4  A    between atoms: C_22  and  C_28 
ROOT
HETATM    1  F   UNK N   1       0.387  -1.094  -0.530  0.00  0.00    -0.245 F 
HETATM    2  O   UNK N   1       8.659  -2.540   0.673  0.00  0.00    -0.334 OA
HETATM    3  O   UNK N   1       7.074  -3.986   0.117  0.00  0.00    -0.347 OA
HETATM    4  O   UNK N   1      -0.806   3.656  -0.064  0.00  0.00    -0.293 OA
HETATM    5  C   UNK N   1       6.469  -0.690  -0.322  0.00  0.00     0.004 C 
HETATM    6  C   UNK N   1       5.064  -1.358  -0.182  0.00  0.00     0.004 C 
HETATM    7  C   UNK N   1       3.969  -0.451   0.450  0.00  0.00     0.001 C 
HETATM    8  C   UNK N   1       7.723  -1.665   0.049  0.00  0.00     0.160 C 
HETATM    9  C   UNK N   1       4.033   0.927  -0.258  0.00  0.00     0.031 C 
HETATM   10  C   UNK N   1       5.254  -2.564   0.607  0.00  0.00     0.041 C 
HETATM   11  C   UNK N   1       6.729  -2.761   0.668  0.00  0.00     0.168 C 
HETATM   12  C   UNK N   1       6.504   0.620   0.505  0.00  0.00     0.045 C 
HETATM   13  C   UNK N   1       5.368   1.611   0.144  0.00  0.00     0.124 C 
HETATM   14  C   UNK N   1       2.788   1.798   0.049  0.00  0.00    -0.011 C 
HETATM   15  C   UNK N   1       2.572  -1.120   0.426  0.00  0.00     0.047 C 
HETATM   16  C   UNK N   1       6.519  -0.317  -1.826  0.00  0.00     0.019 C 
HETATM   17  C   UNK N   1       1.524   1.007  -0.277  0.00  0.00    -0.034 C 
HETATM   18  C   UNK N   1       1.624  -0.474  -0.577  0.00  0.00     0.200 C 
HETATM   19  C   UNK N   1       8.443  -3.816   0.111  0.00  0.00     0.159 C 
HETATM   20  C   UNK N   1       2.759   3.095  -0.771  0.00  0.00     0.022 C 
HETATM   21  C   UNK N   1       2.775   2.159   1.540  0.00  0.00     0.021 C 
HETATM   22  C   UNK N   1       1.516   3.944  -0.426  0.00  0.00     0.084 C 
HETATM   23  C   UNK N   1       0.335   1.632  -0.319  0.00  0.00     0.056 C 
HETATM   24  C   UNK N   1       8.995  -3.928  -1.309  0.00  0.00     0.078 C 
HETATM   25  C   UNK N   1       9.088  -4.876   0.982  0.00  0.00     0.078 C 
HETATM   26  C   UNK N   1       0.270   3.107  -0.232  0.00  0.00     0.149 C 
ENDROOT
BRANCH   8  27
HETATM   27  C   UNK N   1       8.972  -0.769  -0.465  0.00  0.00     0.188 C 
HETATM   28  O   UNK N   1       8.816   0.363  -0.910  0.00  0.00    -0.292 OA
BRANCH  27  29
HETATM   29  C   UNK N   1      10.430  -1.197  -0.372  0.00  0.00     0.245 C 
BRANCH  29  30
HETATM   30  O   UNK N   1      11.109  -0.383   0.537  0.00  0.00    -0.393 OA
HETATM   31  H   UNK N   1      11.835  -0.508   1.168  0.00  0.00     0.209 HD
ENDBRANCH  29  30
ENDBRANCH  27  29
ENDBRANCH   8  27
BRANCH  13  32
HETATM   32  O   UNK N   1       5.779   2.517  -0.838  0.00  0.00    -0.395 OA
HETATM   33  H   UNK N   1       6.466   2.584  -1.519  0.00  0.00     0.210 HD
ENDBRANCH  13  32
TORSDOF 4
