REMARK  2 active torsions:
REMARK  status: ('A' for Active; 'I' for Inactive)
REMARK    1  A    between atoms: C_6  and  C_7 
REMARK    2  A    between atoms: C_6  and  C_8 
ROOT
HETATM    1  O   UNK N   1       1.146   0.291   0.799  0.00  0.00    -0.271 OA
HETATM    2  O   UNK N   1       4.960  -0.103  -1.921  0.00  0.00    -0.271 OA
HETATM    3  O   UNK N   1       3.459  -3.534   0.462  0.00  0.00    -0.246 OA
HETATM    4  N   UNK N   1       2.279  -1.637   0.656  0.00  0.00    -0.273 N 
HETATM    5  N   UNK N   1       4.204  -1.808  -0.716  0.00  0.00    -0.277 N 
HETATM    6  C   UNK N   1       3.001   0.388  -0.677  0.00  0.00     0.149 A 
HETATM    7  C   UNK N   1       2.086  -0.328   0.313  0.00  0.00     0.250 A 
HETATM    8  C   UNK N   1       4.119  -0.525  -1.141  0.00  0.00     0.248 A 
HETATM    9  C   UNK N   1       3.317  -2.362   0.144  0.00  0.00     0.331 A 
HETATM   10  C   UNK N   1       1.357  -2.271   1.575  0.00  0.00     0.164 C 
HETATM   11  H   UNK N   1       4.946  -2.364  -1.048  0.00  0.00     0.173 HD
ENDROOT
BRANCH   6  12
HETATM   12  C   UNK N   1       2.193   0.737  -1.952  0.00  0.00     0.030 C 
HETATM   13  C   UNK N   1       0.952   1.595  -1.738  0.00  0.00     0.007 C 
ENDBRANCH   6  12
BRANCH   6  14
HETATM   14  C   UNK N   1       3.626   1.616  -0.007  0.00  0.00    -0.031 A 
HETATM   15  C   UNK N   1       3.331   2.921  -0.447  0.00  0.00     0.009 A 
HETATM   16  C   UNK N   1       3.916   4.031   0.166  0.00  0.00     0.001 A 
HETATM   17  C   UNK N   1       4.821   3.854   1.214  0.00  0.00     0.000 A 
HETATM   18  C   UNK N   1       5.131   2.566   1.657  0.00  0.00     0.001 A 
HETATM   19  C   UNK N   1       4.531   1.454   1.058  0.00  0.00     0.009 A 
ENDBRANCH   6  14
TORSDOF 2
