REMARK  7 active torsions:
REMARK  status: ('A' for Active; 'I' for Inactive)
REMARK    1  A    between atoms: O_3  and  C_15 
REMARK    2  A    between atoms: N_4  and  C_11 
REMARK    3  A    between atoms: N_5  and  C_13 
REMARK    4  A    between atoms: N_6  and  C_14 
REMARK    5  A    between atoms: C_11  and  C_12 
REMARK    6  A    between atoms: C_12  and  C_14 
REMARK    7  A    between atoms: C_13  and  C_15 
ROOT
HETATM    1 Cl   UNK N   1      11.306  -1.798  -0.023  0.00  0.00    -0.084 Cl
HETATM    2  S   UNK N   1       6.297  -5.680   0.064  0.00  0.00    -0.086 SA
HETATM    3  N   UNK N   1       6.195  -2.502  -0.308  0.00  0.00    -0.345 N 
HETATM    4  C   UNK N   1       7.478  -3.117  -0.148  0.00  0.00     0.053 A 
HETATM    5  C   UNK N   1       4.951  -3.200  -0.161  0.00  0.00     0.052 A 
HETATM    6  C   UNK N   1       7.642  -4.507   0.044  0.00  0.00     0.032 A 
HETATM    7  C   UNK N   1       4.876  -4.598   0.031  0.00  0.00     0.032 A 
HETATM    8  C   UNK N   1       8.631  -2.305  -0.171  0.00  0.00     0.054 A 
HETATM    9  C   UNK N   1       3.745  -2.468  -0.206  0.00  0.00     0.031 A 
HETATM   10  C   UNK N   1       8.930  -5.038   0.199  0.00  0.00     0.023 A 
HETATM   11  C   UNK N   1       3.626  -5.214   0.170  0.00  0.00     0.021 A 
HETATM   12  C   UNK N   1       9.904  -2.845  -0.006  0.00  0.00     0.036 A 
HETATM   13  C   UNK N   1       2.508  -3.093  -0.061  0.00  0.00     0.002 A 
HETATM   14  C   UNK N   1      10.055  -4.214   0.178  0.00  0.00     0.025 A 
HETATM   15  C   UNK N   1       2.449  -4.469   0.129  0.00  0.00     0.002 A 
ENDROOT
BRANCH   3  16
HETATM   16  C   UNK N   1       6.157  -1.090  -0.647  0.00  0.00     0.131 C 
BRANCH  16  17
HETATM   17  C   UNK N   1       6.010  -0.232   0.591  0.00  0.00     0.050 C 
BRANCH  17  18
HETATM   18  C   UNK N   1       5.781   1.194   0.126  0.00  0.00     0.274 C 
BRANCH  18  19
HETATM   19  N   UNK N   1       4.445   1.656   0.474  0.00  0.00     0.091 N 
HETATM   20  C   UNK N   1       3.446   0.911  -0.298  0.00  0.00     0.302 C 
HETATM   21  C   UNK N   1       2.051   1.446   0.027  0.00  0.00     0.302 C 
HETATM   22  N   UNK N   1       1.968   2.863  -0.328  0.00  0.00     0.093 N 
HETATM   23  C   UNK N   1       2.995   3.607   0.408  0.00  0.00     0.302 C 
HETATM   24  C   UNK N   1       4.377   3.058   0.078  0.00  0.00     0.302 C 
BRANCH  22  25
HETATM   25  C   UNK N   1       0.669   3.341   0.122  0.00  0.00     0.298 C 
BRANCH  25  26
HETATM   26  C   UNK N   1       0.385   4.726  -0.436  0.00  0.00     0.194 C 
BRANCH  26  27
HETATM   27  O   UNK N   1      -0.769   5.237   0.153  0.00  0.00    -0.399 OA
HETATM   28  H   UNK N   1      -0.862   6.111   0.563  0.00  0.00     0.209 HD
ENDBRANCH  26  27
ENDBRANCH  25  26
ENDBRANCH  22  25
ENDBRANCH  18  19
ENDBRANCH  17  18
ENDBRANCH  16  17
ENDBRANCH   3  16
TORSDOF 7
