REMARK  6 active torsions:
REMARK  status: ('A' for Active; 'I' for Inactive)
REMARK    1  A    between atoms: O_2  and  C_9 
REMARK    2  A    between atoms: N_4  and  C_8 
REMARK    3  A    between atoms: C_5  and  C_6 
REMARK    4  A    between atoms: C_5  and  C_7 
REMARK    5  A    between atoms: C_6  and  C_9 
REMARK    6  A    between atoms: C_7  and  C_8 
ROOT
HETATM    1  C   UNK N   1       4.215   0.500   0.000  0.00  0.00     0.090 C 
ENDROOT
BRANCH   1   2
HETATM    2  C   UNK N   1       5.386  -0.479  -0.000  0.00  0.00     0.117 C 
BRANCH   2   3
HETATM    3  C   UNK N   1       6.704   0.245  -0.000  0.00  0.00     0.139 C 
HETATM    4  O   UNK N   1       6.748   1.468   0.000  0.00  0.00    -0.650 OA
BRANCH   3   5
HETATM    5  O   UNK N   1       7.849  -0.458  -0.000  0.00  0.00    -0.776 OA
HETATM    6  H   UNK N   1       7.824  -1.395  -0.000  0.00  0.00     0.167 HD
ENDBRANCH   3   5
ENDBRANCH   2   3
ENDBRANCH   1   2
BRANCH   1   7
HETATM    7  C   UNK N   1       2.861  -0.141   0.000  0.00  0.00     0.144 C 
HETATM    8  O   UNK N   1       2.737  -1.359  -0.000  0.00  0.00    -0.296 OA
BRANCH   7   9
HETATM    9  C   UNK N   1       1.660   0.757   0.000  0.00  0.00     0.189 C 
BRANCH   9  10
HETATM   10  N   UNK N   1       0.420  -0.001  -0.000  0.00  0.00    -0.424 N 
HETATM   11  H   UNK N   1      -0.476   0.487  -0.000  0.00  0.00     0.150 HD
HETATM   12  H   UNK N   1       0.445  -1.021  -0.000  0.00  0.00     0.150 HD
ENDBRANCH   9  10
ENDBRANCH   7   9
ENDBRANCH   1   7
TORSDOF 6
