REMARK  8 active torsions:
REMARK  status: ('A' for Active; 'I' for Inactive)
REMARK    1  A    between atoms: S_1  and  N_6 
REMARK    2  A    between atoms: S_1  and  C_19 
REMARK    3  A    between atoms: O_4  and  C_24 
REMARK    4  A    between atoms: O_4  and  C_35 
REMARK    5  A    between atoms: N_7  and  C_18 
REMARK    6  A    between atoms: C_23  and  C_25 
REMARK    7  A    between atoms: C_27  and  C_29 
REMARK    8  A    between atoms: C_29  and  C_32 
ROOT
HETATM    1  C   UNK N   1       5.446   0.927   0.305  0.00  0.00     0.075 A 
HETATM    2  C   UNK N   1       6.617   0.183   0.106  0.00  0.00     0.042 A 
HETATM    3  C   UNK N   1       5.544   2.322   0.303  0.00  0.00     0.027 A 
HETATM    4  C   UNK N   1       7.856   0.755  -0.114  0.00  0.00     0.044 A 
HETATM    5  C   UNK N   1       7.965   2.163  -0.105  0.00  0.00     0.082 A 
HETATM    6  C   UNK N   1       6.792   2.936   0.093  0.00  0.00     0.039 A 
ENDROOT
BRANCH   4   7
HETATM    7  C   UNK N   1       8.969  -0.209  -0.263  0.00  0.00     0.136 A 
HETATM    8  N   UNK N   1      10.274   0.182  -0.371  0.00  0.00    -0.276 N 
HETATM    9  N   UNK N   1      11.217  -0.765  -0.394  0.00  0.00    -0.235 N 
HETATM   10  H   UNK N   1      10.513   1.135  -0.431  0.00  0.00     0.189 HD
HETATM   11  C   UNK N   1      12.553  -0.644  -0.469  0.00  0.00     0.104 A 
HETATM   12  C   UNK N   1      10.955  -2.070  -0.320  0.00  0.00     0.148 A 
HETATM   13  N   UNK N   1      13.163  -1.857  -0.435  0.00  0.00    -0.346 N 
HETATM   14  C   UNK N   1      12.151  -2.753  -0.340  0.00  0.00     0.041 A 
ATOM     15  HN  UNK N   1      14.164  -2.051  -0.473  1.00  0.00     0.167 HD
HETATM   16  C   UNK N   1      12.340  -4.228  -0.254  0.00  0.00     0.071 C 
HETATM   17  C   UNK N   1       9.647  -2.502  -0.239  0.00  0.00     0.277 A 
HETATM   18  O   UNK N   1       9.360  -3.684  -0.181  0.00  0.00    -0.265 OA
HETATM   19  N   UNK N   1       8.670  -1.548  -0.209  0.00  0.00    -0.306 N 
ATOM     20  HN  UNK N   1       7.694  -1.838  -0.144  1.00  0.00     0.170 HD
BRANCH  11  21
HETATM   21  C   UNK N   1      13.288   0.647  -0.586  0.00  0.00     0.078 C 
BRANCH  21  22
HETATM   22  C   UNK N   1      13.022   1.525   0.618  0.00  0.00     0.003 C 
HETATM   23  C   UNK N   1      13.746   2.842   0.437  0.00  0.00     0.005 C 
ENDBRANCH  21  22
ENDBRANCH  11  21
ENDBRANCH   4   7
BRANCH   5  24
HETATM   24  O   UNK N   1       9.175   2.756  -0.251  0.00  0.00    -0.351 OA
BRANCH  24  25
HETATM   25  C   UNK N   1       9.357   4.118  -0.141  0.00  0.00     0.171 C 
HETATM   26  C   UNK N   1      10.835   4.440  -0.162  0.00  0.00     0.034 C 
ENDBRANCH  24  25
ENDBRANCH   5  24
BRANCH   1  27
HETATM   27  S   UNK N   1       3.883   0.074   0.762  0.00  0.00     0.243 S 
HETATM   28  O   UNK N   1       4.709  -1.063   1.398  0.00  0.00    -0.206 OA
HETATM   29  O   UNK N   1       4.252  -0.251  -0.698  0.00  0.00    -0.206 OA
BRANCH  27  30
HETATM   30  N   UNK N   1       2.647  -1.051   0.103  0.00  0.00    -0.203 NA
HETATM   31  C   UNK N   1       1.342  -0.709   0.655  0.00  0.00     0.138 C 
HETATM   32  C   UNK N   1       0.274  -1.541  -0.058  0.00  0.00     0.287 C 
HETATM   33  N   UNK N   1       0.524  -2.975   0.136  0.00  0.00     0.090 N 
HETATM   34  C   UNK N   1       1.850  -3.314  -0.373  0.00  0.00     0.287 C 
HETATM   35  C   UNK N   1       2.903  -2.484   0.343  0.00  0.00     0.138 C 
BRANCH  33  36
HETATM   36  C   UNK N   1      -0.424  -3.712  -0.685  0.00  0.00     0.268 C 
HETATM   37  C   UNK N   1      -1.801  -3.713  -0.045  0.00  0.00     0.037 C 
ENDBRANCH  33  36
ENDBRANCH  27  30
ENDBRANCH   1  27
TORSDOF 8
