REMARK  10 active torsions:
REMARK  status: ('A' for Active; 'I' for Inactive)
REMARK    1  A    between atoms: S_1  and  C_12 
REMARK    2  A    between atoms: S_1  and  C_15 
REMARK    3  A    between atoms: N_5  and  C_9 
REMARK    4  A    between atoms: N_6  and  C_16 
REMARK    5  A    between atoms: N_6  and  C_19 
REMARK    6  A    between atoms: N_7  and  C_19 
REMARK    7  A    between atoms: N_8  and  C_20 
REMARK    8  A    between atoms: C_9  and  C_10 
REMARK    9  A    between atoms: C_11  and  C_12 
REMARK   10  A    between atoms: C_15  and  C_16 
ROOT
HETATM    1  C   UNK N   1       5.056  -2.576   0.203  0.00  0.00     0.093 C 
ENDROOT
BRANCH   1   2
HETATM    2  S   UNK N   1       6.493  -1.806   1.015  0.00  0.00    -0.161 SA
BRANCH   2   3
HETATM    3  C   UNK N   1       7.716  -2.422  -0.196  0.00  0.00     0.139 C 
BRANCH   3   4
HETATM    4  C   UNK N   1       8.967  -1.604  -0.117  0.00  0.00     0.062 A 
HETATM    5  O   UNK N   1      10.159  -2.084   0.154  0.00  0.00    -0.317 OA
HETATM    6  C   UNK N   1      11.014  -1.088   0.179  0.00  0.00     0.081 A 
HETATM    7  C   UNK N   1      10.360   0.102  -0.079  0.00  0.00     0.037 A 
HETATM    8  C   UNK N   1       9.034  -0.234  -0.282  0.00  0.00     0.036 A 
BRANCH   6   9
HETATM    9  C   UNK N   1      12.470  -1.225   0.519  0.00  0.00     0.335 C 
BRANCH   9  10
HETATM   10  N   UNK N   1      13.307  -0.424  -0.369  0.00  0.00     0.086 N 
HETATM   11  C   UNK N   1      13.355   0.929   0.166  0.00  0.00     0.309 C 
HETATM   12  C   UNK N   1      14.659  -0.942  -0.272  0.00  0.00     0.309 C 
ENDBRANCH   9  10
ENDBRANCH   6   9
ENDBRANCH   3   4
ENDBRANCH   2   3
ENDBRANCH   1   2
BRANCH   1  13
HETATM   13  C   UNK N   1       4.366  -1.578  -0.709  0.00  0.00     0.131 C 
BRANCH  13  14
HETATM   14  N   UNK N   1       2.971  -1.440  -0.360  0.00  0.00    -0.374 N 
HETATM   15  H   UNK N   1       2.418  -2.248  -0.255  0.00  0.00     0.161 HD
BRANCH  14  16
HETATM   16  C   UNK N   1       2.378  -0.162  -0.165  0.00  0.00     0.118 C 
HETATM   17  C   UNK N   1       1.027  -0.144   0.008  0.00  0.00     0.215 C 
BRANCH  16  18
HETATM   18  N   UNK N   1       3.241   0.982  -0.208  0.00  0.00    -0.380 N 
HETATM   19  C   UNK N   1       2.951   2.328   0.200  0.00  0.00     0.147 C 
HETATM   20  H   UNK N   1       4.146   0.825  -0.563  0.00  0.00     0.160 HD
ENDBRANCH  16  18
BRANCH  17  21
HETATM   21  N   UNK N   1       0.108   0.945   0.132  0.00  0.00    -0.124 N 
HETATM   22  O   UNK N   1      -1.167   0.665   0.294  0.00  0.00    -0.532 OA
HETATM   23  O   UNK N   1       0.422   2.064  -0.114  0.00  0.00    -0.532 OA
ENDBRANCH  17  21
ENDBRANCH  14  16
ENDBRANCH  13  14
ENDBRANCH   1  13
TORSDOF 10
