REMARK  9 active torsions:
REMARK  status: ('A' for Active; 'I' for Inactive)
REMARK    1  A    between atoms: O_1  and  C_7 
REMARK    2  A    between atoms: O_1  and  C_10 
REMARK    3  A    between atoms: O_2  and  C_4 
REMARK    4  A    between atoms: N_3  and  C_5 
REMARK    5  A    between atoms: N_3  and  C_6 
REMARK    6  A    between atoms: C_4  and  C_5 
REMARK    7  A    between atoms: C_4  and  C_7 
REMARK    8  A    between atoms: C_11  and  C_12 
REMARK    9  A    between atoms: C_12  and  C_17 
ROOT
HETATM    1  O   UNK N   1       4.267  -0.575   0.130  0.00  0.00    -0.348 OA
ENDROOT
BRANCH   1   2
HETATM    2  C   UNK N   1       5.249   0.381  -0.030  0.00  0.00     0.209 C 
BRANCH   2   3
HETATM    3  C   UNK N   1       4.627   1.772   0.050  0.00  0.00     0.159 C 
BRANCH   3   4
HETATM    4  O   UNK N   1       3.469   1.818  -0.728  0.00  0.00    -0.392 OA
HETATM    5  H   UNK N   1       3.094   2.531  -1.269  0.00  0.00     0.210 HD
ENDBRANCH   3   4
BRANCH   3   6
HETATM    6  C   UNK N   1       5.597   2.817  -0.473  0.00  0.00     0.147 C 
BRANCH   6   7
HETATM    7  N   UNK N   1       6.620   3.110   0.517  0.00  0.00    -0.415 N 
HETATM    8  H   UNK N   1       6.543   2.988   1.526  0.00  0.00     0.153 HD
BRANCH   7   9
HETATM    9  C   UNK N   1       7.773   3.609  -0.212  0.00  0.00     0.068 C 
HETATM   10  C   UNK N   1       8.949   2.684   0.022  0.00  0.00     0.031 C 
HETATM   11  C   UNK N   1       8.125   5.002   0.269  0.00  0.00     0.031 C 
ENDBRANCH   7   9
ENDBRANCH   6   7
ENDBRANCH   3   6
ENDBRANCH   2   3
ENDBRANCH   1   2
BRANCH   1  12
HETATM   12  C   UNK N   1       4.480  -1.913   0.080  0.00  0.00     0.075 A 
HETATM   13  C   UNK N   1       3.381  -2.817   0.082  0.00  0.00    -0.021 A 
HETATM   14  C   UNK N   1       3.634  -4.193   0.031  0.00  0.00     0.010 A 
HETATM   15  C   UNK N   1       4.938  -4.684  -0.022  0.00  0.00     0.001 A 
HETATM   16  C   UNK N   1       6.016  -3.800  -0.026  0.00  0.00     0.003 A 
HETATM   17  C   UNK N   1       5.790  -2.424   0.024  0.00  0.00     0.037 A 
BRANCH  13  18
HETATM   18  C   UNK N   1       1.926  -2.405   0.119  0.00  0.00     0.067 C 
BRANCH  18  19
HETATM   19  C   UNK N   1       1.629  -0.941   0.086  0.00  0.00    -0.032 C 
HETATM   20  C   UNK N   1       0.371  -0.514   0.081  0.00  0.00     0.007 C 
ENDBRANCH  18  19
ENDBRANCH  13  18
ENDBRANCH   1  12
TORSDOF 9
