REMARK  7 active torsions:
REMARK  status: ('A' for Active; 'I' for Inactive)
REMARK    1  A    between atoms: O_1  and  C_7 
REMARK    2  A    between atoms: O_2  and  C_14 
REMARK    3  A    between atoms: O_3  and  C_15 
REMARK    4  A    between atoms: N_4  and  C_5 
REMARK    5  A    between atoms: N_4  and  C_6 
REMARK    6  A    between atoms: C_6  and  C_7 
REMARK    7  A    between atoms: C_7  and  C_11 
ROOT
HETATM    1  C   UNK N   1       2.709  -0.839  -0.248  0.00  0.00    -0.023 A 
HETATM    2  C   UNK N   1       3.931  -1.524  -0.310  0.00  0.00     0.046 A 
HETATM    3  C   UNK N   1       1.532  -1.557   0.021  0.00  0.00     0.046 A 
HETATM    4  C   UNK N   1       1.581  -2.940   0.226  0.00  0.00     0.069 A 
HETATM    5  C   UNK N   1       3.981  -2.902  -0.089  0.00  0.00     0.069 A 
HETATM    6  C   UNK N   1       2.807  -3.611   0.174  0.00  0.00     0.073 A 
ENDROOT
BRANCH   1   7
HETATM    7  C   UNK N   1       2.673   0.635  -0.538  0.00  0.00     0.168 C 
BRANCH   7   8
HETATM    8  O   UNK N   1       1.390   1.171  -0.393  0.00  0.00    -0.389 OA
HETATM    9  H   UNK N   1       1.266   2.128  -0.292  0.00  0.00     0.210 HD
ENDBRANCH   7   8
BRANCH   7  10
HETATM   10  C   UNK N   1       3.660   1.425   0.302  0.00  0.00     0.151 C 
BRANCH  10  11
HETATM   11  N   UNK N   1       4.322   2.395  -0.568  0.00  0.00    -0.411 N 
HETATM   12  H   UNK N   1       4.054   2.565  -1.537  0.00  0.00     0.154 HD
BRANCH  11  13
HETATM   13  C   UNK N   1       5.416   3.098   0.110  0.00  0.00     0.014 C 
HETATM   14  C   UNK N   1       6.121   3.970  -0.908  0.00  0.00     0.037 C 
HETATM   15  C   UNK N   1       4.877   3.994   1.212  0.00  0.00     0.037 C 
HETATM   16  C   UNK N   1       6.439   2.126   0.682  0.00  0.00     0.037 C 
ENDBRANCH  11  13
ENDBRANCH  10  11
ENDBRANCH   7  10
ENDBRANCH   1   7
BRANCH   5  17
HETATM   17  O   UNK N   1       5.159  -3.546  -0.134  0.00  0.00    -0.361 OA
HETATM   18  H   UNK N   1       5.181  -4.482  -0.166  0.00  0.00     0.217 HD
ENDBRANCH   5  17
BRANCH   4  19
HETATM   19  O   UNK N   1       0.451  -3.625   0.462  0.00  0.00    -0.361 OA
HETATM   20  H   UNK N   1      -0.357  -3.181   0.627  0.00  0.00     0.217 HD
ENDBRANCH   4  19
TORSDOF 7
