REMARK  2 active torsions:
REMARK  status: ('A' for Active; 'I' for Inactive)
REMARK    1  A    between atoms: S_3  and  N_11 
REMARK    2  A    between atoms: S_3  and  C_14 
ROOT
HETATM    1 Cl   UNK N   1       1.816   2.153  -0.183  0.00  0.00    -0.083 Cl
HETATM    2  S   UNK N   1       7.000  -1.428   0.100  0.00  0.00     0.265 S 
HETATM    3  O   UNK N   1       7.157  -2.340   1.325  0.00  0.00    -0.200 OA
HETATM    4  O   UNK N   1       7.279  -2.324  -1.116  0.00  0.00    -0.200 OA
HETATM    5  N   UNK N   1       6.927   1.558  -0.155  0.00  0.00    -0.351 N 
HETATM    6  N   UNK N   1       8.360  -0.342   0.164  0.00  0.00    -0.277 N 
ATOM      7  HN  UNK N   1       9.296  -0.720   0.312  1.00  0.00     0.179 HD
HETATM    8  C   UNK N   1       5.529  -0.466   0.023  0.00  0.00     0.108 A 
HETATM    9  C   UNK N   1       5.652   0.919  -0.116  0.00  0.00     0.058 A 
HETATM   10  C   UNK N   1       3.116  -0.284   0.059  0.00  0.00     0.102 A 
HETATM   11  C   UNK N   1       4.274  -1.066   0.114  0.00  0.00     0.054 A 
HETATM   12  C   UNK N   1       4.495   1.701  -0.194  0.00  0.00     0.056 A 
HETATM   13  C   UNK N   1       3.228   1.112  -0.110  0.00  0.00     0.059 A 
HETATM   14  C   UNK N   1       8.205   0.932   0.029  0.00  0.00     0.192 A 
HETATM   15  H   UNK N   1       6.930   2.528  -0.325  0.00  0.00     0.166 HD
ENDROOT
BRANCH  10  16
HETATM   16  S   UNK N   1       1.527  -1.092   0.277  0.00  0.00     0.258 S 
HETATM   17  O   UNK N   1       1.576  -2.591  -0.055  0.00  0.00    -0.201 OA
HETATM   18  O   UNK N   1       1.107  -1.116   1.754  0.00  0.00    -0.201 OA
BRANCH  16  19
HETATM   19  N   UNK N   1       0.114  -0.486  -0.588  0.00  0.00    -0.324 N 
HETATM   20  H   UNK N   1       0.009   0.397  -1.088  0.00  0.00     0.169 HD
HETATM   21  H   UNK N   1      -0.703  -1.097  -0.588  0.00  0.00     0.169 HD
ENDBRANCH  16  19
ENDBRANCH  10  16
TORSDOF 2
