REMARK  4 active torsions:
REMARK  status: ('A' for Active; 'I' for Inactive)
REMARK    1  A    between atoms: O_3  and  N_9 
REMARK    2  A    between atoms: C_13  and  O_3 
REMARK    3  A    between atoms: O_4  and  N_10 
REMARK    4  A    between atoms: C_14  and  O_4 
ROOT
HETATM    1  O   UNK N   1       5.085  -1.159   0.882  0.00  0.00    -0.378 OA
HETATM    2  O   UNK N   1       3.339   1.168   0.464  0.00  0.00    -0.378 OA
HETATM    3  C   UNK N   1       4.159   0.535  -0.488  0.00  0.00     0.186 C 
HETATM    4  C   UNK N   1       4.129  -0.932  -0.137  0.00  0.00     0.186 C 
HETATM    5  C   UNK N   1       5.615   0.817  -0.281  0.00  0.00     0.214 C 
HETATM    6  C   UNK N   1       2.755  -1.118   0.452  0.00  0.00     0.214 C 
HETATM    7  C   UNK N   1       5.907  -0.015   0.941  0.00  0.00     0.205 C 
HETATM    8  C   UNK N   1       2.229   0.306   0.552  0.00  0.00     0.205 C 
ENDROOT
BRANCH   5   9
HETATM    9  O   UNK N   1       5.886   2.155  -0.073  0.00  0.00    -0.211 OA
BRANCH   9  10
HETATM   10  N   UNK N   1       7.124   2.613   0.044  0.00  0.00     0.005 N 
HETATM   11  O   UNK N   1       7.324   3.881   0.324  0.00  0.00    -0.511 OA
HETATM   12  O   UNK N   1       8.063   1.894  -0.136  0.00  0.00    -0.511 OA
ENDBRANCH   9  10
ENDBRANCH   5   9
BRANCH   6  13
HETATM   13  O   UNK N   1       1.967  -1.931  -0.339  0.00  0.00    -0.211 OA
BRANCH  13  14
HETATM   14  N   UNK N   1       0.745  -2.305   0.009  0.00  0.00     0.005 N 
HETATM   15  O   UNK N   1       0.156  -3.280  -0.647  0.00  0.00    -0.511 OA
HETATM   16  O   UNK N   1       0.196  -1.811   0.949  0.00  0.00    -0.511 OA
ENDBRANCH  13  14
ENDBRANCH   6  13
TORSDOF 4
