REMARK  1 active torsions:
REMARK  status: ('A' for Active; 'I' for Inactive)
REMARK    1  A    between atoms: C_14  and  C_20 
ROOT
HETATM    1  O   UNK N   1       4.623  -2.094  -0.000  0.00  0.00    -0.267 OA
HETATM    2  N   UNK N   1       5.719  -0.125   0.000  0.00  0.00    -0.274 N 
HETATM    3  N   UNK N   1       4.438   1.872  -0.000  0.00  0.00    -0.350 N 
ATOM      4  HN  UNK N   1       4.399   2.891  -0.000  1.00  0.00     0.166 HD
HETATM    5  C   UNK N   1       5.648   1.251  -0.000  0.00  0.00     0.120 A 
HETATM    6  C   UNK N   1       6.826   2.013   0.000  0.00  0.00    -0.017 A 
HETATM    7  C   UNK N   1       4.562  -0.873  -0.000  0.00  0.00     0.268 A 
HETATM    8  C   UNK N   1       3.314  -0.229  -0.000  0.00  0.00     0.094 A 
HETATM    9  C   UNK N   1       6.930  -0.756   0.000  0.00  0.00     0.102 A 
HETATM   10  C   UNK N   1       8.060   1.366   0.000  0.00  0.00     0.012 A 
HETATM   11  C   UNK N   1       3.283   1.164  -0.000  0.00  0.00     0.110 A 
HETATM   12  C   UNK N   1       8.115  -0.025   0.000  0.00  0.00     0.018 A 
HETATM   13  C   UNK N   1       6.781   3.503  -0.000  0.00  0.00     0.052 C 
ENDROOT
BRANCH   8  14
HETATM   14  C   UNK N   1       2.049  -0.984  -0.000  0.00  0.00     0.151 A 
HETATM   15  N   UNK N   1       1.950  -2.324   0.000  0.00  0.00    -0.271 N 
HETATM   16  N   UNK N   1       0.654  -2.583   0.000  0.00  0.00    -0.225 N 
ATOM     17  HN  UNK N   1       2.715  -2.999   0.000  1.00  0.00     0.190 HD
HETATM   18  N   UNK N   1      -0.022  -1.444   0.000  0.00  0.00    -0.005 NA
HETATM   19  H   UNK N   1       0.253  -3.482   0.000  0.00  0.00     0.205 HD
HETATM   20  N   UNK N   1       0.826  -0.428  -0.000  0.00  0.00    -0.266 N 
ATOM     21  HN  UNK N   1       0.599   0.566  -0.000  1.00  0.00     0.186 HD
ENDBRANCH   8  14
TORSDOF 1
