REMARK  10 active torsions:
REMARK  status: ('A' for Active; 'I' for Inactive)
REMARK    1  A    between atoms: S_1  and  N_8 
REMARK    2  A    between atoms: S_1  and  C_13 
REMARK    3  A    between atoms: O_2  and  C_12 
REMARK    4  A    between atoms: O_2  and  C_19 
REMARK    5  A    between atoms: O_5  and  C_20 
REMARK    6  A    between atoms: N_7  and  C_9 
REMARK    7  A    between atoms: N_7  and  C_11 
REMARK    8  A    between atoms: C_9  and  C_10 
REMARK    9  A    between atoms: C_10  and  C_14 
REMARK   10  A    between atoms: C_16  and  C_20 
ROOT
HETATM    1  C   UNK N   1       5.033  -0.187  -0.153  0.00  0.00     0.065 A 
HETATM    2  C   UNK N   1       5.000   1.240  -0.063  0.00  0.00     0.125 A 
HETATM    3  C   UNK N   1       6.234   1.927   0.000  0.00  0.00     0.116 A 
HETATM    4  C   UNK N   1       6.269  -0.853  -0.145  0.00  0.00     0.050 A 
HETATM    5  C   UNK N   1       7.471  -0.155  -0.051  0.00  0.00     0.041 A 
HETATM    6  C   UNK N   1       7.445   1.236   0.008  0.00  0.00     0.046 A 
ENDROOT
BRANCH   2   7
HETATM    7  O   UNK N   1       3.876   2.022  -0.034  0.00  0.00    -0.307 OA
BRANCH   7   8
HETATM    8  C   UNK N   1       2.523   1.897  -0.139  0.00  0.00     0.076 A 
HETATM    9  C   UNK N   1       1.871   0.708  -0.482  0.00  0.00     0.037 A 
HETATM   10  C   UNK N   1       0.477   0.652  -0.572  0.00  0.00     0.003 A 
HETATM   11  C   UNK N   1      -0.283   1.796  -0.326  0.00  0.00     0.000 A 
HETATM   12  C   UNK N   1       0.354   2.993   0.005  0.00  0.00     0.003 A 
HETATM   13  C   UNK N   1       1.748   3.040   0.096  0.00  0.00     0.037 A 
ENDBRANCH   7   8
ENDBRANCH   2   7
BRANCH   1  14
HETATM   14  N   UNK N   1       3.855  -0.960  -0.255  0.00  0.00    -0.388 N 
HETATM   15  H   UNK N   1       3.012  -0.593   0.096  0.00  0.00     0.159 HD
BRANCH  14  16
HETATM   16  C   UNK N   1       3.850  -2.270  -0.859  0.00  0.00     0.120 C 
BRANCH  16  17
HETATM   17  C   UNK N   1       3.527  -3.337   0.160  0.00  0.00     0.019 C 
BRANCH  17  18
HETATM   18  C   UNK N   1       4.781  -4.145   0.413  0.00  0.00    -0.003 C 
HETATM   19  C   UNK N   1       4.415  -5.473   1.037  0.00  0.00     0.005 C 
ENDBRANCH  17  18
ENDBRANCH  16  17
ENDBRANCH  14  16
ENDBRANCH   1  14
BRANCH   3  20
HETATM   20  S   UNK N   1       6.275   3.723   0.065  0.00  0.00     0.259 S 
HETATM   21  O   UNK N   1       5.300   4.383  -0.921  0.00  0.00    -0.201 OA
HETATM   22  O   UNK N   1       7.623   4.302  -0.393  0.00  0.00    -0.201 OA
BRANCH  20  23
HETATM   23  N   UNK N   1       5.954   4.490   1.619  0.00  0.00    -0.324 N 
HETATM   24  H   UNK N   1       6.246   4.873   2.519  0.00  0.00     0.169 HD
HETATM   25  H   UNK N   1       4.942   4.619   1.619  0.00  0.00     0.169 HD
ENDBRANCH  20  23
ENDBRANCH   3  20
BRANCH   5  26
HETATM   26  C   UNK N   1       8.753  -0.885   0.000  0.00  0.00     0.176 C 
HETATM   27  O   UNK N   1       9.810  -0.274   0.058  0.00  0.00    -0.646 OA
BRANCH  26  28
HETATM   28  O   UNK N   1       8.766  -2.232   0.003  0.00  0.00    -0.773 OA
HETATM   29  H   UNK N   1       7.959  -2.709   0.006  0.00  0.00     0.167 HD
ENDBRANCH  26  28
ENDBRANCH   5  26
TORSDOF 10
