REMARK  4 active torsions:
REMARK  status: ('A' for Active; 'I' for Inactive)
REMARK    1  A    between atoms: N_3  and  C_4 
REMARK    2  A    between atoms: N_3  and  C_5 
REMARK    3  A    between atoms: C_4  and  C_7 
REMARK    4  A    between atoms: C_5  and  C_8 
ROOT
HETATM    1  N   UNK N   1       3.712   0.202   0.245  0.00  0.00     0.086 N 
HETATM    2  C   UNK N   1       3.708  -1.090  -0.433  0.00  0.00     0.310 C 
ENDROOT
BRANCH   1   3
HETATM    3  C   UNK N   1       4.882   0.940  -0.211  0.00  0.00     0.286 C 
BRANCH   3   4
HETATM    4  C   UNK N   1       6.153   0.385   0.411  0.00  0.00     0.144 C 
HETATM    5 Cl   UNK N   1       7.544   1.367  -0.104  0.00  0.00    -0.129 Cl
ENDBRANCH   3   4
ENDBRANCH   1   3
BRANCH   1   6
HETATM    6  C   UNK N   1       2.547   0.948  -0.212  0.00  0.00     0.286 C 
BRANCH   6   7
HETATM    7  C   UNK N   1       1.271   0.401   0.410  0.00  0.00     0.144 C 
HETATM    8 Cl   UNK N   1      -0.112   1.392  -0.105  0.00  0.00    -0.129 Cl
ENDBRANCH   6   7
ENDBRANCH   1   6
TORSDOF 4
