REMARK  12 active torsions:
REMARK  status: ('A' for Active; 'I' for Inactive)
REMARK    1  A    between atoms: O_1  and  C_9 
REMARK    2  A    between atoms: O_1  and  C_17 
REMARK    3  A    between atoms: O_2  and  C_13 
REMARK    4  A    between atoms: O_2  and  C_15 
REMARK    5  A    between atoms: N_4  and  C_6 
REMARK    6  A    between atoms: N_4  and  C_7 
REMARK    7  A    between atoms: N_4  and  C_8 
REMARK    8  A    between atoms: N_5  and  C_19 
REMARK    9  A    between atoms: C_6  and  C_9 
REMARK   10  A    between atoms: C_12  and  C_13 
REMARK   11  A    between atoms: C_12  and  C_14 
REMARK   12  A    between atoms: C_16  and  C_17 
ROOT
HETATM    1  C   UNK N   1       2.697   1.863  -0.066  0.00  0.00     0.095 A 
HETATM    2  C   UNK N   1       3.588  -0.405   0.051  0.00  0.00     0.042 A 
HETATM    3  C   UNK N   1       3.778   0.973  -0.010  0.00  0.00     0.056 A 
HETATM    4  C   UNK N   1       1.391   1.346  -0.068  0.00  0.00     0.059 A 
HETATM    5  C   UNK N   1       2.283  -0.916   0.052  0.00  0.00     0.020 A 
HETATM    6  C   UNK N   1       1.189  -0.041  -0.014  0.00  0.00     0.033 A 
ENDROOT
BRANCH   2   7
HETATM    7  C   UNK N   1       4.770  -1.279   0.178  0.00  0.00     0.293 C 
HETATM    8  O   UNK N   1       5.890  -0.776   0.174  0.00  0.00    -0.259 OA
BRANCH   7   9
HETATM    9  O   UNK N   1       4.630  -2.615   0.350  0.00  0.00    -0.316 OA
BRANCH   9  10
HETATM   10  C   UNK N   1       5.683  -3.383   0.797  0.00  0.00     0.209 C 
BRANCH  10  11
HETATM   11  C   UNK N   1       6.214  -4.279  -0.304  0.00  0.00     0.299 C 
BRANCH  11  12
HETATM   12  N   UNK N   1       7.571  -4.685   0.030  0.00  0.00     0.089 N 
BRANCH  12  13
HETATM   13  C   UNK N   1       7.792  -5.988  -0.578  0.00  0.00     0.268 C 
HETATM   14  C   UNK N   1       8.867  -6.746   0.180  0.00  0.00     0.037 C 
ENDBRANCH  12  13
BRANCH  12  15
HETATM   15  C   UNK N   1       8.472  -3.727  -0.602  0.00  0.00     0.268 C 
HETATM   16  C   UNK N   1       9.753  -3.596   0.201  0.00  0.00     0.037 C 
ENDBRANCH  12  15
ENDBRANCH  11  12
ENDBRANCH  10  11
ENDBRANCH   9  10
ENDBRANCH   7   9
ENDBRANCH   2   7
BRANCH   1  17
HETATM   17  O   UNK N   1       2.918   3.203  -0.104  0.00  0.00    -0.349 OA
BRANCH  17  18
HETATM   18  C   UNK N   1       4.205   3.703  -0.077  0.00  0.00     0.175 C 
BRANCH  18  19
HETATM   19  C   UNK N   1       4.240   5.211  -0.063  0.00  0.00     0.026 C 
BRANCH  19  20
HETATM   20  C   UNK N   1       5.700   5.615   0.002  0.00  0.00    -0.002 C 
HETATM   21  C   UNK N   1       5.834   7.121  -0.013  0.00  0.00     0.005 C 
ENDBRANCH  19  20
ENDBRANCH  18  19
ENDBRANCH  17  18
ENDBRANCH   1  17
BRANCH   4  22
HETATM   22  N   UNK N   1       0.279   2.213  -0.116  0.00  0.00    -0.397 N 
HETATM   23  H   UNK N   1       0.415   3.187  -0.149  0.00  0.00     0.156 HD
HETATM   24  H   UNK N   1      -0.633   1.843  -0.116  0.00  0.00     0.156 HD
ENDBRANCH   4  22
TORSDOF 12
