REMARK  1 active torsions:
REMARK  status: ('A' for Active; 'I' for Inactive)
REMARK    1  A    between atoms: C_13  and  C_17 
ROOT
HETATM    1 Cl   UNK N   1      -0.272  -0.588   0.229  0.00  0.00    -0.084 Cl
HETATM    2  N   UNK N   1       5.534  -2.198   0.091  0.00  0.00    -0.286 N 
HETATM    3  N   UNK N   1       5.955   0.884   0.055  0.00  0.00    -0.381 N 
ATOM      4  HN  UNK N   1       6.350   1.824   0.012  1.00  0.00     0.160 HD
HETATM    5  N   UNK N   1       7.747  -2.408   0.129  0.00  0.00    -0.286 N 
ATOM      6  HN  UNK N   1       8.737  -2.161   0.145  1.00  0.00     0.188 HD
HETATM    7  N   UNK N   1       7.253  -3.628   0.124  0.00  0.00    -0.287 N 
ATOM      8  HN  UNK N   1       7.785  -4.499   0.135  1.00  0.00     0.188 HD
HETATM    9  C   UNK N   1       4.166  -1.706   0.089  0.00  0.00     0.054 A 
HETATM   10  C   UNK N   1       3.775  -0.317   0.076  0.00  0.00     0.020 A 
HETATM   11  C   UNK N   1       6.714  -1.545   0.110  0.00  0.00     0.122 A 
HETATM   12  C   UNK N   1       4.671   0.926   0.027  0.00  0.00     0.053 A 
HETATM   13  C   UNK N   1       6.993  -0.101   0.130  0.00  0.00     0.198 A 
HETATM   14  C   UNK N   1       5.919  -3.511   0.103  0.00  0.00     0.100 A 
HETATM   15  C   UNK N   1       3.141  -2.680   0.110  0.00  0.00     0.033 A 
HETATM   16  C   UNK N   1       2.390  -0.062   0.127  0.00  0.00     0.040 A 
HETATM   17  C   UNK N   1       1.792  -2.364   0.142  0.00  0.00     0.026 A 
HETATM   18  C   UNK N   1       1.417  -1.041   0.162  0.00  0.00     0.035 A 
HETATM   19  C   UNK N   1       5.034  -4.715   0.108  0.00  0.00     0.091 C 
ENDROOT
BRANCH  12  20
HETATM   20  C   UNK N   1       4.079   2.346  -0.071  0.00  0.00     0.013 A 
HETATM   21  C   UNK N   1       4.878   3.535   0.041  0.00  0.00     0.046 A 
HETATM   22 Cl   UNK N   1       6.618   3.555   0.321  0.00  0.00    -0.083 Cl
HETATM   23  C   UNK N   1       4.277   4.797  -0.056  0.00  0.00     0.025 A 
HETATM   24  C   UNK N   1       2.909   4.929  -0.269  0.00  0.00     0.002 A 
HETATM   25  C   UNK N   1       2.120   3.796  -0.392  0.00  0.00     0.001 A 
HETATM   26  C   UNK N   1       2.701   2.536  -0.296  0.00  0.00     0.015 A 
ENDBRANCH  12  20
TORSDOF 1
