REMARK  3 active torsions:
REMARK  status: ('A' for Active; 'I' for Inactive)
REMARK    1  A    between atoms: O_2  and  C_14 
REMARK    2  A    between atoms: C_10  and  N_4 
REMARK    3  A    between atoms: C_13  and  C_14 
ROOT
HETATM    1  O   UNK N   1       1.653  -4.384  -0.518  0.00  0.00    -0.266 OA
HETATM    2  N   UNK N   1       4.430  -0.997   0.341  0.00  0.00    -0.300 N 
HETATM    3  N   UNK N   1       2.058  -0.497   0.284  0.00  0.00    -0.336 N 
HETATM    4  N   UNK N   1       4.250  -3.190  -0.126  0.00  0.00    -0.345 N 
ATOM      5  HN  UNK N   1       4.485  -4.165  -0.314  1.00  0.00     0.167 HD
HETATM    6  N   UNK N   1       0.675  -2.378  -0.179  0.00  0.00    -0.318 N 
ATOM      7  HN  UNK N   1      -0.257  -2.770  -0.311  1.00  0.00     0.169 HD
HETATM    8  C   UNK N   1       3.138  -1.313   0.179  0.00  0.00     0.144 A 
HETATM    9  C   UNK N   1       5.103  -2.164   0.152  0.00  0.00     0.188 A 
HETATM   10  C   UNK N   1       3.027  -2.626  -0.096  0.00  0.00     0.146 A 
HETATM   11  C   UNK N   1       1.780  -3.197  -0.281  0.00  0.00     0.277 A 
HETATM   12  C   UNK N   1       0.816  -1.041   0.099  0.00  0.00     0.185 A 
HETATM   13  H   UNK N   1       2.166   0.460   0.487  0.00  0.00     0.168 HD
ENDROOT
BRANCH   2  14
HETATM   14  C   UNK N   1       5.023   0.295   0.693  0.00  0.00     0.231 C 
HETATM   15  O   UNK N   1       4.037   1.299   0.807  0.00  0.00    -0.359 OA
HETATM   16  C   UNK N   1       4.377   2.295  -0.122  0.00  0.00     0.147 C 
HETATM   17  C   UNK N   1       5.862   2.200  -0.364  0.00  0.00     0.038 C 
HETATM   18  C   UNK N   1       6.053   0.723  -0.333  0.00  0.00     0.057 C 
BRANCH  16  19
HETATM   19  C   UNK N   1       4.005   3.659   0.434  0.00  0.00     0.196 C 
BRANCH  19  20
HETATM   20  O   UNK N   1       4.403   4.670  -0.443  0.00  0.00    -0.398 OA
HETATM   21  H   UNK N   1       5.150   4.781  -1.052  0.00  0.00     0.209 HD
ENDBRANCH  19  20
ENDBRANCH  16  19
ENDBRANCH   2  14
TORSDOF 3
