REMARK  2 active torsions:
REMARK  status: ('A' for Active; 'I' for Inactive)
REMARK    1  A    between atoms: N_3  and  C_8 
REMARK    2  A    between atoms: C_4  and  C_8 
ROOT
HETATM    1  S   UNK N   1       2.711  -3.517  -0.067  0.00  0.00    -0.086 SA
HETATM    2  N   UNK N   1       3.351  -0.381   0.262  0.00  0.00    -0.344 N 
HETATM    3  C   UNK N   1       4.456  -1.294   0.097  0.00  0.00     0.052 A 
HETATM    4  C   UNK N   1       1.979  -0.787   0.113  0.00  0.00     0.052 A 
HETATM    5  C   UNK N   1       4.283  -2.687  -0.091  0.00  0.00     0.032 A 
HETATM    6  C   UNK N   1       1.588  -2.139  -0.059  0.00  0.00     0.032 A 
HETATM    7  C   UNK N   1       5.772  -0.803   0.109  0.00  0.00     0.031 A 
HETATM    8  C   UNK N   1       0.964   0.193   0.144  0.00  0.00     0.031 A 
HETATM    9  C   UNK N   1       5.402  -3.513  -0.263  0.00  0.00     0.021 A 
HETATM   10  C   UNK N   1       0.232  -2.463  -0.187  0.00  0.00     0.021 A 
HETATM   11  C   UNK N   1       6.877  -1.628  -0.072  0.00  0.00     0.002 A 
HETATM   12  C   UNK N   1      -0.383  -0.147   0.006  0.00  0.00     0.002 A 
HETATM   13  C   UNK N   1       6.692  -2.990  -0.262  0.00  0.00     0.002 A 
HETATM   14  C   UNK N   1      -0.749  -1.478  -0.159  0.00  0.00     0.002 A 
ENDROOT
BRANCH   2  15
HETATM   15  C   UNK N   1       3.599   1.012   0.669  0.00  0.00     0.136 C 
BRANCH  15  16
HETATM   16  C   UNK N   1       4.472   1.834  -0.284  0.00  0.00     0.034 C 
HETATM   17  C   UNK N   1       3.994   3.265  -0.360  0.00  0.00     0.038 C 
HETATM   18  C   UNK N   1       5.270   4.099  -0.457  0.00  0.00     0.272 C 
HETATM   19  N   UNK N   1       6.405   3.197  -0.307  0.00  0.00     0.084 N 
HETATM   20  C   UNK N   1       5.846   2.017   0.317  0.00  0.00     0.278 C 
HETATM   21  C   UNK N   1       7.339   3.784   0.636  0.00  0.00     0.309 C 
ENDBRANCH  15  16
ENDBRANCH   2  15
TORSDOF 2
