REMARK  7 active torsions:
REMARK  status: ('A' for Active; 'I' for Inactive)
REMARK    1  A    between atoms: O_3  and  C_13 
REMARK    2  A    between atoms: O_3  and  C_18 
REMARK    3  A    between atoms: O_5  and  C_19 
REMARK    4  A    between atoms: C_7  and  C_9 
REMARK    5  A    between atoms: C_8  and  C_9 
REMARK    6  A    between atoms: C_8  and  C_10 
REMARK    7  A    between atoms: C_18  and  C_19 
ROOT
HETATM    1 Cl   UNK N   1       0.123   1.410  -0.102  0.00  0.00    -0.081 Cl
HETATM    2 Cl   UNK N   1       0.382  -1.731  -0.092  0.00  0.00    -0.080 Cl
HETATM    3  C   UNK N   1       2.925   1.478  -0.054  0.00  0.00     0.038 A 
HETATM    4  C   UNK N   1       1.738   0.684  -0.079  0.00  0.00     0.072 A 
HETATM    5  C   UNK N   1       4.158   0.816  -0.034  0.00  0.00     0.020 A 
HETATM    6  C   UNK N   1       3.092  -1.353  -0.037  0.00  0.00     0.092 A 
HETATM    7  C   UNK N   1       1.835  -0.729  -0.076  0.00  0.00     0.090 A 
HETATM    8  C   UNK N   1       4.246  -0.566  -0.022  0.00  0.00     0.039 A 
ENDROOT
BRANCH   3   9
HETATM    9  C   UNK N   1       2.910   2.990  -0.017  0.00  0.00     0.189 C 
HETATM   10  O   UNK N   1       1.839   3.572   0.068  0.00  0.00    -0.287 OA
BRANCH   9  11
HETATM   11  C   UNK N   1       4.150   3.841  -0.044  0.00  0.00    -0.017 C 
HETATM   12  C   UNK N   1       5.368   3.316  -0.227  0.00  0.00     0.023 C 
BRANCH  11  13
HETATM   13  C   UNK N   1       3.998   5.336   0.135  0.00  0.00     0.037 C 
HETATM   14  C   UNK N   1       5.310   6.114   0.165  0.00  0.00     0.010 C 
ENDBRANCH  11  13
ENDBRANCH   9  11
ENDBRANCH   3   9
BRANCH   6  15
HETATM   15  O   UNK N   1       3.182  -2.706  -0.003  0.00  0.00    -0.339 OA
BRANCH  15  16
HETATM   16  C   UNK N   1       4.372  -3.354   0.264  0.00  0.00     0.285 C 
BRANCH  16  17
HETATM   17  C   UNK N   1       4.248  -4.822   0.046  0.00  0.00     0.164 C 
HETATM   18  O   UNK N   1       3.400  -5.465   0.643  0.00  0.00    -0.648 OA
BRANCH  17  19
HETATM   19  O   UNK N   1       5.102  -5.445  -0.786  0.00  0.00    -0.775 OA
HETATM   20  H   UNK N   1       5.024  -6.178  -1.365  0.00  0.00     0.167 HD
ENDBRANCH  17  19
ENDBRANCH  16  17
ENDBRANCH  15  16
ENDBRANCH   6  15
TORSDOF 7
