REMARK  7 active torsions:
REMARK  status: ('A' for Active; 'I' for Inactive)
REMARK    1  A    between atoms: O_3  and  C_13 
REMARK    2  A    between atoms: N_5  and  C_11 
REMARK    3  A    between atoms: C_6  and  C_13 
REMARK    4  A    between atoms: C_11  and  C_12 
REMARK    5  A    between atoms: C_12  and  C_14 
REMARK    6  A    between atoms: C_15  and  C_16 
REMARK    7  A    between atoms: C_15  and  C_17 
ROOT
HETATM    1  C   UNK N   1       4.730  -0.973  -0.526  0.00  0.00    -0.011 C 
HETATM    2  C   UNK N   1       5.694  -1.889  -0.320  0.00  0.00    -0.005 C 
ENDROOT
BRANCH   1   3
HETATM    3  C   UNK N   1       3.254  -1.114  -0.648  0.00  0.00     0.058 C 
BRANCH   3   4
HETATM    4  C   UNK N   1       2.590  -0.108   0.289  0.00  0.00     0.276 C 
BRANCH   4   5
HETATM    5  N   UNK N   1       2.965   1.252  -0.080  0.00  0.00     0.089 N 
HETATM    6  C   UNK N   1       1.816   2.121   0.150  0.00  0.00     0.287 C 
HETATM    7  C   UNK N   1       2.153   3.536  -0.325  0.00  0.00     0.112 C 
HETATM    8  C   UNK N   1       3.365   4.060   0.455  0.00  0.00     0.019 C 
HETATM    9  C   UNK N   1       4.529   3.078   0.359  0.00  0.00     0.031 C 
HETATM   10  C   UNK N   1       4.058   1.692   0.790  0.00  0.00     0.272 C 
BRANCH   7  11
HETATM   11  C   UNK N   1       0.958   4.433  -0.181  0.00  0.00     0.145 C 
HETATM   12  O   UNK N   1      -0.075   4.161  -0.773  0.00  0.00    -0.650 OA
BRANCH  11  13
HETATM   13  O   UNK N   1       1.014   5.542   0.581  0.00  0.00    -0.776 OA
HETATM   14  H   UNK N   1       1.702   5.894   1.112  0.00  0.00     0.167 HD
ENDBRANCH  11  13
ENDBRANCH   7  11
ENDBRANCH   4   5
ENDBRANCH   3   4
ENDBRANCH   1   3
BRANCH   2  15
HETATM   15  C   UNK N   1       7.083  -1.318  -0.299  0.00  0.00     0.022 A 
HETATM   16  S   UNK N   1       7.459   0.196  -0.890  0.00  0.00    -0.101 SA
HETATM   17  C   UNK N   1       9.074   0.280  -0.536  0.00  0.00     0.051 A 
HETATM   18  C   UNK N   1       9.387  -0.920   0.110  0.00  0.00     0.015 A 
HETATM   19  C   UNK N   1       8.285  -1.812   0.247  0.00  0.00    -0.044 A 
HETATM   20  C   UNK N   1       8.442  -3.080   1.005  0.00  0.00     0.049 C 
ENDBRANCH   2  15
BRANCH   2  21
HETATM   21  C   UNK N   1       5.418  -3.370  -0.203  0.00  0.00     0.022 A 
HETATM   22  S   UNK N   1       6.482  -4.548  -0.700  0.00  0.00    -0.101 SA
HETATM   23  C   UNK N   1       5.618  -5.922  -0.369  0.00  0.00     0.051 A 
HETATM   24  C   UNK N   1       4.402  -5.489   0.164  0.00  0.00     0.015 A 
HETATM   25  C   UNK N   1       4.278  -4.075   0.252  0.00  0.00    -0.044 A 
HETATM   26  C   UNK N   1       3.053  -3.479   0.845  0.00  0.00     0.049 C 
ENDBRANCH   2  21
TORSDOF 7
