REMARK  5 active torsions:
REMARK  status: ('A' for Active; 'I' for Inactive)
REMARK    1  A    between atoms: S_1  and  C_10 
REMARK    2  A    between atoms: S_1  and  C_12 
REMARK    3  A    between atoms: N_6  and  C_11 
REMARK    4  A    between atoms: N_9  and  C_14 
REMARK    5  A    between atoms: C_10  and  C_11 
ROOT
HETATM    1  N   UNK N   1       3.001   1.582  -0.168  0.00  0.00    -0.316 N 
HETATM    2  N   UNK N   1       2.236   3.672   0.054  0.00  0.00    -0.352 N 
ATOM      3  HN  UNK N   1       1.596   4.460   0.147  1.00  0.00     0.166 HD
HETATM    4  C   UNK N   1       1.911   2.367  -0.071  0.00  0.00     0.081 A 
HETATM    5  C   UNK N   1       4.051   2.421  -0.111  0.00  0.00     0.192 A 
HETATM    6  C   UNK N   1       3.588   3.714   0.029  0.00  0.00     0.144 A 
HETATM    7  C   UNK N   1       0.505   1.873  -0.108  0.00  0.00     0.089 C 
ENDROOT
BRANCH   1   8
HETATM    8  C   UNK N   1       3.036   0.137  -0.333  0.00  0.00     0.147 C 
BRANCH   8   9
HETATM    9  C   UNK N   1       2.364  -0.598   0.847  0.00  0.00     0.160 C 
BRANCH   9  10
HETATM   10  S   UNK N   1       2.294  -2.448   0.700  0.00  0.00     0.145 S 
HETATM   11  O   UNK N   1       3.585  -2.401  -0.129  0.00  0.00    -0.228 OA
HETATM   12  O   UNK N   1       1.339  -1.908  -0.378  0.00  0.00    -0.228 OA
BRANCH  10  13
HETATM   13  C   UNK N   1       1.852  -3.799  -0.433  0.00  0.00     0.136 C 
HETATM   14  C   UNK N   1       1.020  -4.854   0.261  0.00  0.00     0.021 C 
ENDBRANCH  10  13
ENDBRANCH   9  10
ENDBRANCH   8   9
ENDBRANCH   1   8
BRANCH   5  15
HETATM   15  N   UNK N   1       5.418   2.039  -0.197  0.00  0.00    -0.096 N 
HETATM   16  O   UNK N   1       6.360   2.955  -0.134  0.00  0.00    -0.530 OA
HETATM   17  O   UNK N   1       5.723   0.893  -0.337  0.00  0.00    -0.530 OA
ENDBRANCH   5  15
TORSDOF 5
