REMARK  1 active torsions:
REMARK  status: ('A' for Active; 'I' for Inactive)
REMARK    1  A    between atoms: N_1  and  C_2 
ROOT
HETATM    1  C   UNK N   1       3.000   0.944  -0.147  0.00  0.00     0.024 C 
HETATM    2  C   UNK N   1       4.478  -1.084   0.037  0.00  0.00    -0.012 C 
HETATM    3  C   UNK N   1       2.308  -1.216  -1.237  0.00  0.00    -0.012 C 
HETATM    4  C   UNK N   1       2.284  -1.006   1.273  0.00  0.00    -0.012 C 
HETATM    5  C   UNK N   1       4.453   0.448  -0.094  0.00  0.00     0.035 C 
HETATM    6  C   UNK N   1       2.294   0.318  -1.359  0.00  0.00     0.035 C 
HETATM    7  C   UNK N   1       2.268   0.526   1.138  0.00  0.00     0.035 C 
HETATM    8  C   UNK N   1       3.764  -1.706  -1.175  0.00  0.00     0.009 C 
HETATM    9  C   UNK N   1       3.742  -1.492   1.324  0.00  0.00     0.009 C 
HETATM   10  C   UNK N   1       1.583  -1.629   0.054  0.00  0.00     0.009 C 
ENDROOT
BRANCH   1  11
HETATM   11  N   UNK N   1       2.985   2.392  -0.264  0.00  0.00    -0.422 N 
HETATM   12  H   UNK N   1       3.861   2.909  -0.346  0.00  0.00     0.150 HD
HETATM   13  H   UNK N   1       2.097   2.893  -0.264  0.00  0.00     0.150 HD
ENDBRANCH   1  11
TORSDOF 1
