REMARK  4 active torsions:
REMARK  status: ('A' for Active; 'I' for Inactive)
REMARK    1  A    between atoms: O_1  and  C_11 
REMARK    2  A    between atoms: N_4  and  C_8 
REMARK    3  A    between atoms: N_7  and  C_10 
REMARK    4  A    between atoms: C_8  and  C_11 
ROOT
HETATM    1  N   UNK N   1       2.569   0.737  -0.000  0.00  0.00    -0.315 N 
HETATM    2  N   UNK N   1       2.159   2.947   0.000  0.00  0.00    -0.352 N 
ATOM      3  HN  UNK N   1       1.652   3.833   0.000  1.00  0.00     0.166 HD
HETATM    4  C   UNK N   1       1.630   1.709  -0.000  0.00  0.00     0.081 A 
HETATM    5  C   UNK N   1       3.755   1.417   0.000  0.00  0.00     0.193 A 
HETATM    6  C   UNK N   1       3.493   2.774   0.000  0.00  0.00     0.144 A 
HETATM    7  C   UNK N   1       0.158   1.460  -0.000  0.00  0.00     0.089 C 
ENDROOT
BRANCH   1   8
HETATM    8  C   UNK N   1       2.148  -0.678  -0.000  0.00  0.00     0.158 C 
BRANCH   8   9
HETATM    9  C   UNK N   1       3.197  -1.760   0.000  0.00  0.00     0.184 C 
BRANCH   9  10
HETATM   10  O   UNK N   1       2.558  -2.999   0.000  0.00  0.00    -0.399 OA
HETATM   11  H   UNK N   1       1.589  -3.046   0.000  0.00  0.00     0.209 HD
ENDBRANCH   9  10
ENDBRANCH   8   9
ENDBRANCH   1   8
BRANCH   5  12
HETATM   12  N   UNK N   1       5.086   0.898  -0.000  0.00  0.00    -0.096 N 
HETATM   13  O   UNK N   1       6.102   1.735   0.000  0.00  0.00    -0.530 OA
HETATM   14  O   UNK N   1       5.303  -0.270  -0.000  0.00  0.00    -0.530 OA
ENDBRANCH   5  12
TORSDOF 4
