REMARK  0 active torsions:
REMARK  status: ('A' for Active; 'I' for Inactive)
ROOT
HETATM    1  S   UNK N   1       0.479   2.867   0.499  0.00  0.00    -0.098 SA
HETATM    2  O   UNK N   1       2.770   4.789   0.269  0.00  0.00    -0.291 OA
HETATM    3  N   UNK N   1       3.377  -3.763  -0.177  0.00  0.00     0.084 N 
HETATM    4  C   UNK N   1       3.477  -0.939  -0.598  0.00  0.00    -0.065 C 
HETATM    5  C   UNK N   1       4.698  -1.793  -0.819  0.00  0.00     0.065 C 
HETATM    6  C   UNK N   1       2.198  -1.706  -0.796  0.00  0.00     0.065 C 
HETATM    7  C   UNK N   1       4.606  -3.014   0.098  0.00  0.00     0.276 C 
HETATM    8  C   UNK N   1       2.216  -2.924   0.126  0.00  0.00     0.276 C 
HETATM    9  C   UNK N   1       3.529   0.414  -0.272  0.00  0.00    -0.011 C 
HETATM   10  C   UNK N   1       4.896   1.082  -0.054  0.00  0.00    -0.018 A 
HETATM   11  C   UNK N   1       2.222   1.186  -0.032  0.00  0.00    -0.004 A 
HETATM   12  C   UNK N   1       5.183   2.458  -0.285  0.00  0.00    -0.040 A 
HETATM   13  C   UNK N   1       3.342  -4.891   0.735  0.00  0.00     0.309 C 
HETATM   14  C   UNK N   1       2.066   2.579   0.120  0.00  0.00     0.062 A 
HETATM   15  C   UNK N   1       4.228   3.400  -0.898  0.00  0.00     0.123 C 
HETATM   16  C   UNK N   1       3.031   3.649  -0.080  0.00  0.00     0.171 C 
HETATM   17  C   UNK N   1       5.960   0.289   0.431  0.00  0.00     0.013 A 
HETATM   18  C   UNK N   1       0.973   0.511   0.178  0.00  0.00     0.021 A 
HETATM   19  C   UNK N   1       6.466   2.967  -0.040  0.00  0.00     0.008 A 
HETATM   20  C   UNK N   1      -0.116   1.332   0.481  0.00  0.00     0.051 A 
HETATM   21  C   UNK N   1       7.231   0.807   0.671  0.00  0.00     0.001 A 
HETATM   22  C   UNK N   1       7.483   2.151   0.441  0.00  0.00     0.001 A 
ENDROOT
TORSDOF 0
