REMARK  9 active torsions:
REMARK  status: ('A' for Active; 'I' for Inactive)
REMARK    1  A    between atoms: S_1  and  C_17 
REMARK    2  A    between atoms: S_1  and  C_18 
REMARK    3  A    between atoms: S_2  and  N_6 
REMARK    4  A    between atoms: S_2  and  N_13 
REMARK    5  A    between atoms: N_10  and  C_19 
REMARK    6  A    between atoms: N_11  and  C_22 
REMARK       I    between atoms: N_14  and  C_23 
REMARK       I    between atoms: N_15  and  C_23 
REMARK    7  A    between atoms: C_16  and  C_17 
REMARK    8  A    between atoms: C_16  and  C_19 
REMARK    9  A    between atoms: C_18  and  C_20 
ROOT
HETATM    1  C   UNK N   1       7.208  -2.017  -0.138  0.00  0.00     0.131 C 
ENDROOT
BRANCH   1   2
HETATM    2  S   UNK N   1       5.700  -1.350   0.635  0.00  0.00    -0.163 SA
BRANCH   2   3
HETATM    3  C   UNK N   1       5.352  -0.278  -0.793  0.00  0.00     0.081 C 
BRANCH   3   4
HETATM    4  C   UNK N   1       4.493   0.909  -0.381  0.00  0.00     0.087 C 
BRANCH   4   5
HETATM    5  C   UNK N   1       3.053   0.526  -0.200  0.00  0.00     0.086 C 
HETATM    6  N   UNK N   1       2.174   1.451  -0.036  0.00  0.00    -0.257 N 
ATOM      7  HN  UNK N   1       2.478   2.424  -0.011  1.00  0.00     0.181 HD
BRANCH   6   8
HETATM    8  S   UNK N   1       0.464   1.087   0.148  0.00  0.00     0.318 S 
HETATM    9  O   UNK N   1       0.198   0.608   1.582  0.00  0.00    -0.183 OA
HETATM   10  O   UNK N   1      -0.347   2.378  -0.031  0.00  0.00    -0.183 OA
BRANCH   8  11
HETATM   11  N   UNK N   1      -0.105  -0.124  -1.004  0.00  0.00    -0.311 N 
HETATM   12  H   UNK N   1      -0.876  -0.189  -1.669  0.00  0.00     0.170 HD
HETATM   13  H   UNK N   1       0.477  -0.962  -1.004  0.00  0.00     0.170 HD
ENDBRANCH   8  11
ENDBRANCH   6   8
BRANCH   5  14
HETATM   14  N   UNK N   1       2.663  -0.837  -0.237  0.00  0.00    -0.388 N 
HETATM   15  H   UNK N   1       1.709  -1.076  -0.263  0.00  0.00     0.157 HD
HETATM   16  H   UNK N   1       3.348  -1.545  -0.237  0.00  0.00     0.157 HD
ENDBRANCH   5  14
ENDBRANCH   4   5
ENDBRANCH   3   4
ENDBRANCH   2   3
ENDBRANCH   1   2
BRANCH   1  17
HETATM   17  C   UNK N   1       8.386  -1.104  -0.000  0.00  0.00     0.027 A 
HETATM   18  N   UNK N   1       9.671  -1.593  -0.101  0.00  0.00    -0.339 N 
HETATM   19  C   UNK N   1      10.598  -0.616   0.028  0.00  0.00     0.164 A 
ATOM     20  HN  UNK N   1       9.896  -2.576  -0.254  1.00  0.00     0.168 HD
HETATM   21  S   UNK N   1       9.835   0.833   0.261  0.00  0.00    -0.063 SA
HETATM   22  C   UNK N   1       8.275   0.287   0.208  0.00  0.00     0.079 A 
BRANCH  19  23
HETATM   23  N   UNK N   1      11.998  -0.878  -0.024  0.00  0.00    -0.171 N 
HETATM   24  C   UNK N   1      12.944   0.003   0.019  0.00  0.00     0.671 C 
HETATM   25  N   UNK N   1      14.286  -0.431  -0.035  0.00  0.00    -0.235 N 
HETATM   26  N   UNK N   1      12.674   1.388   0.101  0.00  0.00    -0.235 N 
HETATM   27  H   UNK N   1      14.492  -1.393  -0.073  0.00  0.00     0.174 HD
HETATM   28  H   UNK N   1      15.017   0.228  -0.035  0.00  0.00     0.174 HD
HETATM   29  H   UNK N   1      13.416   2.033   0.158  0.00  0.00     0.174 HD
HETATM   30  H   UNK N   1      11.743   1.708   0.101  0.00  0.00     0.174 HD
ATOM     31  HN  UNK N   1      12.281  -1.854  -0.103  1.00  0.00     0.186 HD
ENDBRANCH  19  23
ENDBRANCH   1  17
TORSDOF 9
