REMARK  5 active torsions:
REMARK  status: ('A' for Active; 'I' for Inactive)
REMARK    1  A    between atoms: C_12  and  O_2 
REMARK    2  A    between atoms: C_13  and  O_3 
REMARK    3  A    between atoms: O_4  and  C_16 
REMARK    4  A    between atoms: C_15  and  N_6 
REMARK       I    between atoms: N_11  and  C_19 
REMARK    5  A    between atoms: C_14  and  C_16 
ROOT
HETATM    1  O   UNK N   1       1.372   0.981  -0.580  0.00  0.00    -0.246 OA
HETATM    2  N   UNK N   1       3.480   0.310  -0.108  0.00  0.00    -0.265 N 
HETATM    3  N   UNK N   1       2.814   2.594  -0.025  0.00  0.00    -0.141 N 
ATOM      4  HN  UNK N   1       2.092   3.308  -0.123  1.00  0.00     0.189 HD
HETATM    5  N   UNK N   1       5.032   2.005   0.458  0.00  0.00    -0.188 N 
ATOM      6  HN  UNK N   1       5.978   2.277   0.725  1.00  0.00     0.185 HD
HETATM    7  N   UNK N   1       4.392   4.309   0.520  0.00  0.00    -0.234 N 
HETATM    8  C   UNK N   1       2.506   1.280  -0.243  0.00  0.00     0.343 A 
HETATM    9  C   UNK N   1       4.741   0.699   0.245  0.00  0.00     0.208 A 
HETATM   10  C   UNK N   1       4.074   2.952   0.321  0.00  0.00     0.680 A 
HETATM   11  H   UNK N   1       5.325   4.591   0.659  0.00  0.00     0.174 HD
HETATM   12  H   UNK N   1       3.674   4.983   0.520  0.00  0.00     0.174 HD
ENDROOT
BRANCH   2  13
HETATM   13  C   UNK N   1       3.215  -1.114  -0.400  0.00  0.00     0.265 C 
HETATM   14  O   UNK N   1       4.395  -1.871  -0.332  0.00  0.00    -0.353 OA
HETATM   15  C   UNK N   1       3.955  -3.202  -0.256  0.00  0.00     0.179 C 
HETATM   16  C   UNK N   1       2.613  -3.231   0.456  0.00  0.00     0.182 C 
HETATM   17  C   UNK N   1       2.265  -1.763   0.586  0.00  0.00     0.198 C 
BRANCH  15  18
HETATM   18  C   UNK N   1       4.965  -4.046   0.498  0.00  0.00     0.198 C 
BRANCH  18  19
HETATM   19  O   UNK N   1       6.219  -3.933  -0.104  0.00  0.00    -0.398 OA
HETATM   20  H   UNK N   1       6.723  -4.648  -0.522  0.00  0.00     0.209 HD
ENDBRANCH  18  19
ENDBRANCH  15  18
BRANCH  16  21
HETATM   21  O   UNK N   1       1.701  -3.918  -0.351  0.00  0.00    -0.390 OA
HETATM   22  H   UNK N   1       0.972  -3.609  -0.911  0.00  0.00     0.210 HD
ENDBRANCH  16  21
BRANCH  17  23
HETATM   23  O   UNK N   1       0.926  -1.514   0.270  0.00  0.00    -0.388 OA
HETATM   24  H   UNK N   1       0.611  -0.623   0.051  0.00  0.00     0.210 HD
ENDBRANCH  17  23
ENDBRANCH   2  13
TORSDOF 5
