REMARK  4 active torsions:
REMARK  status: ('A' for Active; 'I' for Inactive)
REMARK    1  A    between atoms: N_1  and  C_16 
REMARK    2  A    between atoms: C_2  and  C_8 
REMARK    3  A    between atoms: C_8  and  C_11 
REMARK    4  A    between atoms: C_11  and  C_16 
ROOT
HETATM    1  C   UNK N   1       4.485   0.387   0.975  0.00  0.00     0.015 C 
HETATM    2  C   UNK N   1       4.353   2.906   0.044  0.00  0.00     0.052 C 
HETATM    3  C   UNK N   1       4.457   1.407   2.147  0.00  0.00     0.020 C 
HETATM    4  C   UNK N   1       4.378   2.883   1.600  0.00  0.00     0.015 C 
HETATM    5  C   UNK N   1       5.675   0.818   0.117  0.00  0.00    -0.038 A 
HETATM    6  C   UNK N   1       3.234   0.705   0.156  0.00  0.00    -0.038 A 
HETATM    7  C   UNK N   1       5.593   2.137  -0.371  0.00  0.00    -0.042 A 
HETATM    8  C   UNK N   1       3.179   2.024  -0.334  0.00  0.00    -0.042 A 
HETATM    9  C   UNK N   1       6.789   0.027  -0.186  0.00  0.00     0.009 A 
HETATM   10  C   UNK N   1       2.189  -0.187  -0.116  0.00  0.00     0.009 A 
HETATM   11  C   UNK N   1       6.612   2.666  -1.164  0.00  0.00     0.008 A 
HETATM   12  C   UNK N   1       2.093   2.453  -1.099  0.00  0.00     0.008 A 
HETATM   13  C   UNK N   1       7.816   0.559  -0.977  0.00  0.00     0.001 A 
HETATM   14  C   UNK N   1       1.096   0.244  -0.877  0.00  0.00     0.001 A 
HETATM   15  C   UNK N   1       7.726   1.871  -1.465  0.00  0.00     0.001 A 
HETATM   16  C   UNK N   1       1.050   1.557  -1.369  0.00  0.00     0.001 A 
ENDROOT
BRANCH   1  17
HETATM   17  C   UNK N   1       4.563  -1.058   1.493  0.00  0.00     0.021 C 
BRANCH  17  18
HETATM   18  C   UNK N   1       4.550  -2.065   0.348  0.00  0.00     0.021 C 
BRANCH  18  19
HETATM   19  C   UNK N   1       4.755  -3.470   0.865  0.00  0.00     0.113 C 
BRANCH  19  20
HETATM   20  N   UNK N   1       5.998  -3.994   0.329  0.00  0.00    -0.425 N 
HETATM   21  C   UNK N   1       5.751  -5.378  -0.030  0.00  0.00     0.139 C 
HETATM   22  H   UNK N   1       6.877  -3.486   0.225  0.00  0.00     0.152 HD
ENDBRANCH  19  20
ENDBRANCH  18  19
ENDBRANCH  17  18
ENDBRANCH   1  17
TORSDOF 4
