REMARK  5 active torsions:
REMARK  status: ('A' for Active; 'I' for Inactive)
REMARK    1  A    between atoms: N_2  and  C_3 
REMARK    2  A    between atoms: N_2  and  C_4 
REMARK    3  A    between atoms: N_2  and  C_5 
REMARK    4  A    between atoms: C_3  and  C_6 
REMARK    5  A    between atoms: C_6  and  C_10 
ROOT
HETATM    1  O   UNK N   1       1.148   0.672  -0.714  0.00  0.00    -0.290 OA
HETATM    2  C   UNK N   1       2.223   0.125  -0.492  0.00  0.00     0.192 C 
ENDROOT
BRANCH   2   3
HETATM    3  C   UNK N   1       3.499   0.960  -0.712  0.00  0.00     0.293 C 
HETATM    4  C   UNK N   1       4.806   0.184  -0.523  0.00  0.00     0.051 C 
BRANCH   3   5
HETATM    5  N   UNK N   1       3.508   2.233   0.045  0.00  0.00     0.099 N 
BRANCH   5   6
HETATM    6  C   UNK N   1       4.753   2.957  -0.231  0.00  0.00     0.269 C 
HETATM    7  C   UNK N   1       5.000   4.037   0.809  0.00  0.00     0.037 C 
ENDBRANCH   5   6
BRANCH   5   8
HETATM    8  C   UNK N   1       2.449   3.093  -0.478  0.00  0.00     0.269 C 
HETATM    9  C   UNK N   1       1.538   3.539   0.649  0.00  0.00     0.037 C 
ENDBRANCH   5   8
ENDBRANCH   3   5
ENDBRANCH   2   3
BRANCH   2  10
HETATM   10  C   UNK N   1       2.182  -1.325  -0.110  0.00  0.00     0.012 A 
HETATM   11  C   UNK N   1       3.336  -2.062   0.209  0.00  0.00     0.015 A 
HETATM   12  C   UNK N   1       3.256  -3.423   0.519  0.00  0.00     0.001 A 
HETATM   13  C   UNK N   1       2.020  -4.071   0.508  0.00  0.00     0.000 A 
HETATM   14  C   UNK N   1       0.863  -3.354   0.199  0.00  0.00     0.001 A 
HETATM   15  C   UNK N   1       0.945  -1.992  -0.105  0.00  0.00     0.015 A 
ENDBRANCH   2  10
TORSDOF 5
