REMARK  19 active torsions:
REMARK  status: ('A' for Active; 'I' for Inactive)
REMARK    1  A    between atoms: O_1  and  C_12 
REMARK    2  A    between atoms: O_1  and  C_16 
REMARK    3  A    between atoms: O_2  and  C_13 
REMARK    4  A    between atoms: O_3  and  C_24 
REMARK    5  A    between atoms: O_4  and  C_27 
REMARK    6  A    between atoms: N_5  and  C_10 
REMARK    7  A    between atoms: N_5  and  C_11 
REMARK    8  A    between atoms: C_6  and  C_7 
REMARK    9  A    between atoms: C_6  and  C_8 
REMARK   10  A    between atoms: C_7  and  C_9 
REMARK   11  A    between atoms: C_8  and  C_10 
REMARK   12  A    between atoms: C_9  and  C_12 
REMARK   13  A    between atoms: C_11  and  C_13 
REMARK   14  A    between atoms: C_13  and  C_17 
REMARK   15  A    between atoms: C_14  and  C_15 
REMARK   16  A    between atoms: C_14  and  C_16 
REMARK   17  A    between atoms: C_15  and  C_18 
REMARK   18  A    between atoms: C_18  and  C_20 
REMARK   19  A    between atoms: C_22  and  C_27 
ROOT
HETATM    1  N   UNK N   1       5.578  -2.655  -1.336  0.00  0.00    -0.418 N 
HETATM    2  H   UNK N   1       5.882  -2.734  -2.306  0.00  0.00     0.153 HD
ENDROOT
BRANCH   1   3
HETATM    3  C   UNK N   1       6.512  -2.728  -0.204  0.00  0.00     0.113 C 
BRANCH   3   4
HETATM    4  C   UNK N   1       6.372  -1.582   0.793  0.00  0.00     0.019 C 
BRANCH   4   5
HETATM    5  C   UNK N   1       6.794  -0.265   0.183  0.00  0.00     0.002 C 
BRANCH   5   6
HETATM    6  C   UNK N   1       5.592   0.411  -0.449  0.00  0.00     0.002 C 
BRANCH   6   7
HETATM    7  C   UNK N   1       5.982   1.768  -1.000  0.00  0.00     0.026 C 
BRANCH   7   8
HETATM    8  C   UNK N   1       6.054   2.803   0.113  0.00  0.00     0.167 C 
BRANCH   8   9
HETATM    9  O   UNK N   1       7.140   2.546   0.955  0.00  0.00    -0.391 OA
BRANCH   9  10
HETATM   10  C   UNK N   1       8.102   3.484   0.587  0.00  0.00     0.167 C 
BRANCH  10  11
HETATM   11  C   UNK N   1       9.322   2.791   0.002  0.00  0.00     0.027 C 
BRANCH  11  12
HETATM   12  C   UNK N   1      10.246   3.803  -0.663  0.00  0.00     0.007 C 
BRANCH  12  13
HETATM   13  C   UNK N   1      10.832   4.771   0.358  0.00  0.00     0.038 C 
BRANCH  13  14
HETATM   14  C   UNK N   1      10.297   6.153   0.161  0.00  0.00    -0.058 A 
HETATM   15  C   UNK N   1       8.926   6.415   0.290  0.00  0.00     0.007 A 
HETATM   16  C   UNK N   1       8.436   7.711   0.114  0.00  0.00     0.001 A 
HETATM   17  C   UNK N   1       9.317   8.754  -0.185  0.00  0.00     0.000 A 
HETATM   18  C   UNK N   1      10.687   8.498  -0.308  0.00  0.00     0.001 A 
HETATM   19  C   UNK N   1      11.176   7.199  -0.134  0.00  0.00     0.007 A 
ENDBRANCH  13  14
ENDBRANCH  12  13
ENDBRANCH  11  12
ENDBRANCH  10  11
ENDBRANCH   9  10
ENDBRANCH   8   9
ENDBRANCH   7   8
ENDBRANCH   6   7
ENDBRANCH   5   6
ENDBRANCH   4   5
ENDBRANCH   3   4
ENDBRANCH   1   3
BRANCH   1  20
HETATM   20  C   UNK N   1       4.169  -2.460  -0.960  0.00  0.00     0.150 C 
BRANCH  20  21
HETATM   21  C   UNK N   1       3.717  -3.185   0.314  0.00  0.00     0.168 C 
BRANCH  21  22
HETATM   22  O   UNK N   1       2.429  -2.751   0.638  0.00  0.00    -0.389 OA
HETATM   23  H   UNK N   1       2.243  -1.826   0.862  0.00  0.00     0.210 HD
ENDBRANCH  21  22
BRANCH  21  24
HETATM   24  C   UNK N   1       3.782  -4.689   0.224  0.00  0.00    -0.027 A 
HETATM   25  C   UNK N   1       2.629  -5.469   0.393  0.00  0.00     0.022 A 
HETATM   26  C   UNK N   1       2.706  -6.867   0.363  0.00  0.00    -0.001 A 
HETATM   27  C   UNK N   1       3.949  -7.491   0.171  0.00  0.00     0.074 A 
HETATM   28  C   UNK N   1       5.098  -6.718   0.004  0.00  0.00     0.038 A 
HETATM   29  C   UNK N   1       5.014  -5.326   0.034  0.00  0.00     0.012 A 
BRANCH  26  30
HETATM   30  C   UNK N   1       1.468  -7.678   0.549  0.00  0.00     0.205 C 
BRANCH  30  31
HETATM   31  O   UNK N   1       0.568  -7.418  -0.485  0.00  0.00    -0.396 OA
HETATM   32  H   UNK N   1       0.412  -6.785  -1.203  0.00  0.00     0.209 HD
ENDBRANCH  30  31
ENDBRANCH  26  30
BRANCH  27  33
HETATM   33  O   UNK N   1       4.045  -8.832   0.149  0.00  0.00    -0.360 OA
HETATM   34  H   UNK N   1       3.269  -9.357   0.134  0.00  0.00     0.217 HD
ENDBRANCH  27  33
ENDBRANCH  21  24
ENDBRANCH  20  21
ENDBRANCH   1  20
TORSDOF 19
