REMARK  4 active torsions:
REMARK  status: ('A' for Active; 'I' for Inactive)
REMARK    1  A    between atoms: O_3  and  C_19 
REMARK    2  A    between atoms: N_5  and  C_6 
REMARK    3  A    between atoms: N_5  and  C_7 
REMARK    4  A    between atoms: C_10  and  C_19 
ROOT
HETATM    1  N   UNK N   1       3.168  -0.125   0.005  0.00  0.00    -0.353 N 
HETATM    2  H   UNK N   1       2.294   0.329   0.010  0.00  0.00     0.166 HD
ENDROOT
BRANCH   1   3
HETATM    3  C   UNK N   1       2.986  -1.557   0.002  0.00  0.00     0.077 A 
HETATM    4  C   UNK N   1       1.638  -2.003   0.002  0.00  0.00     0.068 A 
HETATM    5 Cl   UNK N   1       0.320  -0.826   0.008  0.00  0.00    -0.081 Cl
HETATM    6  C   UNK N   1       1.324  -3.373  -0.002  0.00  0.00    -0.038 A 
HETATM    7  C   UNK N   1       2.337  -4.317  -0.006  0.00  0.00     0.010 A 
HETATM    8  C   UNK N   1      -0.090  -3.845  -0.003  0.00  0.00     0.050 C 
HETATM    9  C   UNK N   1       3.662  -3.913  -0.005  0.00  0.00     0.027 A 
HETATM   10  C   UNK N   1       4.017  -2.562  -0.001  0.00  0.00     0.062 A 
HETATM   11 Cl   UNK N   1       5.746  -2.311  -0.001  0.00  0.00    -0.082 Cl
ENDBRANCH   1   3
BRANCH   1  12
HETATM   12  C   UNK N   1       4.227   0.840   0.003  0.00  0.00     0.049 A 
HETATM   13  C   UNK N   1       3.914   2.232   0.001  0.00  0.00     0.064 A 
HETATM   14  C   UNK N   1       4.957   3.173  -0.003  0.00  0.00     0.020 A 
HETATM   15  C   UNK N   1       6.289   2.766  -0.003  0.00  0.00     0.001 A 
HETATM   16  C   UNK N   1       6.594   1.411  -0.001  0.00  0.00     0.002 A 
HETATM   17  C   UNK N   1       5.569   0.468   0.002  0.00  0.00     0.030 A 
BRANCH  13  18
HETATM   18  C   UNK N   1       2.521   2.753   0.001  0.00  0.00     0.178 C 
HETATM   19  O   UNK N   1       1.565   1.998   0.003  0.00  0.00    -0.646 OA
BRANCH  18  20
HETATM   20  O   UNK N   1       2.303   4.084  -0.002  0.00  0.00    -0.773 OA
HETATM   21  H   UNK N   1       3.028   4.678  -0.003  0.00  0.00     0.167 HD
ENDBRANCH  18  20
ENDBRANCH  13  18
ENDBRANCH   1  12
TORSDOF 4
