REMARK  6 active torsions:
REMARK  status: ('A' for Active; 'I' for Inactive)
REMARK    1  A    between atoms: O_1  and  C_4 
REMARK    2  A    between atoms: N_2  and  C_10 
REMARK    3  A    between atoms: C_3  and  C_4 
REMARK    4  A    between atoms: C_4  and  C_9 
REMARK    5  A    between atoms: C_4  and  C_11 
REMARK    6  A    between atoms: C_9  and  C_10 
ROOT
HETATM    1  C   UNK N   1       1.868   0.562  -0.329  0.00  0.00     0.090 C 
ENDROOT
BRANCH   1   2
HETATM    2  O   UNK N   1       0.534   0.503  -0.744  0.00  0.00    -0.385 OA
HETATM    3  H   UNK N   1       0.036   1.284  -1.031  0.00  0.00     0.211 HD
ENDBRANCH   1   2
BRANCH   1   4
HETATM    4  C   UNK N   1       1.906   1.515   0.904  0.00  0.00     0.025 C 
HETATM    5  C   UNK N   1       1.170   2.825   0.678  0.00  0.00     0.008 C 
HETATM    6  C   UNK N   1       2.223   3.811   0.234  0.00  0.00     0.001 C 
HETATM    7  C   UNK N   1       3.513   3.353   0.886  0.00  0.00     0.001 C 
HETATM    8  C   UNK N   1       3.293   1.925   1.371  0.00  0.00     0.008 C 
ENDBRANCH   1   4
BRANCH   1   9
HETATM    9  C   UNK N   1       2.689   1.126  -1.519  0.00  0.00     0.073 C 
BRANCH   9  10
HETATM   10  C   UNK N   1       4.077   0.510  -1.768  0.00  0.00     0.276 C 
BRANCH  10  11
HETATM   11  N   UNK N   1       5.044   0.878  -0.747  0.00  0.00     0.088 N 
HETATM   12  C   UNK N   1       5.741   2.080  -1.209  0.00  0.00     0.272 C 
HETATM   13  C   UNK N   1       6.784   2.509  -0.180  0.00  0.00     0.030 C 
HETATM   14  C   UNK N   1       7.792   1.383   0.026  0.00  0.00     0.003 C 
HETATM   15  C   UNK N   1       7.069   0.091   0.393  0.00  0.00     0.030 C 
HETATM   16  C   UNK N   1       6.008  -0.219  -0.661  0.00  0.00     0.272 C 
ENDBRANCH  10  11
ENDBRANCH   9  10
ENDBRANCH   1   9
BRANCH   1  17
HETATM   17  C   UNK N   1       2.274  -0.867   0.016  0.00  0.00    -0.024 A 
HETATM   18  C   UNK N   1       2.747  -1.215   1.293  0.00  0.00     0.010 A 
HETATM   19  C   UNK N   1       3.089  -2.539   1.586  0.00  0.00     0.001 A 
HETATM   20  C   UNK N   1       2.954  -3.529   0.610  0.00  0.00     0.000 A 
HETATM   21  C   UNK N   1       2.480  -3.197  -0.661  0.00  0.00     0.001 A 
HETATM   22  C   UNK N   1       2.142  -1.874  -0.957  0.00  0.00     0.010 A 
ENDBRANCH   1  17
TORSDOF 6
