REMARK  4 active torsions:
REMARK  status: ('A' for Active; 'I' for Inactive)
REMARK    1  A    between atoms: O_2  and  C_12 
REMARK    2  A    between atoms: C_8  and  N_4 
REMARK    3  A    between atoms: N_7  and  C_16 
REMARK    4  A    between atoms: C_11  and  C_12 
ROOT
HETATM    1  O   UNK N   1       0.961   1.148  -0.000  0.00  0.00    -0.246 OA
HETATM    2  N   UNK N   1       3.196   0.763  -0.000  0.00  0.00    -0.282 N 
HETATM    3  N   UNK N   1       2.266   2.958   0.000  0.00  0.00    -0.295 N 
ATOM      4  HN  UNK N   1       1.449   3.569   0.000  1.00  0.00     0.172 HD
HETATM    5  C   UNK N   1       4.446   1.301  -0.000  0.00  0.00     0.102 A 
HETATM    6  C   UNK N   1       2.090   1.600   0.000  0.00  0.00     0.330 A 
HETATM    7  C   UNK N   1       4.627   2.681   0.000  0.00  0.00     0.065 A 
HETATM    8  C   UNK N   1       3.505   3.503   0.000  0.00  0.00     0.103 A 
ENDROOT
BRANCH   2   9
HETATM    9  C   UNK N   1       3.066  -0.699  -0.000  0.00  0.00     0.232 A 
HETATM   10  O   UNK N   1       4.228  -1.480  -0.001  0.00  0.00    -0.359 OA
HETATM   11  C   UNK N   1       3.706  -2.777   0.006  0.00  0.00     0.147 A 
HETATM   12  C   UNK N   1       2.193  -2.881  -0.002  0.00  0.00     0.038 A 
HETATM   13  C   UNK N   1       1.751  -1.449   0.000  0.00  0.00     0.057 A 
BRANCH  11  14
HETATM   14  C   UNK N   1       4.648  -3.963  -0.002  0.00  0.00     0.196 C 
BRANCH  14  15
HETATM   15  O   UNK N   1       3.916  -5.150   0.000  0.00  0.00    -0.398 OA
HETATM   16  H   UNK N   1       2.947  -5.122   0.003  0.00  0.00     0.209 HD
ENDBRANCH  14  15
ENDBRANCH  11  14
ENDBRANCH   2   9
BRANCH   8  17
HETATM   17  N   UNK N   1       3.658   4.902   0.000  0.00  0.00    -0.385 N 
HETATM   18  H   UNK N   1       4.559   5.299   0.000  0.00  0.00     0.157 HD
HETATM   19  H   UNK N   1       2.863   5.484   0.000  0.00  0.00     0.157 HD
ENDBRANCH   8  17
TORSDOF 4
