REMARK  7 active torsions:
REMARK  status: ('A' for Active; 'I' for Inactive)
REMARK    1  A    between atoms: S_2  and  N_15 
REMARK    2  A    between atoms: O_4  and  C_23 
REMARK    3  A    between atoms: C_19  and  N_12 
REMARK       I    between atoms: N_12  and  C_24 
REMARK    4  A    between atoms: C_25  and  N_13 
REMARK       I    between atoms: N_13  and  C_27 
REMARK       I    between atoms: N_14  and  C_27 
REMARK    5  A    between atoms: C_18  and  C_23 
REMARK    6  A    between atoms: C_24  and  C_25 
REMARK    7  A    between atoms: C_25  and  C_26 
ROOT
HETATM    1  C   UNK N   1       3.269  -0.902  -0.552  0.00  0.00     0.211 C 
ENDROOT
BRANCH   1   2
HETATM    2  N   UNK N   1       3.434   0.517  -0.814  0.00  0.00    -0.325 N 
HETATM    3  C   UNK N   1       2.656   1.536  -0.386  0.00  0.00     0.327 C 
HETATM    4  O   UNK N   1       1.504   1.334  -0.034  0.00  0.00    -0.247 OA
HETATM    5  N   UNK N   1       3.199   2.780  -0.235  0.00  0.00    -0.249 N 
HETATM    6  C   UNK N   1       2.467   3.893   0.321  0.00  0.00     0.159 A 
HETATM    7  C   UNK N   1       4.487   3.122  -0.437  0.00  0.00     0.342 A 
HETATM    8  C   UNK N   1       3.549   4.999   0.464  0.00  0.00     0.167 A 
HETATM    9  N   UNK N   1       4.748   4.369  -0.039  0.00  0.00    -0.225 N 
HETATM   10  O   UNK N   1       5.342   2.367  -0.878  0.00  0.00    -0.245 OA
HETATM   11  H   UNK N   1       4.206   0.767  -1.371  0.00  0.00     0.165 HD
BRANCH   9  12
HETATM   12  S   UNK N   1       6.322   5.179  -0.035  0.00  0.00     0.232 S 
HETATM   13  O   UNK N   1       6.409   4.316   1.235  0.00  0.00    -0.206 OA
HETATM   14  O   UNK N   1       5.994   6.369   0.877  0.00  0.00    -0.206 OA
HETATM   15  C   UNK N   1       8.030   4.774   0.428  0.00  0.00     0.186 C 
ENDBRANCH   9  12
ENDBRANCH   1   2
BRANCH   1  16
HETATM   16  C   UNK N   1       4.292  -1.315   0.466  0.00  0.00     0.245 C 
HETATM   17  O   UNK N   1       4.214  -2.391   1.040  0.00  0.00    -0.271 OA
HETATM   18  N   UNK N   1       5.376  -0.509   0.619  0.00  0.00    -0.343 N 
HETATM   19  H   UNK N   1       5.302   0.394   0.232  0.00  0.00     0.163 HD
BRANCH  18  20
HETATM   20  C   UNK N   1       6.623  -0.813   1.280  0.00  0.00     0.210 A 
HETATM   21  C   UNK N   1       7.762  -0.457   0.156  0.00  0.00     0.183 A 
HETATM   22  S   UNK N   1       9.455   0.012   0.624  0.00  0.00    -0.129 SA
HETATM   23  N   UNK N   1       7.903  -1.838  -0.020  0.00  0.00    -0.318 N 
HETATM   24  C   UNK N   1      10.190  -1.463  -0.261  0.00  0.00     0.033 C 
HETATM   25  C   UNK N   1       9.030  -2.412  -0.657  0.00  0.00     0.204 C 
HETATM   26  C   UNK N   1      10.882  -1.001  -1.528  0.00  0.00     0.029 C 
HETATM   27  C   UNK N   1      11.206  -2.084   0.679  0.00  0.00     0.029 C 
HETATM   28  C   UNK N   1       7.060  -2.184   0.896  0.00  0.00     0.247 A 
HETATM   29  O   UNK N   1       6.940  -3.274   1.431  0.00  0.00    -0.271 OA
BRANCH  25  30
HETATM   30  C   UNK N   1       9.109  -3.918  -0.517  0.00  0.00     0.165 C 
HETATM   31  O   UNK N   1      10.084  -4.462  -0.028  0.00  0.00    -0.648 OA
BRANCH  30  32
HETATM   32  O   UNK N   1       8.078  -4.671  -0.944  0.00  0.00    -0.775 OA
HETATM   33  H   UNK N   1       7.265  -4.312  -1.240  0.00  0.00     0.167 HD
ENDBRANCH  30  32
ENDBRANCH  25  30
ENDBRANCH  18  20
ENDBRANCH   1  16
BRANCH   1  34
HETATM   34  C   UNK N   1       1.904  -1.525  -0.455  0.00  0.00    -0.026 A 
HETATM   35  C   UNK N   1       1.514  -2.433  -1.446  0.00  0.00     0.010 A 
HETATM   36  C   UNK N   1       0.283  -3.089  -1.357  0.00  0.00     0.001 A 
HETATM   37  C   UNK N   1      -0.562  -2.842  -0.272  0.00  0.00     0.000 A 
HETATM   38  C   UNK N   1      -0.172  -1.945   0.727  0.00  0.00     0.001 A 
HETATM   39  C   UNK N   1       1.064  -1.298   0.644  0.00  0.00     0.010 A 
ENDBRANCH   1  34
TORSDOF 7
