REMARK  7 active torsions:
REMARK  status: ('A' for Active; 'I' for Inactive)
REMARK    1  A    between atoms: O_1  and  C_9 
REMARK    2  A    between atoms: O_1  and  C_16 
REMARK    3  A    between atoms: O_2  and  C_10 
REMARK    4  A    between atoms: O_2  and  C_17 
REMARK       I    between atoms: N_5  and  C_16 
REMARK       I    between atoms: N_6  and  C_17 
REMARK    5  A    between atoms: C_7  and  C_8 
REMARK    6  A    between atoms: C_7  and  C_9 
REMARK    7  A    between atoms: C_7  and  C_10 
ROOT
HETATM    1  C   UNK N   1       3.801  -0.078  -0.003  0.00  0.00     0.067 C 
ENDROOT
BRANCH   1   2
HETATM    2  C   UNK N   1       3.818  -1.584  -0.001  0.00  0.00    -0.050 A 
HETATM    3  C   UNK N   1       5.039  -2.279  -0.000  0.00  0.00     0.007 A 
HETATM    4  C   UNK N   1       5.058  -3.675   0.000  0.00  0.00     0.001 A 
HETATM    5  C   UNK N   1       3.858  -4.389   0.000  0.00  0.00     0.000 A 
HETATM    6  C   UNK N   1       2.638  -3.708   0.000  0.00  0.00     0.001 A 
HETATM    7  C   UNK N   1       2.618  -2.311  -0.000  0.00  0.00     0.007 A 
ENDBRANCH   1   2
BRANCH   1   8
HETATM    8  C   UNK N   1       2.421   0.597   0.002  0.00  0.00     0.192 C 
BRANCH   8   9
HETATM    9  O   UNK N   1       2.451   1.972  -0.000  0.00  0.00    -0.303 OA
BRANCH   9  10
HETATM   10  C   UNK N   1       1.301   2.692  -0.000  0.00  0.00     0.358 C 
HETATM   11  O   UNK N   1       0.212   2.136   0.000  0.00  0.00    -0.239 OA
HETATM   12  N   UNK N   1       1.358   4.038  -0.000  0.00  0.00    -0.346 N 
HETATM   13  H   UNK N   1       2.231   4.493  -0.000  0.00  0.00     0.161 HD
HETATM   14  H   UNK N   1       0.527   4.566  -0.000  0.00  0.00     0.161 HD
ENDBRANCH   9  10
ENDBRANCH   8   9
ENDBRANCH   1   8
BRANCH   1  15
HETATM   15  C   UNK N   1       5.170   0.617   0.002  0.00  0.00     0.192 C 
BRANCH  15  16
HETATM   16  O   UNK N   1       5.129   1.990  -0.001  0.00  0.00    -0.303 OA
BRANCH  16  17
HETATM   17  C   UNK N   1       6.278   2.714  -0.000  0.00  0.00     0.358 C 
HETATM   18  O   UNK N   1       7.368   2.160   0.000  0.00  0.00    -0.239 OA
HETATM   19  N   UNK N   1       6.218   4.059  -0.000  0.00  0.00    -0.346 N 
HETATM   20  H   UNK N   1       7.048   4.589  -0.000  0.00  0.00     0.161 HD
HETATM   21  H   UNK N   1       5.344   4.513  -0.000  0.00  0.00     0.161 HD
ENDBRANCH  16  17
ENDBRANCH  15  16
ENDBRANCH   1  15
TORSDOF 7
