REMARK  2 active torsions:
REMARK  status: ('A' for Active; 'I' for Inactive)
REMARK    1  A    between atoms: N_2  and  N_5 
REMARK       I    between atoms: N_2  and  C_9 
REMARK    2  A    between atoms: C_6  and  C_9 
ROOT
HETATM    1  N   UNK N   1       2.122  -3.167  -0.000  0.00  0.00    -0.375 N 
ATOM      2  HN  UNK N   1       2.091  -4.186  -0.000  1.00  0.00     0.164 HD
HETATM    3  C   UNK N   1       2.207  -0.398   0.000  0.00  0.00     0.036 A 
HETATM    4  C   UNK N   1       3.390  -1.146   0.000  0.00  0.00     0.034 A 
HETATM    5  C   UNK N   1       0.976  -1.067  -0.000  0.00  0.00     0.034 A 
HETATM    6  C   UNK N   1       3.328  -2.538   0.000  0.00  0.00     0.088 A 
HETATM    7  C   UNK N   1       0.956  -2.465  -0.000  0.00  0.00     0.088 A 
ENDROOT
BRANCH   3   8
HETATM    8  C   UNK N   1       2.276   1.077   0.000  0.00  0.00     0.269 C 
HETATM    9  O   UNK N   1       1.248   1.743  -0.000  0.00  0.00    -0.266 OA
HETATM   10  N   UNK N   1       3.484   1.689   0.000  0.00  0.00    -0.272 N 
HETATM   11  H   UNK N   1       4.301   1.141   0.000  0.00  0.00     0.189 HD
BRANCH  10  12
HETATM   12  N   UNK N   1       3.594   3.070  -0.000  0.00  0.00    -0.342 N 
HETATM   13  H   UNK N   1       4.515   3.509  -0.000  0.00  0.00     0.176 HD
HETATM   14  H   UNK N   1       2.754   3.649  -0.000  0.00  0.00     0.176 HD
ENDBRANCH  10  12
ENDBRANCH   3   8
TORSDOF 2
