REMARK  5 active torsions:
REMARK  status: ('A' for Active; 'I' for Inactive)
REMARK    1  A    between atoms: S_1  and  N_6 
REMARK    2  A    between atoms: S_1  and  C_22 
REMARK    3  A    between atoms: C_7  and  C_12 
REMARK    4  A    between atoms: C_18  and  C_20 
REMARK    5  A    between atoms: C_20  and  C_22 
ROOT
HETATM    1  N   UNK N   1       8.209  -3.097   0.598  0.00  0.00    -0.365 N 
HETATM    2  C   UNK N   1       8.197  -0.848   0.499  0.00  0.00    -0.026 A 
HETATM    3  C   UNK N   1       6.970  -1.314   0.073  0.00  0.00    -0.001 A 
HETATM    4  C   UNK N   1       8.949  -1.979   0.814  0.00  0.00     0.096 A 
HETATM    5  C   UNK N   1       7.011  -2.675   0.151  0.00  0.00     0.043 A 
HETATM    6  C   UNK N   1       5.835  -0.644  -0.379  0.00  0.00     0.021 A 
HETATM    7  C   UNK N   1       4.713  -1.407  -0.748  0.00  0.00    -0.056 A 
HETATM    8  C   UNK N   1       5.921  -3.467  -0.200  0.00  0.00     0.031 A 
HETATM    9  C   UNK N   1       4.756  -2.817  -0.654  0.00  0.00     0.009 A 
HETATM   10  H   UNK N   1       8.492  -4.030   0.739  0.00  0.00     0.165 HD
ENDROOT
BRANCH   7  11
HETATM   11  C   UNK N   1       3.491  -0.729  -1.279  0.00  0.00     0.055 C 
BRANCH  11  12
HETATM   12  C   UNK N   1       2.951   0.326  -0.280  0.00  0.00     0.167 C 
BRANCH  12  13
HETATM   13  S   UNK N   1       1.505  -0.001   0.862  0.00  0.00     0.226 S 
HETATM   14  O   UNK N   1       2.672   0.766   1.501  0.00  0.00    -0.206 OA
HETATM   15  O   UNK N   1       2.041  -1.429   0.699  0.00  0.00    -0.206 OA
BRANCH  13  16
HETATM   16  N   UNK N   1       1.081   0.627  -0.735  0.00  0.00    -0.324 N 
HETATM   17  C   UNK N   1      -0.216   0.069  -1.077  0.00  0.00     0.159 C 
HETATM   18  H   UNK N   1       1.639   1.260  -1.307  0.00  0.00     0.171 HD
ENDBRANCH  13  16
ENDBRANCH  12  13
ENDBRANCH  11  12
ENDBRANCH   7  11
BRANCH   2  19
HETATM   19  C   UNK N   1       8.672   0.577   0.632  0.00  0.00     0.024 C 
HETATM   20  C   UNK N   1       9.846   0.840  -0.315  0.00  0.00     0.039 C 
HETATM   21  C   UNK N   1      10.266   2.308  -0.237  0.00  0.00     0.272 C 
HETATM   22  N   UNK N   1       9.135   3.168  -0.582  0.00  0.00     0.084 N 
HETATM   23  C   UNK N   1       8.107   3.014   0.442  0.00  0.00     0.272 C 
HETATM   24  C   UNK N   1       9.593   4.543  -0.528  0.00  0.00     0.309 C 
HETATM   25  C   UNK N   1       7.553   1.598   0.393  0.00  0.00     0.039 C 
ENDBRANCH   2  19
TORSDOF 5
