REMARK  4 active torsions:
REMARK  status: ('A' for Active; 'I' for Inactive)
REMARK    1  A    between atoms: C_10  and  O_1 
REMARK    2  A    between atoms: O_1  and  C_26 
REMARK    3  A    between atoms: O_3  and  N_4 
REMARK    4  A    between atoms: C_6  and  C_17 
ROOT
HETATM    1  N   UNK N   1       0.608  -2.876   0.376  0.00  0.00    -0.273 N 
ATOM      2  HN  UNK N   1       0.470  -3.865   0.171  1.00  0.00     0.193 HD
HETATM    3  C   UNK N   1       7.675   0.575   0.314  0.00  0.00     0.007 C 
HETATM    4  C   UNK N   1       7.803  -0.945   0.031  0.00  0.00     0.002 C 
HETATM    5  C   UNK N   1       6.750  -1.888   0.693  0.00  0.00    -0.005 C 
HETATM    6  C   UNK N   1       5.394  -1.197   1.025  0.00  0.00    -0.002 C 
HETATM    7  C   UNK N   1       9.167   1.017   0.276  0.00  0.00     0.140 C 
HETATM    8  C   UNK N   1       7.031   0.720   1.705  0.00  0.00     0.014 C 
HETATM    9  C   UNK N   1       9.185  -1.327   0.610  0.00  0.00     0.010 C 
HETATM   10  C   UNK N   1       5.577   0.204   1.661  0.00  0.00     0.006 C 
HETATM   11  C   UNK N   1       9.795  -0.034   1.159  0.00  0.00     0.053 C 
HETATM   12  C   UNK N   1       4.483  -1.275  -0.214  0.00  0.00     0.019 C 
HETATM   13  C   UNK N   1       6.645  -3.142  -0.219  0.00  0.00     0.010 C 
HETATM   14  C   UNK N   1       5.255  -3.770  -0.376  0.00  0.00     0.035 C 
HETATM   15  C   UNK N   1       4.144  -2.760  -0.336  0.00  0.00    -0.073 C 
HETATM   16  C   UNK N   1       3.230  -0.375  -0.210  0.00  0.00     0.015 C 
HETATM   17  C   UNK N   1       9.354   2.411   0.728  0.00  0.00    -0.077 C 
HETATM   18  C   UNK N   1       2.049  -0.916   0.594  0.00  0.00     0.059 C 
HETATM   19  C   UNK N   1       2.899  -3.228  -0.159  0.00  0.00     0.030 C 
HETATM   20  C   UNK N   1       1.773  -2.351   0.206  0.00  0.00     0.032 C 
HETATM   21  C   UNK N   1       9.516   3.550   1.097  0.00  0.00     0.015 C 
ENDROOT
BRANCH   7  22
HETATM   22  O   UNK N   1       9.697   0.837  -1.006  0.00  0.00    -0.296 OA
BRANCH  22  23
HETATM   23  C   UNK N   1      11.025   0.871  -1.322  0.00  0.00     0.256 C 
HETATM   24  O   UNK N   1      11.425   0.241  -2.297  0.00  0.00    -0.266 OA
HETATM   25  C   UNK N   1      12.021   1.599  -0.469  0.00  0.00     0.126 C 
ENDBRANCH  22  23
ENDBRANCH   7  22
BRANCH   3  26
HETATM   26  C   UNK N   1       6.760   1.383  -0.648  0.00  0.00     0.009 C 
HETATM   27  C   UNK N   1       7.218   1.467  -2.095  0.00  0.00     0.006 C 
ENDBRANCH   3  26
BRANCH   1  28
HETATM   28  O   UNK N   1      -0.408  -2.156   0.808  0.00  0.00    -0.290 OA
HETATM   29  H   UNK N   1      -0.326  -1.275   1.115  0.00  0.00     0.244 HD
ENDBRANCH   1  28
TORSDOF 4
