REMARK  4 active torsions:
REMARK  status: ('A' for Active; 'I' for Inactive)
REMARK    1  A    between atoms: C_12  and  O_2 
REMARK    2  A    between atoms: O_4  and  C_25 
REMARK    3  A    between atoms: C_10  and  C_20 
REMARK    4  A    between atoms: C_20  and  C_25 
ROOT
HETATM    1  O   UNK N   1       8.202   1.638  -1.868  0.00  0.00    -0.381 OA
HETATM    2  O   UNK N   1      -0.198  -2.553  -1.272  0.00  0.00    -0.289 OA
HETATM    3  C   UNK N   1       6.905   1.403   0.156  0.00  0.00     0.001 C 
HETATM    4  C   UNK N   1       6.773  -0.083  -0.177  0.00  0.00     0.002 C 
HETATM    5  C   UNK N   1       5.521  -0.715   0.448  0.00  0.00    -0.001 C 
HETATM    6  C   UNK N   1       4.249   0.033  -0.078  0.00  0.00     0.035 C 
HETATM    7  C   UNK N   1       8.289   1.703  -0.471  0.00  0.00     0.128 C 
HETATM    8  C   UNK N   1       5.695   2.152  -0.433  0.00  0.00     0.045 C 
HETATM    9  C   UNK N   1       4.361   1.582   0.114  0.00  0.00     0.124 C 
HETATM   10  C   UNK N   1       8.123  -0.653   0.244  0.00  0.00     0.009 C 
HETATM   11  C   UNK N   1       2.954  -0.595   0.545  0.00  0.00     0.004 A 
HETATM   12  C   UNK N   1       9.118   0.501   0.018  0.00  0.00     0.047 C 
HETATM   13  C   UNK N   1       5.449  -2.202   0.067  0.00  0.00     0.014 C 
HETATM   14  C   UNK N   1       4.213  -2.869   0.659  0.00  0.00     0.012 C 
HETATM   15  C   UNK N   1       6.964   1.628   1.684  0.00  0.00     0.019 C 
HETATM   16  C   UNK N   1       2.975  -2.097   0.244  0.00  0.00    -0.060 A 
HETATM   17  C   UNK N   1       2.940  -0.440   2.064  0.00  0.00     0.025 C 
HETATM   18  C   UNK N   1       1.715   0.118   0.026  0.00  0.00    -0.009 A 
HETATM   19  C   UNK N   1       4.199  -4.339   0.260  0.00  0.00     0.015 C 
HETATM   20  C   UNK N   1       1.947  -2.714  -0.371  0.00  0.00     0.059 A 
HETATM   21  C   UNK N   1       0.701  -0.516  -0.577  0.00  0.00     0.052 A 
HETATM   22  C   UNK N   1       0.751  -1.968  -0.776  0.00  0.00     0.172 A 
HETATM   23  H   UNK N   1       8.132   1.667  -2.835  0.00  0.00     0.211 HD
ENDROOT
BRANCH   7  24
HETATM   24  C   UNK N   1       8.935   3.033  -0.103  0.00  0.00     0.184 C 
HETATM   25  O   UNK N   1       8.326   3.843   0.577  0.00  0.00    -0.292 OA
BRANCH  24  26
HETATM   26  C   UNK N   1      10.320   3.400  -0.571  0.00  0.00     0.245 C 
BRANCH  26  27
HETATM   27  O   UNK N   1      10.906   2.389  -1.336  0.00  0.00    -0.393 OA
HETATM   28  H   UNK N   1      10.502   1.685  -1.867  0.00  0.00     0.209 HD
ENDBRANCH  26  27
ENDBRANCH  24  26
ENDBRANCH   7  24
BRANCH   9  29
HETATM   29  O   UNK N   1       4.192   1.968   1.445  0.00  0.00    -0.395 OA
HETATM   30  H   UNK N   1       4.366   2.204   2.370  0.00  0.00     0.210 HD
ENDBRANCH   9  29
TORSDOF 4
