REMARK  7 active torsions:
REMARK  status: ('A' for Active; 'I' for Inactive)
REMARK    1  A    between atoms: O_1  and  C_8 
REMARK    2  A    between atoms: O_1  and  C_10 
REMARK    3  A    between atoms: O_2  and  C_5 
REMARK    4  A    between atoms: N_3  and  C_6 
REMARK    5  A    between atoms: N_3  and  C_7 
REMARK    6  A    between atoms: C_5  and  C_6 
REMARK    7  A    between atoms: C_5  and  C_8 
ROOT
HETATM    1  O   UNK N   1       4.676  -0.472   0.101  0.00  0.00    -0.348 OA
ENDROOT
BRANCH   1   2
HETATM    2  C   UNK N   1       3.558   0.296  -0.114  0.00  0.00     0.209 C 
BRANCH   2   3
HETATM    3  C   UNK N   1       3.796   1.748   0.252  0.00  0.00     0.159 C 
BRANCH   3   4
HETATM    4  O   UNK N   1       5.056   2.171  -0.178  0.00  0.00    -0.392 OA
HETATM    5  H   UNK N   1       5.747   1.559  -0.477  0.00  0.00     0.210 HD
ENDBRANCH   3   4
BRANCH   3   6
HETATM    6  C   UNK N   1       2.734   2.537  -0.477  0.00  0.00     0.147 C 
BRANCH   6   7
HETATM    7  N   UNK N   1       2.400   3.754   0.241  0.00  0.00    -0.415 N 
HETATM    8  H   UNK N   1       2.952   4.204   0.970  0.00  0.00     0.153 HD
BRANCH   7   9
HETATM    9  C   UNK N   1       1.119   4.205  -0.288  0.00  0.00     0.068 C 
HETATM   10  C   UNK N   1       0.860   5.628   0.152  0.00  0.00     0.031 C 
HETATM   11  C   UNK N   1      -0.010   3.317   0.214  0.00  0.00     0.031 C 
ENDBRANCH   7   9
ENDBRANCH   6   7
ENDBRANCH   3   6
ENDBRANCH   2   3
ENDBRANCH   1   2
BRANCH   1  12
HETATM   12  C   UNK N   1       4.640  -1.823   0.053  0.00  0.00     0.081 A 
HETATM   13  C   UNK N   1       5.827  -2.552   0.040  0.00  0.00     0.025 A 
HETATM   14  C   UNK N   1       5.830  -3.913  -0.005  0.00  0.00     0.045 A 
HETATM   15  C   UNK N   1       7.133  -2.127   0.058  0.00  0.00     0.033 A 
HETATM   16  N   UNK N   1       7.086  -4.386  -0.017  0.00  0.00    -0.365 N 
HETATM   17  C   UNK N   1       4.655  -4.658  -0.038  0.00  0.00     0.030 A 
HETATM   18  C   UNK N   1       7.894  -3.297   0.021  0.00  0.00     0.089 A 
HETATM   19  H   UNK N   1       7.364  -5.330  -0.046  0.00  0.00     0.165 HD
HETATM   20  C   UNK N   1       3.435  -3.957  -0.028  0.00  0.00     0.005 A 
HETATM   21  C   UNK N   1       3.425  -2.545   0.014  0.00  0.00     0.038 A 
ENDBRANCH   1  12
TORSDOF 7
