REMARK  2 active torsions:
REMARK  status: ('A' for Active; 'I' for Inactive)
REMARK       I    between atoms: N_3  and  C_9 
REMARK    1  A    between atoms: N_3  and  C_11 
REMARK    2  A    between atoms: C_4  and  C_9 
ROOT
HETATM    1  O   UNK N   1       5.144   0.068  -0.582  0.00  0.00    -0.271 OA
HETATM    2  N   UNK N   1       3.116  -0.316   0.315  0.00  0.00    -0.324 N 
HETATM    3  C   UNK N   1       4.162   0.495   0.008  0.00  0.00     0.255 C 
HETATM    4  H   UNK N   1       2.366   0.149   0.751  0.00  0.00     0.169 HD
ENDROOT
BRANCH   2   5
HETATM    5  C   UNK N   1       2.895  -1.721   0.126  0.00  0.00     0.046 A 
HETATM    6  C   UNK N   1       3.923  -2.710   0.070  0.00  0.00    -0.035 A 
HETATM    7  C   UNK N   1       3.577  -4.057  -0.091  0.00  0.00     0.009 A 
HETATM    8  C   UNK N   1       5.370  -2.413   0.234  0.00  0.00     0.050 C 
HETATM    9  C   UNK N   1       2.245  -4.448  -0.195  0.00  0.00     0.001 A 
HETATM   10  C   UNK N   1       1.236  -3.494  -0.127  0.00  0.00     0.009 A 
HETATM   11  C   UNK N   1       1.552  -2.145   0.035  0.00  0.00    -0.035 A 
HETATM   12  C   UNK N   1       0.433  -1.160   0.106  0.00  0.00     0.050 C 
ENDBRANCH   2   5
BRANCH   3  13
HETATM   13  C   UNK N   1       4.063   1.976   0.355  0.00  0.00     0.314 C 
HETATM   14  N   UNK N   1       2.924   2.625  -0.339  0.00  0.00     0.098 N 
HETATM   15  C   UNK N   1       2.843   4.041   0.024  0.00  0.00     0.273 C 
HETATM   16  C   UNK N   1       1.662   2.066   0.124  0.00  0.00     0.310 C 
HETATM   17  C   UNK N   1       4.098   4.785  -0.401  0.00  0.00     0.030 C 
HETATM   18  C   UNK N   1       5.284   4.183   0.330  0.00  0.00     0.004 C 
HETATM   19  C   UNK N   1       5.377   2.699   0.006  0.00  0.00     0.046 C 
ENDBRANCH   3  13
TORSDOF 2
