REMARK  3 active torsions:
REMARK  status: ('A' for Active; 'I' for Inactive)
REMARK    1  A    between atoms: N_2  and  C_10 
REMARK    2  A    between atoms: N_2  and  C_13 
REMARK       I    between atoms: N_2  and  C_19 
REMARK    3  A    between atoms: C_9  and  C_11 
ROOT
HETATM    1  N   UNK N   1       3.057  -1.447   0.096  0.00  0.00    -0.238 N 
HETATM    2  N   UNK N   1       4.225  -0.827   0.223  0.00  0.00    -0.302 N 
ATOM      3  HN  UNK N   1       4.357   0.180   0.319  1.00  0.00     0.186 HD
HETATM    4  N   UNK N   1       2.270  -3.649  -0.124  0.00  0.00    -0.349 N 
ATOM      5  HN  UNK N   1       2.462  -4.649  -0.192  1.00  0.00     0.166 HD
HETATM    6  N   UNK N   1       5.835  -5.330  -0.021  0.00  0.00    -0.191 NA
HETATM    7  C   UNK N   1       1.793  -0.889   0.027  0.00  0.00     0.070 A 
HETATM    8  C   UNK N   1       3.276  -2.763   0.011  0.00  0.00     0.149 A 
HETATM    9  C   UNK N   1       0.716  -1.789  -0.099  0.00  0.00     0.049 A 
HETATM   10  C   UNK N   1       4.622  -3.015   0.070  0.00  0.00     0.107 A 
HETATM   11  C   UNK N   1       0.989  -3.181  -0.169  0.00  0.00     0.092 A 
HETATM   12  C   UNK N   1       5.216  -1.758   0.205  0.00  0.00     0.134 A 
HETATM   13  C   UNK N   1       5.274  -4.314   0.016  0.00  0.00     0.105 C 
ENDROOT
BRANCH   7  14
HETATM   14  C   UNK N   1       1.615   0.617   0.023  0.00  0.00    -0.005 A 
HETATM   15  C   UNK N   1       2.781   1.333  -0.054  0.00  0.00     0.043 A 
HETATM   16  C   UNK N   1       2.890   2.706  -0.054  0.00  0.00     0.038 A 
HETATM   17  C   UNK N   1       1.707   3.461   0.033  0.00  0.00     0.030 A 
HETATM   18  C   UNK N   1       0.463   2.783   0.062  0.00  0.00     0.003 A 
HETATM   19  C   UNK N   1       0.408   1.358   0.046  0.00  0.00     0.014 A 
BRANCH  16  20
HETATM   20  N   UNK N   1       4.212   3.249  -0.228  0.00  0.00    -0.319 N 
HETATM   21  C   UNK N   1       4.582   4.523   0.118  0.00  0.00     0.220 C 
HETATM   22  O   UNK N   1       3.798   5.269   0.680  0.00  0.00    -0.273 OA
HETATM   23  C   UNK N   1       5.987   5.016  -0.146  0.00  0.00     0.117 C 
BRANCH  20  24
HETATM   24  C   UNK N   1       5.207   2.361  -0.811  0.00  0.00     0.128 C 
HETATM   25  C   UNK N   1       6.123   1.811   0.265  0.00  0.00     0.027 C 
ENDBRANCH  20  24
ENDBRANCH  16  20
ENDBRANCH   7  14
TORSDOF 3
