REMARK  9 active torsions:
REMARK  status: ('A' for Active; 'I' for Inactive)
REMARK    1  A    between atoms: C_10  and  O_11 
REMARK    2  A    between atoms: C_24  and  C_23 
REMARK    3  A    between atoms: C_23  and  O_30 
REMARK    4  A    between atoms: C_32  and  C_24 
REMARK    5  A    between atoms: O_30  and  C_26 
REMARK    6  A    between atoms: C_26  and  C_27 
REMARK    7  A    between atoms: C_32  and  O_33 
REMARK    8  A    between atoms: O_33  and  C_34 
REMARK    9  A    between atoms: C_34  and  C_36 
ROOT
HETATM    1  C   UNK N   1      -1.949   0.169  -0.481  0.00  0.00     0.022 A 
HETATM    2  C   UNK N   1      -2.018  -1.331  -0.775  0.00  0.00    -0.062 A 
HETATM    3  C   UNK N   1       0.416  -1.675  -0.617  0.00  0.00     0.011 C 
HETATM    4  C   UNK N   1      -0.838  -1.973  -1.434  0.00  0.00     0.036 C 
HETATM    5  C   UNK N   1      -0.659   0.424   0.390  0.00  0.00     0.081 C 
HETATM    6  C   UNK N   1       0.585  -0.164  -0.353  0.00  0.00     0.018 C 
HETATM    7  C   UNK N   1       3.096   1.017  -1.342  0.00  0.00     0.026 C 
HETATM    8  C   UNK N   1       3.106  -0.217  -0.463  0.00  0.00     0.013 C 
HETATM    9  C   UNK N   1       4.160   1.113  -2.426  0.00  0.00     0.013 C 
HETATM   10  C   UNK N   1      -0.393   1.938   0.610  0.00  0.00     0.144 C 
HETATM   11  C   UNK N   1      -3.198   0.703   0.206  0.00  0.00    -0.007 A 
HETATM   12  C   UNK N   1      -3.066  -2.092  -0.428  0.00  0.00     0.058 A 
HETATM   13  C   UNK N   1      -4.243  -0.062   0.537  0.00  0.00     0.052 A 
HETATM   14  C   UNK N   1      -4.232  -1.498   0.241  0.00  0.00     0.172 A 
HETATM   15  O   UNK N   1      -5.185  -2.194   0.548  0.00  0.00    -0.289 OA
HETATM   16 Cl   UNK N   1      -0.856  -0.380   2.000  0.00  0.00    -0.115 Cl
HETATM   17  C   UNK N   1       2.139   1.555   0.832  0.00  0.00     0.002 C 
HETATM   18  C   UNK N   1       3.097   1.513   2.021  0.00  0.00     0.019 C 
HETATM   19  C   UNK N   1       1.907   0.075   0.433  0.00  0.00     0.004 C 
HETATM   20  C   UNK N   1      -1.856   0.901  -1.819  0.00  0.00     0.027 C 
HETATM   21  C   UNK N   1       0.874   2.182   1.428  0.00  0.00     0.046 C 
HETATM   22  C   UNK N   1       2.778   2.244  -0.464  0.00  0.00     0.144 C 
ENDROOT
BRANCH  22  23
HETATM   23  C   UNK N   1       4.083   3.052  -0.264  0.00  0.00     0.187 C 
HETATM   24  O   UNK N   1       4.235   4.120  -0.839  0.00  0.00    -0.292 OA
BRANCH  23  25
HETATM   25  C   UNK N   1       5.193   2.556   0.609  0.00  0.00     0.260 C 
BRANCH  25  26
HETATM   26  O   UNK N   1       6.313   2.171  -0.082  0.00  0.00    -0.314 OA
BRANCH  26  27
HETATM   27  C   UNK N   1       7.019   1.083   0.315  0.00  0.00     0.258 C 
HETATM   28  O   UNK N   1       6.564   0.307   1.145  0.00  0.00    -0.265 OA
BRANCH  27  29
HETATM   29  C   UNK N   1       8.392   0.864  -0.213  0.00  0.00     0.106 C 
HETATM   30  C   UNK N   1       9.272   2.031   0.194  0.00  0.00     0.015 C 
ENDBRANCH  27  29
ENDBRANCH  26  27
ENDBRANCH  25  26
ENDBRANCH  23  25
ENDBRANCH  22  23
BRANCH  22  31
HETATM   31  O   UNK N   1       1.835   3.018  -1.147  0.00  0.00    -0.301 OA
BRANCH  31  32
HETATM   32  C   UNK N   1       1.355   4.225  -0.703  0.00  0.00     0.259 C 
HETATM   33  O   UNK N   1       1.819   4.758   0.292  0.00  0.00    -0.265 OA
BRANCH  32  34
HETATM   34  C   UNK N   1       0.251   4.904  -1.446  0.00  0.00     0.106 C 
HETATM   35  C   UNK N   1      -0.923   5.165  -0.516  0.00  0.00     0.015 C 
ENDBRANCH  32  34
ENDBRANCH  31  32
ENDBRANCH  22  31
BRANCH  10  36
HETATM   36  O   UNK N   1      -1.455   2.562   1.265  0.00  0.00    -0.394 OA
HETATM   37  H   UNK N   1      -1.449   3.419   1.720  0.00  0.00     0.210 HD
ENDBRANCH  10  36
TORSDOF 9
