REMARK  20 active torsions:
REMARK  status: ('A' for Active; 'I' for Inactive)
REMARK       I    between atoms: N_1  and  C_2 
REMARK    1  A    between atoms: C_2  and  C_3 
REMARK    2  A    between atoms: C_3  and  N_4 
REMARK       I    between atoms: N_4  and  C_5 
REMARK    3  A    between atoms: C_5  and  C_6 
REMARK    4  A    between atoms: C_6  and  N_7 
REMARK    5  A    between atoms: C_6  and  C_12 
REMARK       I    between atoms: N_7  and  C_8 
REMARK    6  A    between atoms: C_16  and  C_8 
REMARK    7  A    between atoms: C_12  and  C_13 
REMARK    8  A    between atoms: C_13  and  C_14 
REMARK    9  A    between atoms: C_14  and  N_15 
REMARK       I    between atoms: N_15  and  C_72 
REMARK       I    between atoms: N_18  and  C_21 
REMARK   10  A    between atoms: C_22  and  C_21 
REMARK   11  A    between atoms: C_25  and  C_32 
REMARK   12  A    between atoms: C_32  and  C_33 
REMARK       I    between atoms: C_33  and  N_35 
REMARK   13  A    between atoms: C_37  and  C_39 
REMARK   14  A    between atoms: C_39  and  C_40 
REMARK   15  A    between atoms: C_40  and  C_41 
REMARK       I    between atoms: C_41  and  N_42 
REMARK   16  A    between atoms: C_45  and  C_47 
REMARK   17  A    between atoms: C_48  and  C_47 
REMARK   18  A    between atoms: C_60  and  C_63 
REMARK   19  A    between atoms: C_63  and  C_65 
REMARK   20  A    between atoms: C_67  and  O_71 
REMARK       I    between atoms: C_72  and  N_75 
ROOT
HETATM    1  C   UNK N   1       7.313  -6.218  -0.166  0.00  0.00     0.186 C 
HETATM    2  N   UNK N   1       7.381  -6.412   1.263  0.00  0.00    -0.345 N 
HETATM    3  C   UNK N   1       8.235  -7.273   1.893  0.00  0.00     0.241 C 
HETATM    4  C   UNK N   1       9.335  -8.060   1.188  0.00  0.00     0.185 C 
HETATM    5  N   UNK N   1       9.614  -7.651  -0.167  0.00  0.00    -0.346 N 
HETATM    6  C   UNK N   1       7.586  -4.809  -0.677  0.00  0.00     0.120 C 
HETATM    7  S   UNK N   1       6.125  -3.758  -0.864  0.00  0.00    -0.095 SA
HETATM    8  S   UNK N   1       5.752  -3.587   1.236  0.00  0.00    -0.097 SA
HETATM    9  O   UNK N   1       8.138  -7.402   3.102  0.00  0.00    -0.271 OA
HETATM   10  C   UNK N   1      10.515  -6.684  -0.431  0.00  0.00     0.241 C 
HETATM   11  C   UNK N   1      11.216  -5.984   0.708  0.00  0.00     0.177 C 
HETATM   12  O   UNK N   1      10.781  -6.414  -1.592  0.00  0.00    -0.271 OA
HETATM   13  N   UNK N   1      10.907  -4.585   0.960  0.00  0.00    -0.346 N 
HETATM   14  C   UNK N   1      10.357  -2.225   0.540  0.00  0.00     0.180 C 
HETATM   15  C   UNK N   1      10.539  -3.638   0.057  0.00  0.00     0.241 C 
HETATM   16  N   UNK N   1       6.353  -0.862   0.002  0.00  0.00    -0.347 N 
HETATM   17  C   UNK N   1       5.003  -0.789  -0.111  0.00  0.00     0.219 C 
HETATM   18  C   UNK N   1       4.150  -1.305   1.000  0.00  0.00     0.114 C 
HETATM   19  C   UNK N   1       4.109  -2.835   0.963  0.00  0.00     0.095 C 
HETATM   20  C   UNK N   1       8.554  -1.378  -0.962  0.00  0.00     0.241 C 
HETATM   21  O   UNK N   1       9.228  -1.603  -1.955  0.00  0.00    -0.271 OA
HETATM   22  C   UNK N   1       7.230  -0.663  -1.126  0.00  0.00     0.180 C 
HETATM   23  N   UNK N   1       9.027  -1.687   0.281  0.00  0.00    -0.346 N 
HETATM   24  O   UNK N   1      10.444  -3.898  -1.131  0.00  0.00    -0.271 OA
HETATM   25  O   UNK N   1       4.479  -0.416  -1.150  0.00  0.00    -0.274 OA
HETATM   26  H   UNK N   1       6.767  -5.886   1.825  0.00  0.00     0.163 HD
HETATM   27  H   UNK N   1       9.139  -8.087  -0.912  0.00  0.00     0.163 HD
HETATM   28  H   UNK N   1      10.971  -4.289   1.896  0.00  0.00     0.163 HD
HETATM   29  H   UNK N   1       6.748  -1.058   0.883  0.00  0.00     0.163 HD
HETATM   30  H   UNK N   1       8.432  -1.538   1.051  0.00  0.00     0.163 HD
ENDROOT
BRANCH   1  31
HETATM   31  C   UNK N   1       6.559  -7.290  -0.895  0.00  0.00     0.244 C 
HETATM   32  N   UNK N   1       5.211  -7.247  -1.127  0.00  0.00    -0.337 N 
HETATM   33  C   UNK N   1       4.498  -8.379  -1.637  0.00  0.00     0.179 C 
HETATM   34  C   UNK N   1       4.392  -6.097  -0.905  0.00  0.00     0.127 C 
HETATM   35  C   UNK N   1       3.070  -7.916  -1.849  0.00  0.00     0.037 C 
HETATM   36  C   UNK N   1       3.093  -6.402  -1.633  0.00  0.00     0.022 C 
HETATM   37  O   UNK N   1       7.188  -8.289  -1.224  0.00  0.00    -0.271 OA
BRANCH  33  38
HETATM   38  C   UNK N   1       4.665  -9.572  -0.702  0.00  0.00     0.241 C 
HETATM   39  N   UNK N   1       4.059  -9.713   0.517  0.00  0.00    -0.346 N 
HETATM   40  H   UNK N   1       4.471 -10.379   1.114  0.00  0.00     0.163 HD
HETATM   41  O   UNK N   1       5.466 -10.426  -1.040  0.00  0.00    -0.271 OA
BRANCH  39  42
HETATM   42  C   UNK N   1       2.899  -9.028   1.066  0.00  0.00     0.176 C 
BRANCH  42  43
HETATM   43  C   UNK N   1       1.651  -9.552   0.394  0.00  0.00     0.240 C 
HETATM   44  N   UNK N   1       0.688  -8.708  -0.031  0.00  0.00    -0.351 N 
HETATM   45  H   UNK N   1       0.825  -7.739   0.081  0.00  0.00     0.163 HD
HETATM   46  O   UNK N   1       1.517 -10.760   0.249  0.00  0.00    -0.271 OA
BRANCH  44  47
HETATM   47  C   UNK N   1      -0.531  -9.165  -0.642  0.00  0.00     0.225 C 
BRANCH  47  48
HETATM   48  C   UNK N   1      -1.345  -7.977  -1.013  0.00  0.00     0.233 C 
HETATM   49  N   UNK N   1      -2.557  -7.791  -0.458  0.00  0.00    -0.369 N 
HETATM   50  H   UNK N   1      -2.883  -6.956  -0.052  0.00  0.00     0.159 HD
HETATM   51  H   UNK N   1      -3.173  -8.560  -0.458  0.00  0.00     0.159 HD
HETATM   52  O   UNK N   1      -0.906  -7.161  -1.807  0.00  0.00    -0.272 OA
ENDBRANCH  47  48
ENDBRANCH  44  47
ENDBRANCH  42  43
BRANCH  42  53
HETATM   53  C   UNK N   1       3.073  -7.505   1.235  0.00  0.00     0.036 C 
BRANCH  53  54
HETATM   54  C   UNK N   1       1.789  -6.733   1.557  0.00  0.00     0.023 C 
BRANCH  54  55
HETATM   55  C   UNK N   1       2.008  -5.229   1.419  0.00  0.00     0.138 C 
BRANCH  55  56
HETATM   56  N   UNK N   1       1.092  -4.624   0.471  0.00  0.00    -0.227 N 
HETATM   57  C   UNK N   1      -0.309  -4.517   0.696  0.00  0.00     0.665 C 
HETATM   58  N   UNK N   1      -0.847  -5.044   1.734  0.00  0.00    -0.235 N 
HETATM   59  N   UNK N   1      -1.113  -3.802  -0.219  0.00  0.00    -0.235 N 
HETATM   60  H   UNK N   1      -1.404  -4.889   2.530  0.00  0.00     0.174 HD
ATOM     61  HN  UNK N   1      -0.594  -6.032   1.734  1.00  0.00     0.174 HD
HETATM   62  H   UNK N   1      -0.961  -3.067  -0.856  0.00  0.00     0.174 HD
HETATM   63  H   UNK N   1      -2.048  -4.111  -0.219  0.00  0.00     0.174 HD
HETATM   64  H   UNK N   1       1.458  -4.268  -0.371  0.00  0.00     0.177 HD
ENDBRANCH  55  56
ENDBRANCH  54  55
ENDBRANCH  53  54
ENDBRANCH  42  53
ENDBRANCH  39  42
ENDBRANCH  33  38
ENDBRANCH   1  31
BRANCH   4  65
HETATM   65  C   UNK N   1       9.172  -9.575   1.285  0.00  0.00     0.137 C 
BRANCH  65  66
HETATM   66  C   UNK N   1      10.328 -10.290   0.646  0.00  0.00     0.217 C 
HETATM   67  O   UNK N   1      10.129 -11.057  -0.281  0.00  0.00    -0.274 OA
HETATM   68  N   UNK N   1      11.587 -10.075   1.079  0.00  0.00    -0.370 N 
HETATM   69  H   UNK N   1      12.182 -10.793   1.395  0.00  0.00     0.159 HD
HETATM   70  H   UNK N   1      11.929  -9.152   1.079  0.00  0.00     0.159 HD
ENDBRANCH  65  66
ENDBRANCH   4  65
BRANCH  11  71
HETATM   71  C   UNK N   1      12.686  -6.331   0.901  0.00  0.00     0.044 C 
BRANCH  71  72
HETATM   72  C   UNK N   1      13.501  -6.173  -0.369  0.00  0.00     0.105 C 
BRANCH  72  73
HETATM   73  C   UNK N   1      14.846  -6.790  -0.178  0.00  0.00     0.215 C 
HETATM   74  N   UNK N   1      15.695  -6.293   0.742  0.00  0.00    -0.370 N 
HETATM   75  H   UNK N   1      16.320  -6.649   1.414  0.00  0.00     0.159 HD
HETATM   76  H   UNK N   1      15.690  -5.308   0.742  0.00  0.00     0.159 HD
HETATM   77  O   UNK N   1      15.177  -7.747  -0.857  0.00  0.00    -0.274 OA
ENDBRANCH  72  73
ENDBRANCH  71  72
ENDBRANCH  11  71
BRANCH  22  78
HETATM   78  C   UNK N   1       7.327   0.812  -1.549  0.00  0.00     0.073 C 
BRANCH  78  79
HETATM   79  C   UNK N   1       8.508   1.513  -0.960  0.00  0.00    -0.056 A 
HETATM   80  C   UNK N   1       9.776   1.325  -1.525  0.00  0.00     0.010 A 
HETATM   81  C   UNK N   1      10.895   1.937  -0.962  0.00  0.00     0.037 A 
HETATM   82  C   UNK N   1      10.751   2.745   0.166  0.00  0.00     0.065 A 
HETATM   83  C   UNK N   1       9.484   2.950   0.725  0.00  0.00     0.037 A 
HETATM   84  C   UNK N   1       8.361   2.333   0.162  0.00  0.00     0.010 A 
BRANCH  82  85
HETATM   85  O   UNK N   1      11.830   3.325   0.714  0.00  0.00    -0.361 OA
HETATM   86  H   UNK N   1      12.557   2.876   1.096  0.00  0.00     0.217 HD
ENDBRANCH  82  85
ENDBRANCH  78  79
ENDBRANCH  22  78
BRANCH  14  87
HETATM   87  C   UNK N   1      11.437  -1.255   0.032  0.00  0.00     0.073 C 
BRANCH  87  88
HETATM   88  C   UNK N   1      12.832  -1.799   0.087  0.00  0.00    -0.056 A 
HETATM   89  C   UNK N   1      13.718  -1.365   1.078  0.00  0.00     0.007 A 
HETATM   90  C   UNK N   1      15.026  -1.861   1.113  0.00  0.00     0.001 A 
HETATM   91  C   UNK N   1      15.453  -2.783   0.152  0.00  0.00     0.000 A 
HETATM   92  C   UNK N   1      14.574  -3.206  -0.848  0.00  0.00     0.001 A 
HETATM   93  C   UNK N   1      13.268  -2.713  -0.881  0.00  0.00     0.007 A 
ENDBRANCH  87  88
ENDBRANCH  14  87
TORSDOF 20
