REMARK  4 active torsions:
REMARK  status: ('A' for Active; 'I' for Inactive)
REMARK    1  A    between atoms: N_2  and  C_1 
REMARK       I    between atoms: C_9  and  N_2 
REMARK    2  A    between atoms: C_12  and  C_9 
REMARK    3  A    between atoms: C_18  and  N_13 
REMARK    4  A    between atoms: C_19  and  C_18 
ROOT
HETATM    1  N   UNK N   1       5.756  -7.646   0.367  0.00  0.00    -0.324 N 
HETATM    2  C   UNK N   1       4.567  -8.146  -0.073  0.00  0.00     0.255 C 
HETATM    3  O   UNK N   1       4.527  -9.104  -0.825  0.00  0.00    -0.271 OA
HETATM    4  H   UNK N   1       5.699  -6.819   0.898  0.00  0.00     0.169 HD
ENDROOT
BRANCH   2   5
HETATM    5  C   UNK N   1       3.291  -7.427   0.322  0.00  0.00     0.314 C 
HETATM    6  N   UNK N   1       2.068  -8.104  -0.163  0.00  0.00     0.102 N 
HETATM    7  C   UNK N   1       0.882  -7.340   0.238  0.00  0.00     0.273 C 
HETATM    8  C   UNK N   1       0.897  -5.946  -0.375  0.00  0.00     0.030 C 
HETATM    9  C   UNK N   1       2.127  -5.206   0.121  0.00  0.00     0.004 C 
HETATM   10  C   UNK N   1       3.372  -6.001  -0.239  0.00  0.00     0.046 C 
BRANCH   6  11
HETATM   11  C   UNK N   1       1.941  -9.388   0.515  0.00  0.00     0.273 C 
BRANCH  11  12
HETATM   12  C   UNK N   1       1.886 -10.504  -0.509  0.00  0.00     0.026 C 
HETATM   13  C   UNK N   1       1.972 -11.839   0.198  0.00  0.00     0.007 C 
ENDBRANCH  11  12
ENDBRANCH   6  11
ENDBRANCH   2   5
BRANCH   1  14
HETATM   14  C   UNK N   1       7.078  -8.160   0.162  0.00  0.00     0.046 A 
HETATM   15  C   UNK N   1       8.132  -7.226   0.052  0.00  0.00    -0.035 A 
HETATM   16  C   UNK N   1       9.450  -7.655  -0.119  0.00  0.00     0.009 A 
HETATM   17  C   UNK N   1       7.863  -5.760   0.109  0.00  0.00     0.050 C 
HETATM   18  C   UNK N   1       9.746  -9.013  -0.173  0.00  0.00     0.001 A 
HETATM   19  C   UNK N   1       8.725  -9.953  -0.047  0.00  0.00     0.009 A 
HETATM   20  C   UNK N   1       7.395  -9.549   0.121  0.00  0.00    -0.035 A 
HETATM   21  C   UNK N   1       6.386 -10.626   0.319  0.00  0.00     0.050 C 
ENDBRANCH   1  14
TORSDOF 4
