REMARK  3 active torsions:
REMARK  status: ('A' for Active; 'I' for Inactive)
REMARK    1  A    between atoms: C_16  and  C_7 
REMARK    2  A    between atoms: C_8  and  O_25 
REMARK    3  A    between atoms: C_27  and  C_16 
ROOT
HETATM    1  C   UNK N   1      -2.115  -1.155   0.464  0.00  0.00     0.039 A 
HETATM    2  C   UNK N   1       1.678   1.003  -0.047  0.00  0.00     0.001 C 
HETATM    3  C   UNK N   1      -0.882  -0.536  -0.294  0.00  0.00     0.147 C 
HETATM    4  C   UNK N   1      -2.032  -2.683   0.350  0.00  0.00    -0.027 A 
HETATM    5  C   UNK N   1       1.673  -0.504  -0.339  0.00  0.00     0.005 C 
HETATM    6  C   UNK N   1       0.436  -1.185   0.274  0.00  0.00     0.037 C 
HETATM    7  C   UNK N   1       3.063   1.400  -0.599  0.00  0.00     0.130 C 
HETATM    8  C   UNK N   1      -0.827   1.021  -0.158  0.00  0.00     0.160 C 
HETATM    9  C   UNK N   1      -3.433  -0.586  -0.042  0.00  0.00    -0.006 A 
HETATM   10  C   UNK N   1       0.465   1.638  -0.723  0.00  0.00     0.048 C 
HETATM   11  C   UNK N   1       3.930   0.303   0.057  0.00  0.00     0.025 C 
HETATM   12  C   UNK N   1       3.054  -0.965   0.139  0.00  0.00     0.013 C 
HETATM   13  C   UNK N   1       0.433  -2.695   0.000  0.00  0.00     0.050 C 
HETATM   14  C   UNK N   1      -0.734  -3.353   0.733  0.00  0.00     0.201 C 
HETATM   15  C   UNK N   1      -3.070  -3.428  -0.073  0.00  0.00     0.061 A 
HETATM   16  C   UNK N   1      -4.457  -1.342  -0.452  0.00  0.00     0.052 A 
HETATM   17  C   UNK N   1      -4.345  -2.803  -0.441  0.00  0.00     0.172 A 
HETATM   18  F   UNK N   1      -0.975  -0.840  -1.648  0.00  0.00    -0.238 F 
HETATM   19  O   UNK N   1      -5.309  -3.495  -0.727  0.00  0.00    -0.289 OA
HETATM   20  O   UNK N   1       3.077   1.239  -1.993  0.00  0.00    -0.381 OA
HETATM   21  C   UNK N   1      -2.046  -0.790   1.945  0.00  0.00     0.028 C 
HETATM   22  C   UNK N   1       1.609   1.291   1.473  0.00  0.00     0.019 C 
HETATM   23  F   UNK N   1      -0.749  -4.713   0.468  0.00  0.00    -0.245 F 
HETATM   24  C   UNK N   1       5.273   0.054  -0.610  0.00  0.00     0.013 C 
HETATM   25  H   UNK N   1       2.986   1.176  -2.957  0.00  0.00     0.211 HD
ENDROOT
BRANCH   7  26
HETATM   26  C   UNK N   1       3.524   2.814  -0.288  0.00  0.00     0.175 C 
HETATM   27  O   UNK N   1       2.784   3.592   0.299  0.00  0.00    -0.293 OA
BRANCH  26  28
HETATM   28  C   UNK N   1       4.881   3.272  -0.744  0.00  0.00     0.196 C 
HETATM   29 Cl   UNK N   1       5.192   4.994  -0.384  0.00  0.00    -0.122 Cl
ENDBRANCH  26  28
ENDBRANCH   7  26
BRANCH   8  30
HETATM   30  O   UNK N   1      -1.916   1.628  -0.786  0.00  0.00    -0.392 OA
HETATM   31  H   UNK N   1      -1.929   2.494  -1.223  0.00  0.00     0.210 HD
ENDBRANCH   8  30
TORSDOF 3
