REMARK  24 active torsions:
REMARK  status: ('A' for Active; 'I' for Inactive)
REMARK    1  A    between atoms: O_45  and  C_1 
REMARK    2  A    between atoms: C_9  and  O_23 
REMARK    3  A    between atoms: C_10  and  O_25 
REMARK    4  A    between atoms: C_26  and  O_37 
REMARK    5  A    between atoms: C_27  and  O_45 
REMARK    6  A    between atoms: C_28  and  O_40 
REMARK    7  A    between atoms: C_30  and  N_39 
REMARK    8  A    between atoms: C_31  and  O_41 
REMARK    9  A    between atoms: C_32  and  O_37 
REMARK   10  A    between atoms: C_33  and  C_46 
REMARK   11  A    between atoms: C_36  and  O_42 
REMARK   12  A    between atoms: C_46  and  O_47 
REMARK   13  A    between atoms: C_49  and  N_64 
REMARK   14  A    between atoms: C_56  and  C_60 
REMARK   15  A    between atoms: C_60  and  C_61 
REMARK       I    between atoms: C_61  and  N_62 
REMARK       I    between atoms: C_65  and  N_64 
REMARK   16  A    between atoms: C_66  and  C_65 
REMARK   17  A    between atoms: C_68  and  C_66 
REMARK   18  A    between atoms: C_66  and  N_69 
REMARK   19  A    between atoms: C_70  and  C_68 
REMARK   20  A    between atoms: C_81  and  O_83 
REMARK   21  A    between atoms: C_84  and  C_81 
REMARK   22  A    between atoms: O_93  and  C_88 
REMARK   23  A    between atoms: C_98  and  O_99 
REMARK   24  A    between atoms: C_100  and  O_101 
ROOT
HETATM    1  C   UNK N   1      -0.072   2.068   0.361  0.00  0.00     0.139 C 
HETATM    2  C   UNK N   1       1.171   1.617  -0.059  0.00  0.00     0.113 C 
HETATM    3  C   UNK N   1      -0.974   1.155   0.907  0.00  0.00     0.113 C 
HETATM    4  C   UNK N   1       0.386  -0.689   0.227  0.00  0.00    -0.021 C 
HETATM    5  C   UNK N   1      -0.718  -0.193   0.854  0.00  0.00     0.050 C 
HETATM    6  C   UNK N   1       1.357   0.193  -0.206  0.00  0.00     0.050 C 
HETATM    7  O   UNK N   1       2.218   2.477  -0.239  0.00  0.00    -0.306 OA
HETATM    8  O   UNK N   1      -2.140   1.534   1.415  0.00  0.00    -0.306 OA
HETATM    9  C   UNK N   1      -6.816  -0.930  -0.293  0.00  0.00     0.183 C 
HETATM   10  C   UNK N   1       6.091  -1.091  -0.989  0.00  0.00     0.183 C 
HETATM   11  C   UNK N   1      -5.678  -0.092   0.121  0.00  0.00    -0.025 A 
HETATM   12  C   UNK N   1       5.507   0.151  -0.384  0.00  0.00    -0.025 C 
HETATM   13  C   UNK N   1      -3.293   1.033   0.952  0.00  0.00     0.098 A 
HETATM   14  C   UNK N   1       3.469   1.978  -0.061  0.00  0.00     0.098 C 
HETATM   15  C   UNK N   1      -3.434   0.557  -0.391  0.00  0.00     0.068 A 
HETATM   16  C   UNK N   1       4.488   2.280  -0.956  0.00  0.00     0.068 C 
HETATM   17  C   UNK N   1       5.485   1.327  -1.154  0.00  0.00     0.036 C 
HETATM   18  C   UNK N   1       4.655   0.024   0.706  0.00  0.00     0.012 C 
HETATM   19  C   UNK N   1      -5.572   0.425   1.415  0.00  0.00     0.012 A 
HETATM   20  C   UNK N   1      -4.377   0.998   1.823  0.00  0.00     0.040 A 
HETATM   21  C   UNK N   1       3.663   0.950   0.890  0.00  0.00     0.040 C 
HETATM   22 Cl   UNK N   1       4.379   3.653  -2.038  0.00  0.00    -0.081 Cl
HETATM   23 Cl   UNK N   1      -2.206   0.605  -1.666  0.00  0.00    -0.081 Cl
HETATM   24  C   UNK N   1      -4.623   0.006  -0.767  0.00  0.00     0.036 A 
HETATM   25  C   UNK N   1       6.231  -2.255  -0.004  0.00  0.00     0.210 C 
HETATM   26  N   UNK N   1       1.558  -2.926  -0.333  0.00  0.00    -0.342 N 
HETATM   27  C   UNK N   1       5.016  -3.035   0.438  0.00  0.00     0.244 C 
HETATM   28  C   UNK N   1      -0.873  -2.885   0.334  0.00  0.00     0.246 C 
HETATM   29  N   UNK N   1       4.354  -3.889  -0.397  0.00  0.00    -0.345 N 
HETATM   30  C   UNK N   1       0.398  -2.163   0.048  0.00  0.00     0.210 C 
HETATM   31  C   UNK N   1       2.136  -3.780   0.547  0.00  0.00     0.241 C 
HETATM   32  C   UNK N   1       3.244  -4.680   0.111  0.00  0.00     0.185 C 
HETATM   33  O   UNK N   1       4.689  -2.960   1.614  0.00  0.00    -0.271 OA
HETATM   34  O   UNK N   1      -0.963  -3.590   1.329  0.00  0.00    -0.271 OA
HETATM   35  O   UNK N   1       1.766  -3.819   1.710  0.00  0.00    -0.271 OA
HETATM   36  C   UNK N   1      -6.283  -2.372  -0.380  0.00  0.00     0.210 C 
HETATM   37  N   UNK N   1      -1.937  -2.688  -0.490  0.00  0.00    -0.342 N 
HETATM   38  C   UNK N   1      -3.224  -3.336  -0.326  0.00  0.00     0.210 C 
HETATM   39  O   UNK N   1      -5.698  -2.630   1.901  0.00  0.00    -0.271 OA
HETATM   40  N   UNK N   1      -5.393  -2.637  -1.507  0.00  0.00    -0.343 N 
HETATM   41  C   UNK N   1      -4.082  -3.031  -1.549  0.00  0.00     0.245 C 
HETATM   42  O   UNK N   1      -3.580  -3.218  -2.647  0.00  0.00    -0.271 OA
HETATM   43  C   UNK N   1      -6.874  -5.216  -0.260  0.00  0.00     0.217 C 
HETATM   44  N   UNK N   1      -6.425  -4.496   0.921  0.00  0.00    -0.341 N 
HETATM   45  C   UNK N   1      -6.102  -3.176   0.887  0.00  0.00     0.244 C 
HETATM   46  C   UNK N   1      -4.244  -6.950  -0.118  0.00  0.00     0.011 A 
HETATM   47  C   UNK N   1      -2.997  -7.620  -0.381  0.00  0.00     0.076 A 
HETATM   48  C   UNK N   1      -3.057  -4.830  -0.292  0.00  0.00    -0.025 A 
HETATM   49  C   UNK N   1      -4.188  -5.572  -0.091  0.00  0.00     0.025 A 
HETATM   50  C   UNK N   1      -1.825  -6.876  -0.565  0.00  0.00     0.038 A 
HETATM   51  C   UNK N   1      -1.852  -5.490  -0.531  0.00  0.00     0.012 A 
HETATM   52  C   UNK N   1      -6.852  -6.734  -0.033  0.00  0.00    -0.009 A 
HETATM   53  C   UNK N   1      -8.105  -7.351   0.046  0.00  0.00     0.047 A 
HETATM   54  C   UNK N   1      -7.119  -9.499   0.370  0.00  0.00     0.074 A 
HETATM   55  C   UNK N   1      -5.644  -7.560   0.056  0.00  0.00     0.019 A 
HETATM   56  C   UNK N   1      -8.241  -8.709   0.230  0.00  0.00     0.069 A 
HETATM   57  C   UNK N   1      -5.840  -8.958   0.295  0.00  0.00     0.080 A 
HETATM   58  H   UNK N   1       1.933  -2.827  -1.238  0.00  0.00     0.163 HD
HETATM   59  H   UNK N   1       4.626  -3.969  -1.340  0.00  0.00     0.163 HD
HETATM   60  H   UNK N   1      -1.826  -2.067  -1.246  0.00  0.00     0.163 HD
HETATM   61  H   UNK N   1      -5.808  -2.511  -2.391  0.00  0.00     0.163 HD
HETATM   62  H   UNK N   1      -6.352  -4.981   1.774  0.00  0.00     0.163 HD
ENDROOT
BRANCH   1  63
HETATM   63  O   UNK N   1      -0.415   3.378   0.212  0.00  0.00    -0.312 OA
BRANCH  63  64
HETATM   64  C   UNK N   1      -1.733   3.780   0.336  0.00  0.00     0.298 C 
HETATM   65  C   UNK N   1      -1.912   5.085   1.072  0.00  0.00     0.211 C 
HETATM   66  C   UNK N   1      -2.807   6.048   0.249  0.00  0.00     0.183 C 
HETATM   67  C   UNK N   1      -4.124   5.327  -0.061  0.00  0.00     0.180 C 
HETATM   68  C   UNK N   1      -3.865   3.841  -0.382  0.00  0.00     0.179 C 
HETATM   69  O   UNK N   1      -2.536   3.632  -0.830  0.00  0.00    -0.348 OA
BRANCH  65  70
HETATM   70  O   UNK N   1      -0.715   5.537   1.671  0.00  0.00    -0.348 OA
BRANCH  70  71
HETATM   71  C   UNK N   1      -0.026   6.288   0.724  0.00  0.00     0.263 C 
HETATM   72  C   UNK N   1       1.474   5.997   0.652  0.00  0.00     0.093 C 
HETATM   73  C   UNK N   1       2.270   7.143  -0.036  0.00  0.00     0.052 C 
HETATM   74  C   UNK N   1       3.304   7.576   0.993  0.00  0.00     0.041 C 
HETATM   75  C   UNK N   1       1.417   8.371  -0.533  0.00  0.00     0.174 C 
HETATM   76  C   UNK N   1      -0.076   8.151  -0.310  0.00  0.00     0.151 C 
HETATM   77  O   UNK N   1      -0.260   7.633   0.960  0.00  0.00    -0.354 OA
HETATM   78  C   UNK N   1      -0.957   9.366  -0.530  0.00  0.00     0.042 C 
BRANCH  73  79
HETATM   79  N   UNK N   1       2.986   6.602  -1.176  0.00  0.00    -0.420 N 
HETATM   80  H   UNK N   1       2.908   5.976  -1.978  0.00  0.00     0.150 HD
HETATM   81  H   UNK N   1       3.925   6.999  -1.176  0.00  0.00     0.150 HD
ENDBRANCH  73  79
BRANCH  75  82
HETATM   82  O   UNK N   1       1.818   9.572   0.060  0.00  0.00    -0.391 OA
HETATM   83  H   UNK N   1       2.679   9.748   0.472  0.00  0.00     0.210 HD
ENDBRANCH  75  82
ENDBRANCH  70  71
ENDBRANCH  65  70
BRANCH  66  84
HETATM   84  O   UNK N   1      -2.202   6.332  -0.982  0.00  0.00    -0.390 OA
HETATM   85  H   UNK N   1      -1.822   6.068  -1.834  0.00  0.00     0.210 HD
ENDBRANCH  66  84
BRANCH  67  86
HETATM   86  O   UNK N   1      -4.982   5.412   1.035  0.00  0.00    -0.390 OA
HETATM   87  H   UNK N   1      -5.229   5.958   1.797  0.00  0.00     0.210 HD
ENDBRANCH  67  86
BRANCH  68  88
HETATM   88  C   UNK N   1      -4.919   3.266  -1.319  0.00  0.00     0.198 C 
BRANCH  88  89
HETATM   89  O   UNK N   1      -6.165   3.252  -0.684  0.00  0.00    -0.398 OA
HETATM   90  H   UNK N   1      -6.606   3.995  -0.244  0.00  0.00     0.209 HD
ENDBRANCH  88  89
ENDBRANCH  68  88
ENDBRANCH  63  64
ENDBRANCH   1  63
BRANCH  10  91
HETATM   91  O   UNK N   1       7.289  -0.796  -1.640  0.00  0.00    -0.388 OA
HETATM   92  H   UNK N   1       7.882  -1.415  -2.093  0.00  0.00     0.210 HD
ENDBRANCH  10  91
BRANCH  32  93
HETATM   93  C   UNK N   1       2.722  -5.729  -0.873  0.00  0.00     0.137 C 
BRANCH  93  94
HETATM   94  C   UNK N   1       1.980  -6.825  -0.138  0.00  0.00     0.217 C 
HETATM   95  O   UNK N   1       2.308  -7.990  -0.292  0.00  0.00    -0.274 OA
HETATM   96  N   UNK N   1       0.964  -6.529   0.699  0.00  0.00    -0.370 N 
HETATM   97  H   UNK N   1       0.781  -5.779   1.310  0.00  0.00     0.159 HD
HETATM   98  H   UNK N   1       0.253  -7.210   0.699  0.00  0.00     0.159 HD
ENDBRANCH  93  94
ENDBRANCH  32  93
BRANCH   9  99
HETATM   99  O   UNK N   1      -7.876  -0.847   0.614  0.00  0.00    -0.388 OA
HETATM  100  H   UNK N   1      -8.193  -0.181   1.243  0.00  0.00     0.210 HD
ENDBRANCH   9  99
BRANCH  25 101
HETATM  101  N   UNK N   1       7.276  -3.147  -0.379  0.00  0.00    -0.343 N 
HETATM  102  C   UNK N   1       8.108  -3.633   0.565  0.00  0.00     0.240 C 
HETATM  103  O   UNK N   1       7.961  -3.336   1.743  0.00  0.00    -0.271 OA
HETATM  104  H   UNK N   1       7.391  -3.408  -1.321  0.00  0.00     0.163 HD
BRANCH 102 105
HETATM  105  C   UNK N   1       9.196  -4.564   0.166  0.00  0.00     0.169 C 
BRANCH 105 106
HETATM  106  C   UNK N   1      10.171  -3.802  -0.718  0.00  0.00     0.038 C 
BRANCH 106 107
HETATM  107  C   UNK N   1      11.076  -2.949   0.154  0.00  0.00    -0.020 C 
HETATM  108  C   UNK N   1      12.367  -3.698   0.406  0.00  0.00     0.009 C 
HETATM  109  C   UNK N   1      11.374  -1.629  -0.525  0.00  0.00     0.009 C 
ENDBRANCH 106 107
ENDBRANCH 105 106
BRANCH 105 110
HETATM  110  N   UNK N   1       8.632  -5.691  -0.570  0.00  0.00    -0.413 N 
HETATM  111  C   UNK N   1       7.865  -6.513   0.358  0.00  0.00     0.140 C 
HETATM  112  H   UNK N   1       8.753  -5.873  -1.566  0.00  0.00     0.153 HD
ENDBRANCH 105 110
ENDBRANCH 102 105
ENDBRANCH  25 101
BRANCH  47 113
HETATM  113  O   UNK N   1      -2.886  -8.942  -0.526  0.00  0.00    -0.360 OA
HETATM  114  H   UNK N   1      -3.652  -9.473  -0.628  0.00  0.00     0.217 HD
ENDBRANCH  47 113
BRANCH  43 115
HETATM  115  C   UNK N   1      -8.193  -4.647  -0.731  0.00  0.00     0.168 C 
HETATM  116  O   UNK N   1      -8.269  -4.131  -1.834  0.00  0.00    -0.648 OA
BRANCH 115 117
HETATM  117  O   UNK N   1      -9.270  -4.658   0.077  0.00  0.00    -0.775 OA
HETATM  118  H   UNK N   1      -9.652  -4.013   0.640  0.00  0.00     0.167 HD
ENDBRANCH 115 117
ENDBRANCH  43 115
BRANCH  57 119
HETATM  119  O   UNK N   1      -4.828  -9.806   0.492  0.00  0.00    -0.360 OA
HETATM  120  H   UNK N   1      -4.988 -10.719   0.630  0.00  0.00     0.217 HD
ENDBRANCH  57 119
BRANCH  56 121
HETATM  121  O   UNK N   1      -9.463  -9.258   0.281  0.00  0.00    -0.361 OA
HETATM  122  H   UNK N   1     -10.222  -8.710   0.315  0.00  0.00     0.217 HD
ENDBRANCH  56 121
TORSDOF 24
