REMARK  6 active torsions:
REMARK  status: ('A' for Active; 'I' for Inactive)
REMARK    1  A    between atoms: C_16  and  O_1 
REMARK    2  A    between atoms: C_2  and  O_1 
REMARK    3  A    between atoms: C_3  and  C_2 
REMARK    4  A    between atoms: C_3  and  C_6 
REMARK    5  A    between atoms: C_3  and  O_5 
REMARK    6  A    between atoms: Br_18  and  Br_18 
ROOT
HETATM    1 Br   UNK N   1      -1.647   4.076   1.419  0.00  0.00     0.000 Br
ENDROOT
TORSDOF 6
