REMARK  10 active torsions:
REMARK  status: ('A' for Active; 'I' for Inactive)
REMARK    1  A    between atoms: C_28  and  N_44 
REMARK    2  A    between atoms: C_32  and  N_43 
REMARK    3  A    between atoms: C_34  and  O_57 
REMARK    4  A    between atoms: C_41  and  C_35 
REMARK    5  A    between atoms: C_40  and  C_36 
REMARK    6  A    between atoms: C_42  and  C_37 
REMARK    7  A    between atoms: C_37  and  O_56 
REMARK    8  A    between atoms: O_55  and  C_38 
REMARK    9  A    between atoms: O_53  and  C_39 
REMARK   10  A    between atoms: C_39  and  O_58 
ROOT
HETATM    1  C   UNK N   1       1.429   1.856   0.000  0.00  0.00     0.007 A 
HETATM    2  C   UNK N   1       0.000  -3.094   0.000  0.00  0.00     0.012 A 
HETATM    3  C   UNK N   1      -4.287   0.206   0.000  0.00  0.00     0.040 A 
HETATM    4  C   UNK N   1       0.000  -0.619   0.000  0.00  0.00     0.015 A 
HETATM    5  C   UNK N   1      -2.858  -0.619   0.000  0.00  0.00     0.015 A 
HETATM    6  C   UNK N   1      -1.764   0.960   0.000  0.00  0.00     0.023 A 
HETATM    7  C   UNK N   1      -3.572   2.269   0.000  0.00  0.00     0.042 A 
HETATM    8  C   UNK N   1      -1.959  -2.901   0.000  0.00  0.00     0.049 A 
HETATM    9  C   UNK N   1      -0.616   1.713   0.000  0.00  0.00     0.049 A 
HETATM   10  C   UNK N   1       2.241   0.063   0.000  0.00  0.00     0.051 A 
HETATM   11  C   UNK N   1      -5.716  -3.094   0.000  0.00  0.00     0.143 A 
HETATM   12  C   UNK N   1      -6.430  -1.856   0.000  0.00  0.00     0.143 A 
HETATM   13  C   UNK N   1       6.430  -1.856   0.000  0.00  0.00     0.201 A 
HETATM   14  C   UNK N   1      -0.334   2.775   0.000  0.00  0.00     0.202 A 
HETATM   15  C   UNK N   1       0.714   1.444   0.000  0.00  0.00     0.031 A 
HETATM   16  C   UNK N   1       5.001  -1.856   0.000  0.00  0.00     0.193 A 
HETATM   17  C   UNK N   1       4.287  -2.269   0.000  0.00  0.00     0.193 A 
HETATM   18  C   UNK N   1      -5.001  -1.031   0.000  0.00  0.00     0.059 A 
HETATM   19  C   UNK N   1      -0.714  -1.856   0.000  0.00  0.00     0.046 A 
HETATM   20  C   UNK N   1      -1.429   1.031   0.000  0.00  0.00     0.101 A 
HETATM   21  C   UNK N   1       2.858  -2.269   0.000  0.00  0.00     0.221 A 
HETATM   22  C   UNK N   1       0.000  -2.269   0.000  0.00  0.00     0.007 A 
HETATM   23  C   UNK N   1      -4.287  -0.619   0.000  0.00  0.00     0.122 A 
HETATM   24  C   UNK N   1       0.714  -1.031   0.000  0.00  0.00     0.036 A 
HETATM   25  C   UNK N   1      -2.143  -1.031   0.000  0.00  0.00     0.043 A 
HETATM   26  C   UNK N   1      -1.429   0.206   0.000  0.00  0.00     0.111 A 
HETATM   27  C   UNK N   1      -2.858   1.856   0.000  0.00  0.00     0.152 A 
HETATM   28  C   UNK N   1      -5.001  -1.856   0.000  0.00  0.00     0.114 A 
HETATM   29  C   UNK N   1       0.714   0.619   0.000  0.00  0.00     0.168 A 
HETATM   30  C   UNK N   1       2.143  -1.856   0.000  0.00  0.00     0.241 A 
HETATM   31  C   UNK N   1      -2.143   0.619   0.000  0.00  0.00     0.263 A 
HETATM   32  C   UNK N   1       0.714  -1.856   0.000  0.00  0.00     0.089 A 
HETATM   33  C   UNK N   1      -4.287  -2.269   0.000  0.00  0.00     0.195 A 
HETATM   34  C   UNK N   1      -1.429  -0.619   0.000  0.00  0.00     0.144 A 
HETATM   35  C   UNK N   1      -2.143   2.269   0.000  0.00  0.00     0.181 A 
HETATM   36  C   UNK N   1      -2.143  -1.856   0.000  0.00  0.00     0.165 A 
HETATM   37  C   UNK N   1       1.429  -0.619   0.000  0.00  0.00     0.166 A 
HETATM   38  C   UNK N   1      -0.714   0.619   0.000  0.00  0.00     0.265 A 
HETATM   39  C   UNK N   1      -3.572  -1.856   0.000  0.00  0.00     0.291 A 
HETATM   40  C   UNK N   1      -1.429  -2.269   0.000  0.00  0.00     0.081 A 
HETATM   41  C   UNK N   1      -1.429   1.856   0.000  0.00  0.00     0.089 A 
HETATM   42  C   UNK N   1       1.429   0.206   0.000  0.00  0.00     0.107 A 
HETATM   43  N   UNK N   1       1.429  -2.269   0.000  0.00  0.00    -0.390 N 
HETATM   44  N   UNK N   1      -5.716  -2.269   0.000  0.00  0.00    -0.414 N 
HETATM   45  O   UNK N   1      -4.287  -3.094   0.000  0.00  0.00    -0.389 OA
HETATM   46  O   UNK N   1      -2.143   3.094   0.000  0.00  0.00    -0.390 OA
HETATM   47  O   UNK N   1      -0.714   1.444   0.000  0.00  0.00    -0.265 OA
HETATM   48  O   UNK N   1      -0.899  -2.901   0.000  0.00  0.00    -0.388 OA
HETATM   49  O   UNK N   1       1.711   0.981   0.000  0.00  0.00    -0.385 OA
HETATM   50  O   UNK N   1       5.716  -2.269   0.000  0.00  0.00    -0.394 OA
HETATM   51  O   UNK N   1      -1.147   2.631   0.000  0.00  0.00    -0.383 OA
HETATM   52  O   UNK N   1       3.572  -1.856   0.000  0.00  0.00    -0.385 OA
HETATM   53  O   UNK N   1      -3.572  -1.031   0.000  0.00  0.00    -0.354 OA
HETATM   54  O   UNK N   1      -2.858   1.031   0.000  0.00  0.00    -0.354 OA
HETATM   55  O   UNK N   1       0.000   0.206   0.000  0.00  0.00    -0.312 OA
HETATM   56  O   UNK N   1       2.143  -1.031   0.000  0.00  0.00    -0.356 OA
HETATM   57  O   UNK N   1      -2.143  -0.206   0.000  0.00  0.00    -0.355 OA
HETATM   58  O   UNK N   1      -2.858  -2.269   0.000  0.00  0.00    -0.350 OA
HETATM   59  H   UNK N   1       1.429  -3.289   0.000  0.00  0.00     0.156 HD
HETATM   60  H   UNK N   1      -5.127  -3.579   0.000  0.00  0.00     0.210 HD
HETATM   61  H   UNK N   1      -1.303   3.579   0.000  0.00  0.00     0.210 HD
HETATM   62  H   UNK N   1      -1.230  -3.812   0.000  0.00  0.00     0.210 HD
HETATM   63  H   UNK N   1       2.666   1.150   0.000  0.00  0.00     0.210 HD
ENDROOT
TORSDOF 10
