REMARK  3 active torsions:
REMARK  status: ('A' for Active; 'I' for Inactive)
REMARK    1  A    between atoms: C_12  and  O_22 
REMARK    2  A    between atoms: C_15  and  C_24 
REMARK    3  A    between atoms: C_24  and  C_25 
ROOT
HETATM    1  C   UNK N   1       0.526  -1.738   0.804  0.00  0.00     0.011 C 
HETATM    2  C   UNK N   1       0.493  -0.207   0.917  0.00  0.00     0.018 C 
HETATM    3  C   UNK N   1      -1.959  -1.679   0.618  0.00  0.00    -0.062 A 
HETATM    4  C   UNK N   1      -0.794  -2.343   1.294  0.00  0.00     0.036 C 
HETATM    5  C   UNK N   1      -0.684   0.443   0.107  0.00  0.00     0.081 C 
HETATM    6  C   UNK N   1      -2.050  -0.148   0.650  0.00  0.00     0.022 A 
HETATM    7  C   UNK N   1      -4.151  -0.372  -0.722  0.00  0.00     0.052 A 
HETATM    8  C   UNK N   1      -4.035  -1.834  -0.660  0.00  0.00     0.172 A 
HETATM    9  C   UNK N   1      -2.878  -2.443   0.009  0.00  0.00     0.058 A 
HETATM   10  C   UNK N   1      -3.240   0.405  -0.124  0.00  0.00    -0.007 A 
HETATM   11  C   UNK N   1       0.752   2.662   0.586  0.00  0.00     0.046 C 
HETATM   12  C   UNK N   1      -0.604   2.025   0.174  0.00  0.00     0.144 C 
HETATM   13  C   UNK N   1       3.158  -0.204   0.270  0.00  0.00     0.013 C 
HETATM   14  C   UNK N   1       4.175   0.971   0.131  0.00  0.00     0.025 C 
HETATM   15  C   UNK N   1       3.359   2.282   0.445  0.00  0.00     0.130 C 
HETATM   16  O   UNK N   1      -4.898  -2.539  -1.156  0.00  0.00    -0.289 OA
HETATM   17 Cl   UNK N   1      -0.540  -0.035  -1.627  0.00  0.00    -0.115 Cl
HETATM   18  C   UNK N   1       1.925   1.835   0.076  0.00  0.00     0.001 C 
HETATM   19  C   UNK N   1       1.816   1.753  -1.459  0.00  0.00     0.019 C 
HETATM   20  C   UNK N   1       1.893   0.472   0.777  0.00  0.00     0.004 C 
HETATM   21  C   UNK N   1      -2.285   0.242   2.111  0.00  0.00     0.027 C 
HETATM   22  C   UNK N   1       4.726   0.877  -1.287  0.00  0.00     0.013 C 
HETATM   23  O   UNK N   1       3.429   2.505   1.828  0.00  0.00    -0.381 OA
HETATM   24  H   UNK N   1       3.587   2.539   2.785  0.00  0.00     0.211 HD
ENDROOT
BRANCH  15  25
HETATM   25  C   UNK N   1       3.795   3.596  -0.197  0.00  0.00     0.175 C 
HETATM   26  O   UNK N   1       3.094   4.585  -0.051  0.00  0.00    -0.293 OA
BRANCH  25  27
HETATM   27  C   UNK N   1       5.091   3.753  -0.924  0.00  0.00     0.196 C 
HETATM   28 Cl   UNK N   1       6.438   3.730   0.244  0.00  0.00    -0.122 Cl
ENDBRANCH  25  27
ENDBRANCH  15  25
BRANCH  12  29
HETATM   29  O   UNK N   1      -1.639   2.637   0.881  0.00  0.00    -0.394 OA
HETATM   30  H   UNK N   1      -1.631   3.473   1.372  0.00  0.00     0.210 HD
ENDBRANCH  12  29
TORSDOF 3
