REMARK  3 active torsions:
REMARK  status: ('A' for Active; 'I' for Inactive)
REMARK    1  A    between atoms: C_1  and  C_4 
REMARK    2  A    between atoms: C_4  and  C_7 
REMARK    3  A    between atoms: C_7  and  N_10 
ROOT
HETATM    1  C   UNK N   1      -0.454   0.519   0.000  0.00  0.00    -0.056 A 
HETATM    2  C   UNK N   1      -0.453  -0.884  -0.000  0.00  0.00     0.007 A 
HETATM    3  C   UNK N   1      -1.676   1.199   0.000  0.00  0.00     0.007 A 
HETATM    4  C   UNK N   1      -1.656  -1.594  -0.000  0.00  0.00     0.001 A 
HETATM    5  C   UNK N   1      -2.882   0.491  -0.000  0.00  0.00     0.001 A 
HETATM    6  C   UNK N   1      -2.871  -0.906  -0.000  0.00  0.00     0.000 A 
ENDROOT
BRANCH   1   7
HETATM    7  C   UNK N   1       0.810   1.335   0.000  0.00  0.00     0.062 C 
BRANCH   7   8
HETATM    8  C   UNK N   1       2.167   0.618  -0.000  0.00  0.00     0.074 C 
HETATM    9  C   UNK N   1       2.424  -0.879   0.000  0.00  0.00     0.032 C 
BRANCH   8  10
HETATM   10  N   UNK N   1       3.340   1.470   0.000  0.00  0.00    -0.426 N 
HETATM   11  H   UNK N   1       4.271   1.055   0.000  0.00  0.00     0.150 HD
HETATM   12  H   UNK N   1       3.234   2.484   0.000  0.00  0.00     0.150 HD
ENDBRANCH   8  10
ENDBRANCH   7   8
ENDBRANCH   1   7
TORSDOF 3
