REMARK  4 active torsions:
REMARK  status: ('A' for Active; 'I' for Inactive)
REMARK    1  A    between atoms: C_5  and  N_12 
REMARK    2  A    between atoms: S_14  and  C_10 
REMARK    3  A    between atoms: N_12  and  C_18 
REMARK    4  A    between atoms: N_15  and  S_14 
ROOT
HETATM    1  C   UNK N   1      16.762  -7.319   0.226  0.00  0.00     0.110 A 
HETATM    2  C   UNK N   1      16.689  -5.950   0.456  0.00  0.00    -0.005 A 
HETATM    3  S   UNK N   1      15.327  -8.343   0.222  0.00  0.00     0.186 S 
HETATM    4  S   UNK N   1      18.337  -7.699  -0.107  0.00  0.00    -0.064 SA
HETATM    5  C   UNK N   1      15.400  -5.227   0.770  0.00  0.00     0.113 C 
HETATM    6  C   UNK N   1      17.941  -5.288   0.338  0.00  0.00     0.044 A 
HETATM    7  C   UNK N   1      13.840  -7.334   0.429  0.00  0.00     0.112 C 
HETATM    8  O   UNK N   1      15.416  -9.430   1.303  0.00  0.00    -0.222 OA
HETATM    9  O   UNK N   1      15.262  -9.161  -1.077  0.00  0.00    -0.222 OA
HETATM   10  C   UNK N   1      18.985  -6.175   0.035  0.00  0.00     0.121 A 
HETATM   11  C   UNK N   1      14.222  -6.108   1.276  0.00  0.00     0.049 C 
HETATM   12  C   UNK N   1      13.282  -6.911  -0.917  0.00  0.00     0.026 C 
ENDROOT
BRANCH  10  13
HETATM   13  S   UNK N   1      20.700  -5.724  -0.220  0.00  0.00     0.263 S 
HETATM   14  O   UNK N   1      21.178  -4.272  -0.080  0.00  0.00    -0.200 OA
HETATM   15  O   UNK N   1      21.886  -6.652   0.078  0.00  0.00    -0.200 OA
BRANCH  13  16
HETATM   16  N   UNK N   1      20.583  -5.661   1.541  0.00  0.00    -0.324 N 
HETATM   17  H   UNK N   1      20.581  -5.584   2.558  0.00  0.00     0.169 HD
HETATM   18  H   UNK N   1      19.712  -6.192   1.541  0.00  0.00     0.169 HD
ENDBRANCH  13  16
ENDBRANCH  10  13
BRANCH   5  19
HETATM   19  N   UNK N   1      15.007  -4.392  -0.354  0.00  0.00    -0.413 N 
HETATM   20  H   UNK N   1      15.061  -4.640  -1.342  0.00  0.00     0.153 HD
BRANCH  19  21
HETATM   21  C   UNK N   1      14.521  -3.137   0.194  0.00  0.00     0.110 C 
HETATM   22  C   UNK N   1      13.157  -2.829  -0.385  0.00  0.00     0.026 C 
ENDBRANCH  19  21
ENDBRANCH   5  19
TORSDOF 4
