REMARK  8 active torsions:
REMARK  status: ('A' for Active; 'I' for Inactive)
REMARK    1  A    between atoms: C_7  and  C_8 
REMARK    2  A    between atoms: C_8  and  C_9 
REMARK    3  A    between atoms: C_8  and  C_18 
REMARK    4  A    between atoms: C_8  and  C_20 
REMARK    5  A    between atoms: C_9  and  C_10 
REMARK    6  A    between atoms: C_10  and  N_11 
REMARK    7  A    between atoms: N_11  and  C_12 
REMARK    8  A    between atoms: N_11  and  C_15 
REMARK       I    between atoms: C_18  and  N_19 
ROOT
HETATM    1  C   UNK N   1      -2.081  -0.516  -0.225  0.00  0.00     0.111 C 
ENDROOT
BRANCH   1   2
HETATM    2  C   UNK N   1      -3.579  -0.425  -0.517  0.00  0.00     0.031 A 
HETATM    3  N   UNK N   1      -4.370   0.461   0.160  0.00  0.00    -0.368 N 
HETATM    4  C   UNK N   1      -5.712   0.534  -0.046  0.00  0.00     0.088 A 
ATOM      5  HN  UNK N   1      -3.940   1.087   0.841  1.00  0.00     0.165 HD
HETATM    6  C   UNK N   1      -6.326  -0.315  -0.966  0.00  0.00     0.017 A 
HETATM    7  C   UNK N   1      -5.549  -1.230  -1.674  0.00  0.00     0.003 A 
HETATM    8  C   UNK N   1      -4.173  -1.290  -1.453  0.00  0.00     0.026 A 
ENDBRANCH   1   2
BRANCH   1   9
HETATM    9  C   UNK N   1      -1.322  -0.240  -1.559  0.00  0.00     0.061 C 
BRANCH   9  10
HETATM   10  C   UNK N   1       0.078   0.421  -1.552  0.00  0.00     0.275 C 
BRANCH  10  11
HETATM   11  N   UNK N   1       0.971  -0.015  -0.464  0.00  0.00     0.096 N 
BRANCH  11  12
HETATM   12  C   UNK N   1       1.824   1.147  -0.117  0.00  0.00     0.215 C 
HETATM   13  C   UNK N   1       2.770   0.854   1.040  0.00  0.00     0.042 C 
HETATM   14  C   UNK N   1       1.014   2.377   0.274  0.00  0.00     0.042 C 
ENDBRANCH  11  12
BRANCH  11  15
HETATM   15  C   UNK N   1       1.880  -1.110  -0.884  0.00  0.00     0.215 C 
HETATM   16  C   UNK N   1       1.416  -1.953  -2.069  0.00  0.00     0.042 C 
HETATM   17  C   UNK N   1       2.154  -2.035   0.291  0.00  0.00     0.042 C 
ENDBRANCH  11  15
ENDBRANCH  10  11
ENDBRANCH   9  10
ENDBRANCH   1   9
BRANCH   1  18
HETATM   18  C   UNK N   1      -1.688   0.528   0.823  0.00  0.00     0.234 C 
HETATM   19  N   UNK N   1      -1.126   0.166   1.994  0.00  0.00    -0.369 N 
HETATM   20  H   UNK N   1      -1.150  -0.321   2.849  0.00  0.00     0.159 HD
HETATM   21  H   UNK N   1      -0.251   0.616   1.994  0.00  0.00     0.159 HD
HETATM   22  O   UNK N   1      -1.878   1.715   0.595  0.00  0.00    -0.272 OA
ENDBRANCH   1  18
BRANCH   1  23
HETATM   23  C   UNK N   1      -1.833  -1.947   0.269  0.00  0.00    -0.034 A 
HETATM   24  C   UNK N   1      -2.506  -2.420   1.412  0.00  0.00     0.009 A 
HETATM   25  C   UNK N   1      -2.347  -3.742   1.836  0.00  0.00     0.001 A 
HETATM   26  C   UNK N   1      -1.519  -4.611   1.122  0.00  0.00     0.000 A 
HETATM   27  C   UNK N   1      -0.849  -4.158  -0.015  0.00  0.00     0.001 A 
HETATM   28  C   UNK N   1      -1.012  -2.838  -0.442  0.00  0.00     0.009 A 
ENDBRANCH   1  23
TORSDOF 8
