REMARK  9 active torsions:
REMARK  status: ('A' for Active; 'I' for Inactive)
REMARK    1  A    between atoms: C_5  and  C_9 
REMARK    2  A    between atoms: C_8  and  C_9 
REMARK    3  A    between atoms: C_11  and  O_15 
REMARK    4  A    between atoms: C_14  and  C_24 
REMARK    5  A    between atoms: O_15  and  C_16 
REMARK    6  A    between atoms: C_16  and  C_17 
REMARK    7  A    between atoms: C_17  and  N_18 
REMARK    8  A    between atoms: N_18  and  C_19 
REMARK    9  A    between atoms: N_18  and  C_21 
ROOT
HETATM    1  C   UNK N   1       8.557 -12.478   0.055  0.00  0.00     0.007 C 
HETATM    2  C   UNK N   1       8.741 -11.100   0.142  0.00  0.00     0.056 C 
HETATM    3 Cl   UNK N   1       7.361  -9.991   0.326  0.00  0.00    -0.082 Cl
ENDROOT
BRANCH   1   4
HETATM    4  C   UNK N   1       9.725 -13.439   0.118  0.00  0.00    -0.023 A 
HETATM    5  C   UNK N   1       9.696 -14.656  -0.587  0.00  0.00     0.015 A 
HETATM    6  C   UNK N   1      10.767 -15.552  -0.519  0.00  0.00     0.037 A 
HETATM    7  C   UNK N   1      11.879 -15.266   0.278  0.00  0.00     0.068 A 
HETATM    8  C   UNK N   1      11.894 -14.080   1.026  0.00  0.00     0.037 A 
HETATM    9  C   UNK N   1      10.829 -13.182   0.949  0.00  0.00     0.015 A 
BRANCH   7  10
HETATM   10  O   UNK N   1      12.922 -16.136   0.291  0.00  0.00    -0.349 OA
BRANCH  10  11
HETATM   11  C   UNK N   1      14.041 -16.043   1.104  0.00  0.00     0.206 C 
BRANCH  11  12
HETATM   12  C   UNK N   1      14.796 -14.722   0.947  0.00  0.00     0.299 C 
BRANCH  12  13
HETATM   13  N   UNK N   1      15.018 -14.388  -0.459  0.00  0.00     0.089 N 
BRANCH  13  14
HETATM   14  C   UNK N   1      16.327 -14.838  -0.948  0.00  0.00     0.268 C 
HETATM   15  C   UNK N   1      17.500 -14.293  -0.139  0.00  0.00     0.037 C 
ENDBRANCH  13  14
BRANCH  13  16
HETATM   16  C   UNK N   1      14.767 -12.967  -0.736  0.00  0.00     0.268 C 
HETATM   17  C   UNK N   1      15.503 -12.016   0.205  0.00  0.00     0.037 C 
ENDBRANCH  13  16
ENDBRANCH  12  13
ENDBRANCH  11  12
ENDBRANCH  10  11
ENDBRANCH   7  10
ENDBRANCH   1   4
BRANCH   1  18
HETATM   18  C   UNK N   1       7.168 -13.097  -0.041  0.00  0.00    -0.023 A 
HETATM   19  C   UNK N   1       6.971 -14.451   0.295  0.00  0.00     0.012 A 
HETATM   20  C   UNK N   1       5.707 -15.043   0.212  0.00  0.00     0.001 A 
HETATM   21  C   UNK N   1       4.612 -14.294  -0.218  0.00  0.00     0.000 A 
HETATM   22  C   UNK N   1       4.783 -12.955  -0.567  0.00  0.00     0.001 A 
HETATM   23  C   UNK N   1       6.047 -12.367  -0.479  0.00  0.00     0.012 A 
ENDBRANCH   1  18
BRANCH   2  24
HETATM   24  C   UNK N   1      10.069 -10.394   0.074  0.00  0.00    -0.014 A 
HETATM   25  C   UNK N   1      11.166 -10.923  -0.631  0.00  0.00     0.013 A 
HETATM   26  C   UNK N   1      12.361 -10.207  -0.742  0.00  0.00     0.001 A 
HETATM   27  C   UNK N   1      12.472  -8.939  -0.168  0.00  0.00     0.000 A 
HETATM   28  C   UNK N   1      11.383  -8.384   0.505  0.00  0.00     0.001 A 
HETATM   29  C   UNK N   1      10.188  -9.100   0.611  0.00  0.00     0.013 A 
ENDBRANCH   2  24
TORSDOF 9
