REMARK  17 active torsions:
REMARK  status: ('A' for Active; 'I' for Inactive)
REMARK    1  A    between atoms: C_1  and  O_9 
REMARK    2  A    between atoms: C_2  and  C_8 
REMARK    3  A    between atoms: C_3  and  C_6 
REMARK    4  A    between atoms: C_5  and  O_10 
REMARK    5  A    between atoms: C_6  and  C_20 
REMARK    6  A    between atoms: C_7  and  C_8 
REMARK    7  A    between atoms: C_11  and  C_12 
REMARK    8  A    between atoms: C_11  and  C_14 
REMARK    9  A    between atoms: C_30  and  C_12 
REMARK   10  A    between atoms: C_13  and  C_14 
REMARK   11  A    between atoms: C_13  and  O_16 
REMARK   12  A    between atoms: C_15  and  O_16 
REMARK   13  A    between atoms: C_20  and  C_21 
REMARK   14  A    between atoms: C_21  and  C_29 
REMARK   15  A    between atoms: C_21  and  O_22 
REMARK   16  A    between atoms: C_29  and  C_23 
REMARK   17  A    between atoms: C_23  and  C_24 
ROOT
HETATM    1  C   UNK N   1      -2.103   0.652  -0.064  0.00  0.00     0.125 C 
HETATM    2  C   UNK N   1      -0.739   0.037  -0.257  0.00  0.00     0.024 C 
HETATM    3  C   UNK N   1      -1.102  -1.349  -0.724  0.00  0.00     0.021 C 
HETATM    4  C   UNK N   1      -2.941  -0.463   0.551  0.00  0.00     0.064 C 
HETATM    5  C   UNK N   1      -2.177  -1.754   0.261  0.00  0.00     0.125 C 
ENDROOT
BRANCH   3   6
HETATM    6  C   UNK N   1       0.069  -2.329  -0.822  0.00  0.00     0.010 C 
BRANCH   6   7
HETATM    7  C   UNK N   1       0.971  -2.302   0.403  0.00  0.00     0.032 C 
BRANCH   7   8
HETATM    8  C   UNK N   1       2.260  -3.032   0.083  0.00  0.00     0.118 C 
BRANCH   8   9
HETATM    9  C   UNK N   1       3.452  -2.209   0.527  0.00  0.00     0.036 C 
BRANCH   9  10
HETATM   10  C   UNK N   1       4.062  -1.512  -0.677  0.00  0.00     0.041 C 
BRANCH  10  11
HETATM   11  C   UNK N   1       5.476  -1.128  -0.395  0.00  0.00    -0.058 A 
HETATM   12  C   UNK N   1       6.424  -2.107  -0.066  0.00  0.00     0.007 A 
HETATM   13  C   UNK N   1       7.748  -1.744   0.194  0.00  0.00     0.001 A 
HETATM   14  C   UNK N   1       8.131  -0.402   0.117  0.00  0.00     0.000 A 
HETATM   15  C   UNK N   1       7.189   0.574  -0.221  0.00  0.00     0.001 A 
HETATM   16  C   UNK N   1       5.863   0.213  -0.475  0.00  0.00     0.007 A 
ENDBRANCH  10  11
ENDBRANCH   9  10
ENDBRANCH   8   9
BRANCH   8  17
HETATM   17  O   UNK N   1       2.276  -4.264   0.734  0.00  0.00    -0.396 OA
HETATM   18  H   UNK N   1       1.539  -4.703   1.187  0.00  0.00     0.210 HD
ENDBRANCH   8  17
ENDBRANCH   7   8
ENDBRANCH   6   7
ENDBRANCH   3   6
BRANCH   2  19
HETATM   19  C   UNK N   1       0.090   0.801  -1.274  0.00  0.00     0.034 C 
BRANCH  19  20
HETATM   20  C   UNK N   1       1.438   1.109  -0.712  0.00  0.00    -0.030 C 
HETATM   21  C   UNK N   1       1.557   1.921   0.335  0.00  0.00    -0.031 C 
BRANCH  21  22
HETATM   22  C   UNK N   1       2.900   2.265   0.867  0.00  0.00     0.027 C 
BRANCH  22  23
HETATM   23  C   UNK N   1       3.315   3.601   0.289  0.00  0.00     0.013 C 
BRANCH  23  24
HETATM   24  C   UNK N   1       4.418   3.390  -0.729  0.00  0.00     0.111 C 
BRANCH  24  25
HETATM   25  C   UNK N   1       5.603   4.199  -0.334  0.00  0.00     0.259 C 
HETATM   26  O   UNK N   1       5.524   5.422  -0.317  0.00  0.00    -0.265 OA
BRANCH  25  27
HETATM   27  O   UNK N   1       6.746   3.571   0.035  0.00  0.00    -0.317 OA
BRANCH  27  28
HETATM   28  C   UNK N   1       7.873   4.231   0.480  0.00  0.00     0.123 C 
HETATM   29  C   UNK N   1       8.887   3.217   0.966  0.00  0.00     0.040 C 
HETATM   30  C   UNK N   1       8.496   5.052  -0.636  0.00  0.00     0.040 C 
ENDBRANCH  27  28
ENDBRANCH  25  27
ENDBRANCH  24  25
ENDBRANCH  23  24
ENDBRANCH  22  23
ENDBRANCH  21  22
ENDBRANCH  19  20
ENDBRANCH   2  19
BRANCH   5  31
HETATM   31  O   UNK N   1      -3.022  -2.707  -0.307  0.00  0.00    -0.395 OA
HETATM   32  H   UNK N   1      -3.890  -2.530  -0.702  0.00  0.00     0.210 HD
ENDBRANCH   5  31
BRANCH   1  33
HETATM   33  O   UNK N   1      -2.035   1.756   0.786  0.00  0.00    -0.395 OA
HETATM   34  H   UNK N   1      -1.346   2.099   1.377  0.00  0.00     0.210 HD
ENDBRANCH   1  33
TORSDOF 17
