REMARK WARNING: 32 MAX_TORS EXCEEDED!!!
REMARK  35 active torsions:
REMARK  status: ('A' for Active; 'I' for Inactive)
REMARK    1  A    between atoms: O_12  and  C_81 
REMARK    2  A    between atoms: O_13  and  C_97 
REMARK       I    between atoms: N_14  and  C_37 
REMARK    3  A    between atoms: C_38  and  N_15 
REMARK       I    between atoms: N_15  and  C_43 
REMARK       I    between atoms: N_16  and  C_39 
REMARK    4  A    between atoms: N_16  and  C_47 
REMARK    5  A    between atoms: C_42  and  N_17 
REMARK       I    between atoms: N_17  and  C_50 
REMARK    6  A    between atoms: N_18  and  C_46 
REMARK    7  A    between atoms: C_51  and  N_20 
REMARK       I    between atoms: N_20  and  C_56 
REMARK       I    between atoms: N_21  and  C_52 
REMARK    8  A    between atoms: C_55  and  N_23 
REMARK       I    between atoms: N_23  and  C_75 
REMARK    9  A    between atoms: C_61  and  N_24 
REMARK       I    between atoms: N_24  and  C_66 
REMARK   10  A    between atoms: C_60  and  N_25 
REMARK       I    between atoms: N_25  and  C_71 
REMARK   11  A    between atoms: C_69  and  N_26 
REMARK       I    between atoms: N_26  and  C_74 
REMARK       I    between atoms: N_27  and  C_57 
REMARK       I    between atoms: N_28  and  C_57 
REMARK   12  A    between atoms: C_33  and  C_39 
REMARK   13  A    between atoms: C_37  and  C_38 
REMARK   14  A    between atoms: C_38  and  C_40 
REMARK   15  A    between atoms: C_40  and  C_41 
REMARK   16  A    between atoms: C_41  and  C_46 
REMARK   17  A    between atoms: C_42  and  C_43 
REMARK   18  A    between atoms: C_42  and  C_44 
REMARK   19  A    between atoms: C_44  and  C_45 
REMARK   20  A    between atoms: C_47  and  C_52 
REMARK   21  A    between atoms: C_50  and  C_51 
REMARK   22  A    between atoms: C_51  and  C_53 
REMARK   23  A    between atoms: C_53  and  C_54 
REMARK   24  A    between atoms: C_55  and  C_56 
REMARK   25  A    between atoms: C_55  and  C_62 
REMARK   26  A    between atoms: C_58  and  C_66 
REMARK   27  A    between atoms: C_60  and  C_65 
REMARK   28  A    between atoms: C_60  and  C_74 
REMARK   29  A    between atoms: C_61  and  C_70 
REMARK   30  A    between atoms: C_61  and  C_71 
REMARK   31  A    between atoms: C_62  and  C_76 
REMARK   32  A    between atoms: C_65  and  C_72 
REMARK   33  A    between atoms: C_69  and  C_75 
REMARK   34  A    between atoms: C_69  and  C_81 
REMARK   35  A    between atoms: C_70  and  C_80 
ROOT
HETATM    1  O   UNK N   1       0.281  -1.379  -2.421  0.00  0.00    -0.271 OA
HETATM    2  N   UNK N   1       1.639  -0.021  -1.302  0.00  0.00    -0.346 N 
HETATM    3  C   UNK N   1       0.562  -0.830  -1.368  0.00  0.00     0.241 C 
HETATM    4  H   UNK N   1       2.245   0.037  -2.076  0.00  0.00     0.163 HD
ENDROOT
BRANCH   3   5
HETATM    5  C   UNK N   1      -0.223  -1.168  -0.140  0.00  0.00     0.180 C 
BRANCH   5   6
HETATM    6  N   UNK N   1       0.388  -2.132   0.754  0.00  0.00    -0.346 N 
HETATM    7  C   UNK N   1       1.562  -2.789   0.528  0.00  0.00     0.243 C 
HETATM    8  O   UNK N   1       2.436  -2.315  -0.184  0.00  0.00    -0.271 OA
HETATM    9  H   UNK N   1      -0.085  -2.330   1.595  0.00  0.00     0.163 HD
BRANCH   7  10
HETATM   10  C   UNK N   1       1.564  -4.256   0.784  0.00  0.00     0.200 C 
BRANCH  10  11
HETATM   11  N   UNK N   1       0.671  -4.770  -0.231  0.00  0.00    -0.344 N 
HETATM   12  C   UNK N   1      -0.672  -4.536  -0.287  0.00  0.00     0.241 C 
HETATM   13  O   UNK N   1      -1.272  -4.070   0.672  0.00  0.00    -0.271 OA
HETATM   14  H   UNK N   1       1.063  -5.333  -0.937  0.00  0.00     0.163 HD
BRANCH  12  15
HETATM   15  C   UNK N   1      -1.396  -4.846  -1.566  0.00  0.00     0.181 C 
BRANCH  15  16
HETATM   16  N   UNK N   1      -1.383  -6.272  -1.709  0.00  0.00    -0.346 N 
HETATM   17  C   UNK N   1      -0.240  -6.937  -2.005  0.00  0.00     0.241 C 
HETATM   18  O   UNK N   1       0.663  -6.380  -2.613  0.00  0.00    -0.271 OA
HETATM   19  H   UNK N   1      -2.219  -6.777  -1.590  0.00  0.00     0.163 HD
BRANCH  17  20
HETATM   20  C   UNK N   1       0.074  -8.145  -1.186  0.00  0.00     0.182 C 
BRANCH  20  21
HETATM   21  N   UNK N   1       0.353  -7.636   0.144  0.00  0.00    -0.346 N 
HETATM   22  C   UNK N   1       1.488  -7.804   0.878  0.00  0.00     0.241 C 
HETATM   23  O   UNK N   1       1.557  -7.249   1.963  0.00  0.00    -0.271 OA
HETATM   24  H   UNK N   1      -0.363  -7.107   0.565  0.00  0.00     0.163 HD
BRANCH  22  25
HETATM   25  C   UNK N   1       2.660  -8.677   0.466  0.00  0.00     0.177 C 
HETATM   26  N   UNK N   1       3.897  -7.955   0.426  0.00  0.00    -0.348 N 
HETATM   27  C   UNK N   1       4.619  -8.286  -0.643  0.00  0.00     0.218 C 
HETATM   28  H   UNK N   1       4.177  -7.297   1.103  0.00  0.00     0.163 HD
HETATM   29  O   UNK N   1       5.730  -7.826  -0.845  0.00  0.00    -0.274 OA
HETATM   30  C   UNK N   1       3.975  -9.274  -1.531  0.00  0.00     0.105 C 
HETATM   31  C   UNK N   1       2.596  -9.428  -0.877  0.00  0.00     0.044 C 
ENDBRANCH  22  25
ENDBRANCH  20  21
BRANCH  20  32
HETATM   32  C   UNK N   1      -1.163  -9.045  -1.144  0.00  0.00     0.093 C 
BRANCH  32  33
HETATM   33  C   UNK N   1      -1.102 -10.126  -0.111  0.00  0.00     0.028 A 
HETATM   34  N   UNK N   1      -2.193 -10.722   0.393  0.00  0.00    -0.354 N 
HETATM   35  C   UNK N   1      -1.723 -11.605   1.297  0.00  0.00     0.180 A 
HETATM   36  H   UNK N   1      -3.132 -10.551   0.155  0.00  0.00     0.166 HD
HETATM   37  N   UNK N   1      -0.376 -11.577   1.371  0.00  0.00    -0.360 N 
HETATM   38  C   UNK N   1       0.021 -10.647   0.486  0.00  0.00     0.114 A 
ATOM     39  HN  UNK N   1       0.218 -12.146   1.974  1.00  0.00     0.166 HD
ENDBRANCH  32  33
ENDBRANCH  20  32
ENDBRANCH  17  20
ENDBRANCH  15  16
BRANCH  15  40
HETATM   40  C   UNK N   1      -2.799  -4.229  -1.680  0.00  0.00     0.075 C 
BRANCH  40  41
HETATM   41  C   UNK N   1      -3.971  -4.843  -0.963  0.00  0.00    -0.028 A 
HETATM   42  C   UNK N   1      -4.048  -5.902  -0.080  0.00  0.00    -0.002 A 
HETATM   43  C   UNK N   1      -5.375  -6.080   0.201  0.00  0.00     0.042 A 
HETATM   44  C   UNK N   1      -3.074  -6.727   0.482  0.00  0.00     0.014 A 
HETATM   45  N   UNK N   1      -6.134  -5.179  -0.443  0.00  0.00    -0.365 N 
HETATM   46  C   UNK N   1      -5.824  -7.097   1.039  0.00  0.00     0.030 A 
HETATM   47  C   UNK N   1      -5.279  -4.411  -1.162  0.00  0.00     0.096 A 
HETATM   48  H   UNK N   1      -7.114  -5.092  -0.401  0.00  0.00     0.165 HD
HETATM   49  C   UNK N   1      -4.863  -7.950   1.609  0.00  0.00     0.002 A 
HETATM   50  C   UNK N   1      -3.492  -7.760   1.337  0.00  0.00     0.001 A 
ENDBRANCH  40  41
ENDBRANCH  15  40
ENDBRANCH  12  15
ENDBRANCH  10  11
BRANCH  10  51
HETATM   51  C   UNK N   1       2.947  -4.861   0.509  0.00  0.00     0.199 C 
BRANCH  51  52
HETATM   52  O   UNK N   1       3.911  -4.327   1.366  0.00  0.00    -0.398 OA
HETATM   53  H   UNK N   1       4.567  -4.722   1.961  0.00  0.00     0.209 HD
ENDBRANCH  51  52
ENDBRANCH  10  51
ENDBRANCH   7  10
ENDBRANCH   5   6
BRANCH   5  54
HETATM   54  C   UNK N   1      -1.067  -0.096   0.528  0.00  0.00     0.073 C 
BRANCH  54  55
HETATM   55  C   UNK N   1      -2.503  -0.526   0.530  0.00  0.00    -0.056 A 
HETATM   56  C   UNK N   1      -2.959  -1.508   1.422  0.00  0.00     0.010 A 
HETATM   57  C   UNK N   1      -4.302  -1.906   1.402  0.00  0.00     0.037 A 
HETATM   58  C   UNK N   1      -5.190  -1.327   0.489  0.00  0.00     0.065 A 
HETATM   59  C   UNK N   1      -4.736  -0.351  -0.403  0.00  0.00     0.037 A 
HETATM   60  C   UNK N   1      -3.396   0.050  -0.380  0.00  0.00     0.010 A 
BRANCH  58  61
HETATM   61  O   UNK N   1      -6.478  -1.708   0.467  0.00  0.00    -0.361 OA
HETATM   62  H   UNK N   1      -7.157  -1.063   0.453  0.00  0.00     0.217 HD
ENDBRANCH  58  61
ENDBRANCH  54  55
ENDBRANCH   5  54
ENDBRANCH   3   5
BRANCH   2  63
HETATM   63  C   UNK N   1       1.925   0.762  -0.124  0.00  0.00     0.180 C 
BRANCH  63  64
HETATM   64  C   UNK N   1       2.189   2.178  -0.436  0.00  0.00     0.241 C 
HETATM   65  O   UNK N   1       2.352   2.515  -1.603  0.00  0.00    -0.271 OA
HETATM   66  N   UNK N   1       1.790   3.068   0.493  0.00  0.00    -0.346 N 
HETATM   67  H   UNK N   1       2.110   2.981   1.420  0.00  0.00     0.163 HD
BRANCH  66  68
HETATM   68  C   UNK N   1       0.905   4.142   0.147  0.00  0.00     0.177 C 
BRANCH  68  69
HETATM   69  C   UNK N   1      -0.376   3.459  -0.268  0.00  0.00     0.241 C 
HETATM   70  O   UNK N   1      -0.374   2.764  -1.273  0.00  0.00    -0.271 OA
HETATM   71  N   UNK N   1      -1.377   3.278   0.623  0.00  0.00    -0.346 N 
HETATM   72  H   UNK N   1      -1.595   2.345   0.847  0.00  0.00     0.163 HD
BRANCH  71  73
HETATM   73  C   UNK N   1      -2.170   4.298   1.288  0.00  0.00     0.176 C 
BRANCH  73  74
HETATM   74  C   UNK N   1      -1.777   5.719   0.826  0.00  0.00     0.243 C 
HETATM   75  O   UNK N   1      -0.622   6.057   0.974  0.00  0.00    -0.271 OA
HETATM   76  N   UNK N   1      -2.647   6.593   0.222  0.00  0.00    -0.337 N 
HETATM   77  C   UNK N   1      -2.168   7.627  -0.663  0.00  0.00     0.179 A 
HETATM   78  C   UNK N   1      -4.075   6.500   0.275  0.00  0.00     0.127 A 
HETATM   79  C   UNK N   1      -3.399   8.364  -1.152  0.00  0.00     0.037 A 
HETATM   80  C   UNK N   1      -4.605   7.658  -0.546  0.00  0.00     0.022 A 
BRANCH  77  81
HETATM   81  C   UNK N   1      -1.150   8.564  -0.120  0.00  0.00     0.241 C 
HETATM   82  O   UNK N   1      -0.061   8.635  -0.674  0.00  0.00    -0.271 OA
HETATM   83  N   UNK N   1      -1.452   9.383   0.912  0.00  0.00    -0.351 N 
HETATM   84  H   UNK N   1      -2.284   9.239   1.418  0.00  0.00     0.163 HD
BRANCH  83  85
HETATM   85  C   UNK N   1      -0.576  10.464   1.281  0.00  0.00     0.225 C 
BRANCH  85  86
HETATM   86  C   UNK N   1      -0.740  11.557   0.271  0.00  0.00     0.233 C 
HETATM   87  O   UNK N   1      -1.825  12.101   0.135  0.00  0.00    -0.272 OA
HETATM   88  N   UNK N   1       0.286  11.898  -0.531  0.00  0.00    -0.369 N 
HETATM   89  H   UNK N   1       0.877  11.372  -1.117  0.00  0.00     0.159 HD
HETATM   90  H   UNK N   1       0.485  12.862  -0.531  0.00  0.00     0.159 HD
ENDBRANCH  85  86
ENDBRANCH  83  85
ENDBRANCH  77  81
ENDBRANCH  73  74
BRANCH  73  91
HETATM   91  C   UNK N   1      -3.586   3.878   0.881  0.00  0.00     0.036 C 
BRANCH  91  92
HETATM   92  C   UNK N   1      -3.648   3.726  -0.662  0.00  0.00     0.023 C 
BRANCH  92  93
HETATM   93  C   UNK N   1      -4.904   3.051  -1.143  0.00  0.00     0.138 C 
BRANCH  93  94
HETATM   94  N   UNK N   1      -6.028   3.885  -0.823  0.00  0.00    -0.227 N 
HETATM   95  C   UNK N   1      -6.858   3.556   0.101  0.00  0.00     0.665 C 
HETATM   96  N   UNK N   1      -7.928   4.419   0.410  0.00  0.00    -0.235 N 
HETATM   97  N   UNK N   1      -6.688   2.357   0.836  0.00  0.00    -0.235 N 
HETATM   98  H   UNK N   1      -7.779   5.368   0.627  0.00  0.00     0.174 HD
HETATM   99  H   UNK N   1      -8.846   4.064   0.410  0.00  0.00     0.174 HD
HETATM  100  H   UNK N   1      -7.351   1.839   1.347  0.00  0.00     0.174 HD
HETATM  101  H   UNK N   1      -5.775   1.989   0.836  0.00  0.00     0.174 HD
ATOM    102  HN  UNK N   1      -6.169   4.754  -1.337  1.00  0.00     0.177 HD
ENDBRANCH  93  94
ENDBRANCH  92  93
ENDBRANCH  91  92
ENDBRANCH  73  91
ENDBRANCH  71  73
ENDBRANCH  68  69
BRANCH  68 103
HETATM  103  C   UNK N   1       1.462   5.094  -0.917  0.00  0.00     0.038 C 
BRANCH 103 104
HETATM  104  C   UNK N   1       2.669   5.869  -0.402  0.00  0.00    -0.020 C 
HETATM  105  C   UNK N   1       3.927   5.022  -0.468  0.00  0.00     0.009 C 
HETATM  106  C   UNK N   1       2.869   7.100  -1.257  0.00  0.00     0.009 C 
ENDBRANCH 103 104
ENDBRANCH  68 103
ENDBRANCH  66  68
ENDBRANCH  63  64
BRANCH  63 107
HETATM  107  C   UNK N   1       2.545   0.126   1.121  0.00  0.00     0.073 C 
BRANCH 107 108
HETATM  108  C   UNK N   1       3.969   0.479   1.122  0.00  0.00    -0.055 A 
HETATM  109  C   UNK N   1       4.826  -0.214   0.276  0.00  0.00     0.019 A 
HETATM  110  C   UNK N   1       6.103   0.272   0.048  0.00  0.00    -0.025 A 
HETATM  111  C   UNK N   1       6.519   1.478   0.659  0.00  0.00    -0.026 A 
HETATM  112  C   UNK N   1       6.955  -0.407  -0.819  0.00  0.00     0.012 A 
HETATM  113  C   UNK N   1       5.659   2.158   1.523  0.00  0.00     0.013 A 
HETATM  114  C   UNK N   1       7.784   1.992   0.380  0.00  0.00     0.012 A 
HETATM  115  C   UNK N   1       4.377   1.663   1.747  0.00  0.00     0.008 A 
HETATM  116  C   UNK N   1       8.632   1.311  -0.499  0.00  0.00     0.001 A 
HETATM  117  C   UNK N   1       8.221   0.112  -1.091  0.00  0.00     0.001 A 
ENDBRANCH 107 108
ENDBRANCH  63 107
ENDBRANCH   2  63
TORSDOF 35
