REMARK  4 active torsions:
REMARK  status: ('A' for Active; 'I' for Inactive)
REMARK    1  A    between atoms: C_6  and  C_7 
REMARK    2  A    between atoms: C_6  and  C_8 
REMARK    3  A    between atoms: C_7  and  C_9 
REMARK    4  A    between atoms: C_8  and  C_15 
ROOT
HETATM    1  O   UNK N   1       1.170   0.029   1.175  0.00  0.00    -0.272 OA
HETATM    2  O   UNK N   1       5.124   0.315  -1.386  0.00  0.00    -0.272 OA
HETATM    3  O   UNK N   1       3.582  -3.555   0.160  0.00  0.00    -0.247 OA
HETATM    4  N   UNK N   1       2.374  -1.759   0.660  0.00  0.00    -0.278 N 
HETATM    5  N   UNK N   1       4.355  -1.615  -0.607  0.00  0.00    -0.278 N 
HETATM    6  C   UNK N   1       3.104   0.518  -0.136  0.00  0.00     0.128 A 
HETATM    7  C   UNK N   1       2.150  -0.424   0.603  0.00  0.00     0.244 A 
HETATM    8  C   UNK N   1       4.262  -0.270  -0.747  0.00  0.00     0.244 A 
HETATM    9  C   UNK N   1       3.441  -2.346   0.073  0.00  0.00     0.329 A 
HETATM   10  H   UNK N   1       1.734  -2.324   1.149  0.00  0.00     0.173 HD
HETATM   11  H   UNK N   1       5.119  -2.081  -1.018  0.00  0.00     0.173 HD
ENDROOT
BRANCH   6  12
HETATM   12  C   UNK N   1       3.648   1.580   0.873  0.00  0.00     0.008 C 
HETATM   13  C   UNK N   1       4.384   0.931   2.038  0.00  0.00     0.011 C 
BRANCH  12  14
HETATM   14  C   UNK N   1       4.572   2.639   0.266  0.00  0.00     0.001 C 
HETATM   15  C   UNK N   1       3.794   3.819  -0.282  0.00  0.00     0.005 C 
ENDBRANCH  12  14
ENDBRANCH   6  12
BRANCH   6  16
HETATM   16  C   UNK N   1       2.361   1.198  -1.314  0.00  0.00     0.056 C 
BRANCH  16  17
HETATM   17  C   UNK N   1       1.017   1.811  -1.014  0.00  0.00    -0.035 C 
HETATM   18  C   UNK N   1       0.859   2.766  -0.101  0.00  0.00     0.007 C 
ENDBRANCH  16  17
ENDBRANCH   6  16
TORSDOF 4
