REMARK  8 active torsions:
REMARK  status: ('A' for Active; 'I' for Inactive)
REMARK    1  A    between atoms: N_4  and  C_58 
REMARK    2  A    between atoms: C_14  and  O_50 
REMARK    3  A    between atoms: C_15  and  O_44 
REMARK    4  A    between atoms: C_18  and  O_45 
REMARK    5  A    between atoms: C_19  and  O_20 
REMARK    6  A    between atoms: C_31  and  O_39 
REMARK    7  A    between atoms: O_44  and  C_46 
REMARK    8  A    between atoms: C_58  and  C_59 
ROOT
HETATM    1  C   UNK N   1      16.628 -13.070  -0.306  0.00  0.00     0.107 C 
HETATM    2  C   UNK N   1      17.074 -13.829  -1.560  0.00  0.00     0.084 C 
HETATM    3  C   UNK N   1      17.309 -15.323  -1.311  0.00  0.00     0.276 C 
HETATM    4  N   UNK N   1      18.148 -15.573  -0.133  0.00  0.00     0.089 N 
HETATM    5  C   UNK N   1      17.558 -15.012   1.084  0.00  0.00     0.276 C 
HETATM    6  C   UNK N   1      17.393 -13.505   0.953  0.00  0.00     0.084 C 
HETATM    7  C   UNK N   1      13.240 -10.124   0.946  0.00  0.00     0.064 C 
HETATM    8  C   UNK N   1      13.354 -11.480   0.535  0.00  0.00     0.027 C 
HETATM    9  C   UNK N   1      12.188 -12.266   0.628  0.00  0.00     0.063 C 
HETATM   10  C   UNK N   1      11.795 -13.546   0.097  0.00  0.00     0.225 C 
HETATM   11  C   UNK N   1      11.060 -11.779   1.231  0.00  0.00     0.096 C 
HETATM   12  C   UNK N   1       9.095  -8.698  -1.440  0.00  0.00     0.044 C 
HETATM   13  C   UNK N   1      10.970 -10.498   1.737  0.00  0.00     0.007 C 
HETATM   14  C   UNK N   1      12.053  -9.644   1.563  0.00  0.00     0.089 C 
HETATM   15  C   UNK N   1       9.566  -7.793  -0.251  0.00  0.00     0.144 C 
HETATM   16  C   UNK N   1      10.645  -6.685  -0.576  0.00  0.00     0.041 C 
HETATM   17  C   UNK N   1      12.133  -4.714   0.512  0.00  0.00     0.040 C 
HETATM   18  C   UNK N   1      11.069  -5.842   0.676  0.00  0.00     0.130 C 
HETATM   19  C   UNK N   1      13.659  -4.985   0.532  0.00  0.00     0.131 C 
HETATM   20  C   UNK N   1      14.220  -5.696  -0.722  0.00  0.00     0.033 C 
HETATM   21  C   UNK N   1      15.701  -6.038  -0.781  0.00  0.00    -0.020 C 
HETATM   22  C   UNK N   1      18.580  -7.336  -0.649  0.00  0.00     0.006 C 
HETATM   23  C   UNK N   1      18.080  -6.154  -0.198  0.00  0.00     0.012 C 
HETATM   24  C   UNK N   1      16.659  -5.814   0.133  0.00  0.00    -0.003 C 
HETATM   25  C   UNK N   1      17.789  -8.597  -0.725  0.00  0.00     0.252 C 
HETATM   26  C   UNK N   1      14.366  -9.196   0.701  0.00  0.00     0.214 C 
HETATM   27  C   UNK N   1      15.624  -9.655   0.103  0.00  0.00     0.115 C 
HETATM   28  N   UNK N   1      16.620  -8.651  -0.057  0.00  0.00    -0.318 N 
HETATM   29  O   UNK N   1      12.489 -14.285  -0.584  0.00  0.00    -0.286 OA
HETATM   30  C   UNK N   1       8.209  -9.943  -1.090  0.00  0.00     0.151 C 
HETATM   31  C   UNK N   1       8.982 -11.174  -0.684  0.00  0.00     0.029 C 
HETATM   32  C   UNK N   1       8.878 -12.386  -1.279  0.00  0.00     0.137 C 
HETATM   33  O   UNK N   1       9.594 -13.504  -0.881  0.00  0.00    -0.319 OA
HETATM   34  C   UNK N   1      10.297 -13.689   0.321  0.00  0.00     0.237 C 
HETATM   35  O   UNK N   1      10.035 -12.642   1.186  0.00  0.00    -0.305 OA
HETATM   36  C   UNK N   1       9.941 -15.008   0.981  0.00  0.00     0.089 C 
HETATM   37  C   UNK N   1      20.012  -7.367  -1.073  0.00  0.00     0.054 C 
HETATM   38  C   UNK N   1      10.233  -9.088  -2.372  0.00  0.00     0.015 C 
HETATM   39  C   UNK N   1      11.717  -3.557  -0.383  0.00  0.00     0.015 C 
HETATM   40  C   UNK N   1      13.944  -4.852  -1.952  0.00  0.00     0.017 C 
HETATM   41  O   UNK N   1      14.265  -8.032   1.008  0.00  0.00    -0.285 OA
HETATM   42  C   UNK N   1      10.225  -5.804  -1.744  0.00  0.00     0.015 C 
HETATM   43  O   UNK N   1      18.205  -9.552  -1.360  0.00  0.00    -0.268 OA
HETATM   44  C   UNK N   1      15.756 -10.963  -0.145  0.00  0.00     0.089 C 
HETATM   45  C   UNK N   1      14.703 -11.918   0.048  0.00  0.00     0.071 C 
HETATM   46  N   UNK N   1      15.170 -13.112  -0.053  0.00  0.00    -0.361 N 
ATOM     47  HN  UNK N   1      14.616 -13.964   0.030  1.00  0.00     0.162 HD
HETATM   48  N   UNK N   1      16.910 -11.659  -0.478  0.00  0.00    -0.360 N 
HETATM   49  C   UNK N   1       9.702 -10.012   2.359  0.00  0.00     0.054 C 
HETATM   50  H   UNK N   1      16.410  -7.818   0.424  0.00  0.00     0.169 HD
HETATM   51  H   UNK N   1      17.762 -11.267  -0.775  0.00  0.00     0.162 HD
ENDROOT
BRANCH   4  52
HETATM   52  C   UNK N   1      19.598 -15.359  -0.341  0.00  0.00     0.276 C 
BRANCH  52  53
HETATM   53  C   UNK N   1      20.181 -14.044   0.204  0.00  0.00     0.006 C 
HETATM   54  C   UNK N   1      21.667 -14.206   0.450  0.00  0.00     0.011 C 
HETATM   55  C   UNK N   1      19.983 -12.903  -0.774  0.00  0.00     0.011 C 
ENDBRANCH  52  53
ENDBRANCH   4  52
BRANCH  14  56
HETATM   56  O   UNK N   1      11.954  -8.370   1.979  0.00  0.00    -0.359 OA
HETATM   57  H   UNK N   1      12.688  -7.866   2.269  0.00  0.00     0.217 HD
ENDBRANCH  14  56
BRANCH  30  58
HETATM   58  O   UNK N   1       7.291  -9.629  -0.079  0.00  0.00    -0.386 OA
HETATM   59  C   UNK N   1       6.029  -9.896  -0.611  0.00  0.00     0.202 C 
ENDBRANCH  30  58
BRANCH  19  60
HETATM   60  O   UNK N   1      14.002  -5.631   1.720  0.00  0.00    -0.394 OA
HETATM   61  H   UNK N   1      13.732  -6.061   2.546  0.00  0.00     0.210 HD
ENDBRANCH  19  60
BRANCH  15  62
HETATM   62  O   UNK N   1       8.470  -7.279   0.438  0.00  0.00    -0.315 OA
BRANCH  62  63
HETATM   63  C   UNK N   1       7.496  -6.474  -0.077  0.00  0.00     0.255 C 
HETATM   64  C   UNK N   1       6.411  -5.975   0.814  0.00  0.00     0.126 C 
HETATM   65  O   UNK N   1       7.485  -6.166  -1.258  0.00  0.00    -0.266 OA
ENDBRANCH  62  63
ENDBRANCH  15  62
BRANCH  18  66
HETATM   66  O   UNK N   1       9.946  -5.269   1.277  0.00  0.00    -0.395 OA
HETATM   67  H   UNK N   1       9.900  -4.394   1.694  0.00  0.00     0.210 HD
ENDBRANCH  18  66
TORSDOF 8
