REMARK  4 active torsions:
REMARK  status: ('A' for Active; 'I' for Inactive)
REMARK    1  A    between atoms: C_2  and  N_11 
REMARK    2  A    between atoms: C_10  and  N_12 
REMARK    3  A    between atoms: N_11  and  C_13 
REMARK    4  A    between atoms: C_13  and  C_14 
ROOT
HETATM    1  C   UNK N   1      -0.527   1.711  -0.000  0.00  0.00     0.073 A 
HETATM    2  C   UNK N   1      -1.808   0.878   0.000  0.00  0.00     0.081 A 
HETATM    3  C   UNK N   1      -1.835  -0.668  -0.000  0.00  0.00     0.031 A 
HETATM    4  C   UNK N   1      -0.497  -1.409   0.000  0.00  0.00     0.060 A 
HETATM    5  C   UNK N   1       0.723  -0.553   0.000  0.00  0.00     0.024 A 
HETATM    6  C   UNK N   1       0.690   0.849  -0.000  0.00  0.00     0.011 A 
HETATM    7  S   UNK N   1       2.266   1.351  -0.000  0.00  0.00    -0.057 SA
HETATM    8  N   UNK N   1       1.985  -1.106   0.000  0.00  0.00    -0.340 N 
ATOM      9  HN  UNK N   1       2.171  -2.109   0.000  1.00  0.00     0.168 HD
HETATM   10  C   UNK N   1       2.950  -0.153   0.000  0.00  0.00     0.142 A 
ENDROOT
BRANCH   2  11
HETATM   11  N   UNK N   1      -3.071   1.629  -0.000  0.00  0.00    -0.417 N 
HETATM   12  H   UNK N   1      -3.141   2.647  -0.000  0.00  0.00     0.153 HD
BRANCH  11  13
HETATM   13  C   UNK N   1      -4.213   0.720   0.000  0.00  0.00     0.113 C 
BRANCH  13  14
HETATM   14  C   UNK N   1      -5.517   1.482  -0.000  0.00  0.00     0.015 C 
HETATM   15  C   UNK N   1      -6.656   0.482   0.000  0.00  0.00     0.006 C 
ENDBRANCH  13  14
ENDBRANCH  11  13
ENDBRANCH   2  11
BRANCH  10  16
HETATM   16  N   UNK N   1       4.330  -0.433   0.000  0.00  0.00    -0.380 N 
HETATM   17  H   UNK N   1       4.643  -1.366   0.000  0.00  0.00     0.158 HD
HETATM   18  H   UNK N   1       4.982   0.305   0.000  0.00  0.00     0.158 HD
ENDBRANCH  10  16
TORSDOF 4
