REMARK  3 active torsions:
REMARK  status: ('A' for Active; 'I' for Inactive)
REMARK    1  A    between atoms: C_2  and  C_1 
REMARK    2  A    between atoms: O_3  and  C_1 
REMARK    3  A    between atoms: C_2  and  N_5 
ROOT
HETATM    1  C   UNK N   1       0.593  -0.418   0.000  0.00  0.00     0.169 C 
HETATM    2  C   UNK N   1      -0.627   0.483  -0.000  0.00  0.00     0.043 C 
ENDROOT
BRANCH   1   3
HETATM    3  C   UNK N   1       1.992   0.115  -0.000  0.00  0.00     0.162 C 
HETATM    4  O   UNK N   1       2.186   1.319  -0.000  0.00  0.00    -0.648 OA
BRANCH   3   5
HETATM    5  O   UNK N   1       3.042  -0.730  -0.000  0.00  0.00    -0.775 OA
HETATM    6  H   UNK N   1       2.898  -1.656  -0.000  0.00  0.00     0.167 HD
ENDBRANCH   3   5
ENDBRANCH   1   3
BRANCH   1   7
HETATM    7  N   UNK N   1       0.383  -1.855  -0.000  0.00  0.00    -0.418 N 
HETATM    8  H   UNK N   1      -0.565  -2.232  -0.000  0.00  0.00     0.150 HD
HETATM    9  H   UNK N   1       1.183  -2.488  -0.000  0.00  0.00     0.150 HD
ENDBRANCH   1   7
TORSDOF 3
