REMARK  11 active torsions:
REMARK  status: ('A' for Active; 'I' for Inactive)
REMARK    1  A    between atoms: C_21  and  C_4 
REMARK    2  A    between atoms: C_14  and  C_13 
REMARK    3  A    between atoms: C_18  and  C_13 
REMARK    4  A    between atoms: N_25  and  C_14 
REMARK    5  A    between atoms: C_19  and  N_27 
REMARK    6  A    between atoms: S_36  and  C_20 
REMARK    7  A    between atoms: N_29  and  C_23 
REMARK    8  A    between atoms: C_23  and  O_32 
REMARK    9  A    between atoms: N_30  and  C_24 
REMARK   10  A    between atoms: O_33  and  C_24 
REMARK   11  A    between atoms: S_36  and  N_29 
ROOT
HETATM    1  C   UNK N   1      -2.121  -1.059  -0.393  0.00  0.00     0.009 A 
HETATM    2  C   UNK N   1      -1.158   0.845  -1.548  0.00  0.00     0.009 A 
HETATM    3  C   UNK N   1      -0.850  -1.591  -0.219  0.00  0.00     0.026 A 
HETATM    4  C   UNK N   1       0.118   0.311  -1.367  0.00  0.00     0.026 A 
HETATM    5  C   UNK N   1      -2.272   0.172  -1.034  0.00  0.00    -0.057 A 
HETATM    6  C   UNK N   1       0.269  -0.897  -0.679  0.00  0.00     0.080 A 
ENDROOT
BRANCH   6   7
HETATM    7  S   UNK N   1       1.862  -1.354  -0.033  0.00  0.00     0.265 S 
HETATM    8  O   UNK N   1       1.862  -0.730   1.368  0.00  0.00    -0.200 OA
HETATM    9  O   UNK N   1       3.120  -0.691  -0.615  0.00  0.00    -0.200 OA
BRANCH   7  10
HETATM   10  N   UNK N   1       2.228  -3.016   0.381  0.00  0.00    -0.246 N 
HETATM   11  H   UNK N   1       2.952  -3.201   1.022  0.00  0.00     0.182 HD
BRANCH  10  12
HETATM   12  C   UNK N   1       1.512  -4.096  -0.179  0.00  0.00     0.227 C 
HETATM   13  N   UNK N   1       1.551  -5.246   0.402  0.00  0.00    -0.351 N 
ATOM     14  HN  UNK N   1       2.120  -5.349   1.243  1.00  0.00     0.163 HD
BRANCH  13  15
HETATM   15  C   UNK N   1       0.823  -6.397  -0.086  0.00  0.00     0.085 C 
HETATM   16  C   UNK N   1       1.136  -7.607   0.790  0.00  0.00     0.025 C 
HETATM   17  C   UNK N   1       0.405  -8.839   0.251  0.00  0.00     0.006 C 
HETATM   18  C   UNK N   1      -1.107  -8.606   0.203  0.00  0.00    -0.019 C 
HETATM   19  C   UNK N   1      -1.767  -9.798  -0.457  0.00  0.00     0.010 C 
HETATM   20  C   UNK N   1      -1.435  -7.351  -0.604  0.00  0.00     0.006 C 
HETATM   21  C   UNK N   1      -0.689  -6.140  -0.048  0.00  0.00     0.025 C 
ENDBRANCH  13  15
BRANCH  12  22
HETATM   22  O   UNK N   1       0.777  -3.913  -1.298  0.00  0.00    -0.332 OA
HETATM   23  H   UNK N   1       0.632  -3.408  -2.074  0.00  0.00     0.221 HD
ENDBRANCH  12  22
ENDBRANCH  10  12
ENDBRANCH   7  10
ENDBRANCH   6   7
BRANCH   5  24
HETATM   24  C   UNK N   1      -3.529   0.935  -0.829  0.00  0.00     0.058 C 
BRANCH  24  25
HETATM   25  C   UNK N   1      -3.549   1.406   0.640  0.00  0.00     0.128 C 
BRANCH  25  26
HETATM   26  N   UNK N   1      -2.263   1.952   1.024  0.00  0.00    -0.356 N 
HETATM   27  C   UNK N   1      -1.834   3.175   0.957  0.00  0.00     0.222 C 
ATOM     28  HN  UNK N   1      -1.599   1.277   1.403  1.00  0.00     0.163 HD
BRANCH  27  29
HETATM   29  N   UNK N   1      -2.625   4.313   0.550  0.00  0.00    -0.276 N 
HETATM   30  C   UNK N   1      -1.976   5.596   0.330  0.00  0.00     0.170 A 
HETATM   31  C   UNK N   1      -3.150   6.491   0.004  0.00  0.00    -0.054 A 
HETATM   32  C   UNK N   1      -2.996   7.946  -0.293  0.00  0.00     0.046 C 
HETATM   33  C   UNK N   1      -4.297   5.804   0.037  0.00  0.00     0.013 A 
HETATM   34  C   UNK N   1      -3.962   4.452   0.381  0.00  0.00     0.257 A 
HETATM   35  O   UNK N   1      -4.797   3.584   0.555  0.00  0.00    -0.267 OA
BRANCH  33  36
HETATM   36  C   UNK N   1      -5.719   6.258  -0.197  0.00  0.00     0.040 C 
HETATM   37  C   UNK N   1      -5.901   7.738  -0.467  0.00  0.00     0.010 C 
ENDBRANCH  33  36
ENDBRANCH  27  29
BRANCH  27  38
HETATM   38  O   UNK N   1      -0.538   3.389   1.265  0.00  0.00    -0.332 OA
HETATM   39  H   UNK N   1       0.041   2.684   1.479  0.00  0.00     0.220 HD
ENDBRANCH  27  38
ENDBRANCH  25  26
ENDBRANCH  24  25
ENDBRANCH   5  24
TORSDOF 11
