REMARK WARNING: 32 MAX_TORS EXCEEDED!!!
REMARK  35 active torsions:
REMARK  status: ('A' for Active; 'I' for Inactive)
REMARK    1  A    between atoms: C_3  and  C_9 
REMARK    2  A    between atoms: C_6  and  C_7 
REMARK    3  A    between atoms: C_7  and  N_8 
REMARK    4  A    between atoms: C_7  and  C_26 
REMARK       I    between atoms: C_9  and  N_10 
REMARK    5  A    between atoms: N_10  and  C_11 
REMARK    6  A    between atoms: C_11  and  C_12 
REMARK    7  A    between atoms: C_11  and  C_36 
REMARK       I    between atoms: C_12  and  N_13 
REMARK    8  A    between atoms: N_13  and  C_14 
REMARK    9  A    between atoms: C_14  and  C_15 
REMARK   10  A    between atoms: C_14  and  C_40 
REMARK       I    between atoms: C_15  and  N_16 
REMARK   11  A    between atoms: C_17  and  N_16 
REMARK   12  A    between atoms: C_17  and  C_18 
REMARK   13  A    between atoms: C_17  and  C_45 
REMARK       I    between atoms: C_18  and  N_19 
REMARK   14  A    between atoms: N_19  and  C_20 
REMARK   15  A    between atoms: C_23  and  C_50 
REMARK   16  A    between atoms: C_26  and  C_28 
REMARK   17  A    between atoms: C_36  and  C_37 
REMARK   18  A    between atoms: C_40  and  C_41 
REMARK   19  A    between atoms: C_41  and  C_42 
REMARK   20  A    between atoms: C_42  and  O_43 
REMARK   21  A    between atoms: C_45  and  C_46 
REMARK   22  A    between atoms: C_50  and  C_68 
REMARK   23  A    between atoms: C_51  and  C_71 
REMARK   24  A    between atoms: C_55  and  C_75 
REMARK   25  A    between atoms: C_59  and  C_82 
REMARK   26  A    between atoms: C_63  and  C_98 
REMARK   27  A    between atoms: C_68  and  C_69 
REMARK   28  A    between atoms: C_69  and  N_70 
REMARK   29  A    between atoms: C_71  and  C_73 
REMARK   30  A    between atoms: C_75  and  C_76 
REMARK   31  A    between atoms: C_82  and  C_83 
REMARK   32  A    between atoms: C_89  and  C_93 
REMARK   33  A    between atoms: C_93  and  C_94 
REMARK       I    between atoms: C_94  and  N_96 
REMARK   34  A    between atoms: C_98  and  C_100 
REMARK   35  A    between atoms: C_100  and  O_102 
ROOT
HETATM    1  C   UNK N   1      24.368 -11.298  -0.874  0.00  0.00     0.176 C 
HETATM    2  C   UNK N   1      25.145 -10.283  -0.119  0.00  0.00     0.241 C 
HETATM    3  N   UNK N   1      26.426 -10.096  -0.507  0.00  0.00    -0.346 N 
HETATM    4  C   UNK N   1      27.488  -9.621   0.347  0.00  0.00     0.176 C 
HETATM    5  C   UNK N   1      27.831 -10.669   1.370  0.00  0.00     0.241 C 
HETATM    6  N   UNK N   1      28.897 -11.492   1.209  0.00  0.00    -0.346 N 
HETATM    7  O   UNK N   1      24.731  -9.836   0.940  0.00  0.00    -0.271 OA
HETATM    8  O   UNK N   1      27.130 -10.796   2.362  0.00  0.00    -0.271 OA
HETATM    9  C   UNK N   1      24.245 -12.625  -0.141  0.00  0.00     0.035 C 
HETATM   10  C   UNK N   1      29.709 -11.610   0.009  0.00  0.00     0.180 C 
HETATM   11  C   UNK N   1      28.979 -12.423  -1.039  0.00  0.00     0.241 C 
HETATM   12  O   UNK N   1      28.285 -11.856  -1.870  0.00  0.00    -0.271 OA
HETATM   13  N   UNK N   1      29.072 -13.777  -1.073  0.00  0.00    -0.346 N 
HETATM   14  C   UNK N   1      29.894 -14.539  -0.162  0.00  0.00     0.180 C 
HETATM   15  C   UNK N   1      29.384 -14.843   1.226  0.00  0.00     0.241 C 
HETATM   16  N   UNK N   1      28.861 -16.048   1.557  0.00  0.00    -0.346 N 
HETATM   17  O   UNK N   1      29.457 -13.980   2.085  0.00  0.00    -0.271 OA
HETATM   18  C   UNK N   1      28.757 -17.131   0.614  0.00  0.00     0.182 C 
HETATM   19  C   UNK N   1      27.409 -17.118  -0.011  0.00  0.00     0.241 C 
HETATM   20  N   UNK N   1      26.311 -17.238   0.765  0.00  0.00    -0.346 N 
HETATM   21  O   UNK N   1      27.319 -16.943  -1.222  0.00  0.00    -0.271 OA
HETATM   22  C   UNK N   1      24.946 -16.990   0.333  0.00  0.00     0.186 C 
HETATM   23  C   UNK N   1      24.409 -17.940  -0.736  0.00  0.00     0.241 C 
HETATM   24  N   UNK N   1      23.073 -17.887  -1.053  0.00  0.00    -0.346 N 
HETATM   25  O   UNK N   1      25.125 -18.717  -1.285  0.00  0.00    -0.271 OA
HETATM   26  C   UNK N   1      23.028 -12.832   0.729  0.00  0.00     0.004 C 
HETATM   27  C   UNK N   1      22.156 -17.017  -0.372  0.00  0.00     0.185 C 
HETATM   28  C   UNK N   1      21.077 -16.463  -1.257  0.00  0.00     0.240 C 
HETATM   29  N   UNK N   1      21.050 -15.148  -1.576  0.00  0.00    -0.359 N 
HETATM   30  O   UNK N   1      20.199 -17.201  -1.683  0.00  0.00    -0.271 OA
HETATM   31  C   UNK N   1      22.258 -14.097   0.327  0.00  0.00     0.020 C 
HETATM   32  C   UNK N   1      22.091 -14.216  -1.193  0.00  0.00     0.122 C 
HETATM   33  H   UNK N   1      26.653 -10.298  -1.443  0.00  0.00     0.163 HD
HETATM   34  H   UNK N   1      29.143 -12.061   1.974  0.00  0.00     0.163 HD
HETATM   35  H   UNK N   1      28.553 -14.264  -1.754  0.00  0.00     0.163 HD
HETATM   36  H   UNK N   1      28.541 -16.188   2.477  0.00  0.00     0.163 HD
HETATM   37  H   UNK N   1      26.446 -17.516   1.700  0.00  0.00     0.163 HD
HETATM   38  H   UNK N   1      22.732 -18.467  -1.772  0.00  0.00     0.163 HD
HETATM   39  H   UNK N   1      20.285 -14.808  -2.093  0.00  0.00     0.162 HD
ENDROOT
BRANCH   1  40
HETATM   40  N   UNK N   1      23.254 -10.891  -1.711  0.00  0.00    -0.346 N 
HETATM   41  C   UNK N   1      22.120 -10.280  -1.293  0.00  0.00     0.241 C 
HETATM   42  O   UNK N   1      21.228 -10.073  -2.102  0.00  0.00    -0.271 OA
HETATM   43  H   UNK N   1      23.331 -11.077  -2.674  0.00  0.00     0.163 HD
BRANCH  41  44
HETATM   44  C   UNK N   1      21.937  -9.859   0.146  0.00  0.00     0.180 C 
BRANCH  44  45
HETATM   45  N   UNK N   1      21.044 -10.705   0.935  0.00  0.00    -0.346 N 
HETATM   46  C   UNK N   1      20.360 -11.806   0.516  0.00  0.00     0.241 C 
HETATM   47  O   UNK N   1      20.390 -12.168  -0.648  0.00  0.00    -0.271 OA
HETATM   48  H   UNK N   1      20.922 -10.449   1.878  0.00  0.00     0.163 HD
BRANCH  46  49
HETATM   49  C   UNK N   1      19.411 -12.494   1.442  0.00  0.00     0.177 C 
BRANCH  49  50
HETATM   50  N   UNK N   1      18.365 -11.547   1.690  0.00  0.00    -0.346 N 
HETATM   51  C   UNK N   1      17.619 -11.183   0.623  0.00  0.00     0.241 C 
HETATM   52  O   UNK N   1      17.705 -11.818  -0.426  0.00  0.00    -0.271 OA
HETATM   53  H   UNK N   1      18.198 -11.181   2.589  0.00  0.00     0.163 HD
BRANCH  51  54
HETATM   54  C   UNK N   1      16.704 -10.018   0.673  0.00  0.00     0.177 C 
BRANCH  54  55
HETATM   55  N   UNK N   1      15.440 -10.589   0.274  0.00  0.00    -0.346 N 
HETATM   56  C   UNK N   1      15.119 -10.867  -1.023  0.00  0.00     0.241 C 
HETATM   57  O   UNK N   1      15.550 -10.193  -1.945  0.00  0.00    -0.271 OA
HETATM   58  H   UNK N   1      14.776 -10.789   0.973  0.00  0.00     0.163 HD
BRANCH  56  59
HETATM   59  C   UNK N   1      14.379 -12.124  -1.337  0.00  0.00     0.184 C 
HETATM   60  C   UNK N   1      14.611 -13.184  -0.249  0.00  0.00     0.115 C 
HETATM   61  S   UNK N   1      13.303 -12.992   1.012  0.00  0.00    -0.112 SA
HETATM   62  C   UNK N   1      12.386 -12.107  -0.235  0.00  0.00     0.066 C 
HETATM   63  N   UNK N   1      13.014 -11.779  -1.291  0.00  0.00    -0.372 N 
ATOM     64  HN  UNK N   1      12.555 -11.294  -2.061  1.00  0.00     0.160 HD
BRANCH  62  65
HETATM   65  C   UNK N   1      11.068 -11.482   0.025  0.00  0.00     0.135 C 
BRANCH  65  66
HETATM   66  N   UNK N   1      10.165 -11.859  -1.052  0.00  0.00    -0.420 N 
HETATM   67  H   UNK N   1       9.619 -11.443  -1.807  0.00  0.00     0.150 HD
HETATM   68  H   UNK N   1      10.035 -12.870  -1.052  0.00  0.00     0.150 HD
ENDBRANCH  65  66
BRANCH  65  69
HETATM   69  C   UNK N   1      11.344  -9.968   0.002  0.00  0.00     0.010 C 
HETATM   70  C   UNK N   1      12.176  -9.542   1.210  0.00  0.00     0.012 C 
BRANCH  69  71
HETATM   71  C   UNK N   1      10.113  -9.100  -0.132  0.00  0.00     0.002 C 
HETATM   72  C   UNK N   1      10.535  -7.724  -0.618  0.00  0.00     0.005 C 
ENDBRANCH  69  71
ENDBRANCH  65  69
ENDBRANCH  62  65
ENDBRANCH  56  59
ENDBRANCH  54  55
BRANCH  54  73
HETATM   73  C   UNK N   1      17.219  -8.990  -0.345  0.00  0.00     0.038 C 
BRANCH  73  74
HETATM   74  C   UNK N   1      17.987  -7.827   0.226  0.00  0.00    -0.020 C 
HETATM   75  C   UNK N   1      18.424  -6.971  -0.946  0.00  0.00     0.009 C 
HETATM   76  C   UNK N   1      17.051  -7.007   1.087  0.00  0.00     0.009 C 
ENDBRANCH  73  74
ENDBRANCH  54  73
ENDBRANCH  51  54
ENDBRANCH  49  50
BRANCH  49  77
HETATM   77  C   UNK N   1      20.003 -13.080   2.716  0.00  0.00     0.045 C 
BRANCH  77  78
HETATM   78  C   UNK N   1      20.075 -14.615   2.656  0.00  0.00     0.112 C 
BRANCH  78  79
HETATM   79  C   UNK N   1      18.844 -15.257   2.073  0.00  0.00     0.139 C 
HETATM   80  O   UNK N   1      18.948 -16.033   1.138  0.00  0.00    -0.650 OA
BRANCH  79  81
HETATM   81  O   UNK N   1      17.625 -14.966   2.566  0.00  0.00    -0.776 OA
HETATM   82  H   UNK N   1      17.376 -14.131   2.910  0.00  0.00     0.167 HD
ENDBRANCH  79  81
ENDBRANCH  78  79
ENDBRANCH  77  78
ENDBRANCH  49  77
ENDBRANCH  46  49
ENDBRANCH  44  45
BRANCH  44  83
HETATM   83  C   UNK N   1      21.522  -8.384   0.284  0.00  0.00     0.013 C 
HETATM   84  C   UNK N   1      21.652  -7.956   1.733  0.00  0.00     0.012 C 
BRANCH  83  85
HETATM   85  C   UNK N   1      22.360  -7.436  -0.566  0.00  0.00     0.002 C 
HETATM   86  C   UNK N   1      21.625  -7.094  -1.849  0.00  0.00     0.005 C 
ENDBRANCH  83  85
ENDBRANCH  44  83
ENDBRANCH  41  44
ENDBRANCH   1  40
BRANCH   4  87
HETATM   87  C   UNK N   1      27.237  -8.265   0.995  0.00  0.00     0.036 C 
BRANCH  87  88
HETATM   88  C   UNK N   1      27.668  -7.137   0.079  0.00  0.00     0.021 C 
BRANCH  88  89
HETATM   89  C   UNK N   1      26.543  -6.736  -0.852  0.00  0.00     0.111 C 
BRANCH  89  90
HETATM   90  N   UNK N   1      25.495  -6.072  -0.098  0.00  0.00    -0.430 N 
HETATM   91  H   UNK N   1      25.531  -5.201   0.432  0.00  0.00     0.149 HD
HETATM   92  H   UNK N   1      24.591  -6.545  -0.098  0.00  0.00     0.149 HD
ENDBRANCH  89  90
ENDBRANCH  88  89
ENDBRANCH  87  88
ENDBRANCH   4  87
BRANCH  10  93
HETATM   93  C   UNK N   1      30.278 -10.279  -0.505  0.00  0.00     0.013 C 
HETATM   94  C   UNK N   1      31.296 -10.522  -1.610  0.00  0.00     0.012 C 
BRANCH  93  95
HETATM   95  C   UNK N   1      30.920  -9.480   0.619  0.00  0.00     0.002 C 
HETATM   96  C   UNK N   1      31.086  -8.030   0.202  0.00  0.00     0.005 C 
ENDBRANCH  93  95
ENDBRANCH  10  93
BRANCH  27  97
HETATM   97  C   UNK N   1      21.645 -17.605   0.948  0.00  0.00     0.137 C 
BRANCH  97  98
HETATM   98  C   UNK N   1      21.430 -19.086   0.899  0.00  0.00     0.217 C 
HETATM   99  O   UNK N   1      22.087 -19.812   1.627  0.00  0.00    -0.274 OA
HETATM  100  N   UNK N   1      20.529 -19.622   0.054  0.00  0.00    -0.370 N 
HETATM  101  H   UNK N   1      19.860 -19.247  -0.564  0.00  0.00     0.159 HD
HETATM  102  H   UNK N   1      20.541 -20.606   0.054  0.00  0.00     0.159 HD
ENDBRANCH  97  98
ENDBRANCH  27  97
BRANCH  14 103
HETATM  103  C   UNK N   1      31.048 -15.293  -0.799  0.00  0.00     0.073 C 
BRANCH 103 104
HETATM  104  C   UNK N   1      32.343 -14.799  -0.242  0.00  0.00    -0.056 A 
HETATM  105  C   UNK N   1      33.355 -15.710   0.072  0.00  0.00     0.007 A 
HETATM  106  C   UNK N   1      34.570 -15.252   0.591  0.00  0.00     0.001 A 
HETATM  107  C   UNK N   1      34.770 -13.884   0.807  0.00  0.00     0.000 A 
HETATM  108  C   UNK N   1      33.761 -12.971   0.493  0.00  0.00     0.001 A 
HETATM  109  C   UNK N   1      32.555 -13.426  -0.039  0.00  0.00     0.007 A 
ENDBRANCH 103 104
ENDBRANCH  14 103
BRANCH  22 110
HETATM  110  C   UNK N   1      24.779 -15.520  -0.002  0.00  0.00     0.144 C 
BRANCH 110 111
HETATM  111  C   UNK N   1      25.264 -15.092  -1.358  0.00  0.00     0.141 C 
HETATM  112  O   UNK N   1      24.702 -15.483  -2.368  0.00  0.00    -0.650 OA
BRANCH 111 113
HETATM  113  O   UNK N   1      26.276 -14.213  -1.456  0.00  0.00    -0.776 OA
HETATM  114  H   UNK N   1      27.159 -14.518  -1.524  0.00  0.00     0.167 HD
ENDBRANCH 111 113
ENDBRANCH 110 111
ENDBRANCH  22 110
BRANCH  18 115
HETATM  115  C   UNK N   1      28.998 -18.453   1.318  0.00  0.00     0.093 C 
BRANCH 115 116
HETATM  116  C   UNK N   1      29.858 -19.344   0.487  0.00  0.00     0.028 A 
HETATM  117  N   UNK N   1      30.100 -20.627   0.788  0.00  0.00    -0.354 N 
HETATM  118  C   UNK N   1      30.925 -21.062  -0.186  0.00  0.00     0.180 A 
ATOM    119  HN  UNK N   1      29.739 -21.158   1.580  1.00  0.00     0.166 HD
HETATM  120  N   UNK N   1      31.206 -20.089  -1.078  0.00  0.00    -0.360 N 
HETATM  121  C   UNK N   1      30.537 -19.002  -0.660  0.00  0.00     0.114 A 
HETATM  122  H   UNK N   1      31.784 -20.161  -1.872  0.00  0.00     0.166 HD
ENDBRANCH 115 116
ENDBRANCH  18 115
TORSDOF 35
