REMARK  0 active torsions:
REMARK  status: ('A' for Active; 'I' for Inactive)
REMARK       I    between atoms: N_1  and  C_5 
REMARK       I    between atoms: N_2  and  C_5 
ROOT
HETATM    1  N   UNK N   1       3.984   0.918   0.000  0.00  0.00    -0.235 N 
HETATM    2  N   UNK N   1       1.540   0.885   0.000  0.00  0.00    -0.235 N 
HETATM    3  N   UNK N   1       2.790  -1.085   0.000  0.00  0.00    -0.235 N 
ATOM      4  HN  UNK N   1       3.680  -1.582   0.000  1.00  0.00     0.174 HD
HETATM    5  C   UNK N   1       2.772   0.195   0.000  0.00  0.00     0.663 C 
HETATM    6  H   UNK N   1       4.843   0.438   0.000  0.00  0.00     0.174 HD
HETATM    7  H   UNK N   1       3.970   1.903   0.000  0.00  0.00     0.174 HD
HETATM    8  H   UNK N   1       1.527   1.869   0.000  0.00  0.00     0.174 HD
HETATM    9  H   UNK N   1       0.695   0.381   0.000  0.00  0.00     0.174 HD
HETATM   10  H   UNK N   1       1.944  -1.589   0.000  0.00  0.00     0.174 HD
ENDROOT
TORSDOF 0
