REMARK  21 active torsions:
REMARK  status: ('A' for Active; 'I' for Inactive)
REMARK    1  A    between atoms: C_1  and  O_9 
REMARK    2  A    between atoms: C_2  and  C_8 
REMARK    3  A    between atoms: C_5  and  C_11 
REMARK    4  A    between atoms: C_6  and  O_10 
REMARK    5  A    between atoms: C_7  and  C_8 
REMARK    6  A    between atoms: C_11  and  C_12 
REMARK    7  A    between atoms: C_13  and  C_14 
REMARK    8  A    between atoms: C_14  and  O_15 
REMARK    9  A    between atoms: O_15  and  C_16 
REMARK   10  A    between atoms: C_16  and  C_17 
REMARK   11  A    between atoms: C_17  and  C_18 
REMARK   12  A    between atoms: C_18  and  C_19 
REMARK   13  A    between atoms: C_19  and  C_20 
REMARK   14  A    between atoms: C_20  and  C_21 
REMARK   15  A    between atoms: C_21  and  C_22 
REMARK   16  A    between atoms: C_22  and  C_23 
REMARK   17  A    between atoms: C_23  and  C_24 
REMARK   18  A    between atoms: C_24  and  O_25 
REMARK   19  A    between atoms: C_29  and  C_30 
REMARK   20  A    between atoms: C_30  and  C_31 
REMARK   21  A    between atoms: C_31  and  O_34 
ROOT
HETATM    1  C   UNK N   1      10.554  -9.451  -1.549  0.00  0.00     0.155 C 
HETATM    2  C   UNK N   1      10.730 -10.987  -1.501  0.00  0.00     0.043 C 
HETATM    3  C   UNK N   1      11.812 -11.358  -0.489  0.00  0.00     0.175 C 
HETATM    4  O   UNK N   1      11.397 -10.972   0.803  0.00  0.00    -0.382 OA
HETATM    5  C   UNK N   1      11.339  -9.555   0.936  0.00  0.00     0.156 C 
HETATM    6  C   UNK N   1      11.248  -8.743  -0.379  0.00  0.00     0.176 C 
ENDROOT
BRANCH   5   7
HETATM    7  C   UNK N   1      12.504  -9.057   1.800  0.00  0.00     0.068 C 
BRANCH   7   8
HETATM    8  C   UNK N   1      13.840  -9.457   1.238  0.00  0.00    -0.075 C 
HETATM    9  C   UNK N   1      14.173  -9.043   0.001  0.00  0.00     0.084 C 
HETATM   10  C   UNK N   1      14.672 -10.416   2.024  0.00  0.00     0.043 C 
BRANCH   9  11
HETATM   11  C   UNK N   1      15.403  -9.314  -0.781  0.00  0.00     0.283 C 
HETATM   12  O   UNK N   1      15.290  -9.430  -1.991  0.00  0.00    -0.260 OA
BRANCH  11  13
HETATM   13  O   UNK N   1      16.647  -9.360  -0.247  0.00  0.00    -0.318 OA
BRANCH  13  14
HETATM   14  C   UNK N   1      16.970  -9.035   1.049  0.00  0.00     0.179 C 
BRANCH  14  15
HETATM   15  C   UNK N   1      18.475  -9.127   1.263  0.00  0.00     0.027 C 
BRANCH  15  16
HETATM   16  C   UNK N   1      19.075 -10.402   0.674  0.00  0.00     0.002 C 
BRANCH  16  17
HETATM   17  C   UNK N   1      19.267 -10.253  -0.834  0.00  0.00     0.000 C 
BRANCH  17  18
HETATM   18  C   UNK N   1      20.614  -9.648  -1.219  0.00  0.00     0.000 C 
BRANCH  18  19
HETATM   19  C   UNK N   1      20.847  -8.266  -0.618  0.00  0.00     0.001 C 
BRANCH  19  20
HETATM   20  C   UNK N   1      21.529  -8.394   0.740  0.00  0.00     0.010 C 
BRANCH  20  21
HETATM   21  C   UNK N   1      23.050  -8.426   0.629  0.00  0.00     0.110 C 
BRANCH  21  22
HETATM   22  C   UNK N   1      23.546  -9.580  -0.185  0.00  0.00     0.139 C 
HETATM   23  O   UNK N   1      23.292 -10.727   0.148  0.00  0.00    -0.650 OA
BRANCH  22  24
HETATM   24  O   UNK N   1      24.272  -9.349  -1.294  0.00  0.00    -0.776 OA
HETATM   25  H   UNK N   1      24.665  -9.706  -2.066  0.00  0.00     0.167 HD
ENDBRANCH  22  24
ENDBRANCH  21  22
ENDBRANCH  20  21
ENDBRANCH  19  20
ENDBRANCH  18  19
ENDBRANCH  17  18
ENDBRANCH  16  17
ENDBRANCH  15  16
ENDBRANCH  14  15
ENDBRANCH  13  14
ENDBRANCH  11  13
ENDBRANCH   9  11
ENDBRANCH   7   8
ENDBRANCH   5   7
BRANCH   6  26
HETATM   26  O   UNK N   1      10.770  -7.448  -0.167  0.00  0.00    -0.390 OA
HETATM   27  H   UNK N   1      11.383  -6.710  -0.020  0.00  0.00     0.210 HD
ENDBRANCH   6  26
BRANCH   1  28
HETATM   28  O   UNK N   1       9.227  -9.050  -1.724  0.00  0.00    -0.392 OA
HETATM   29  H   UNK N   1       9.007  -8.113  -1.846  0.00  0.00     0.210 HD
ENDBRANCH   1  28
BRANCH   2  30
HETATM   30  C   UNK N   1       9.449 -11.796  -1.246  0.00  0.00     0.044 C 
BRANCH  30  31
HETATM   31  C   UNK N   1       8.613 -11.285  -0.079  0.00  0.00     0.152 A 
HETATM   32  O   UNK N   1       7.755 -12.308   0.366  0.00  0.00    -0.375 OA
HETATM   33  C   UNK N   1       7.198 -11.359  -0.507  0.00  0.00     0.157 A 
BRANCH  33  34
HETATM   34  C   UNK N   1       6.284 -10.428   0.279  0.00  0.00     0.041 C 
HETATM   35  C   UNK N   1       6.618  -8.983  -0.072  0.00  0.00     0.015 C 
BRANCH  34  36
HETATM   36  C   UNK N   1       4.835 -10.736  -0.103  0.00  0.00     0.120 C 
HETATM   37  C   UNK N   1       3.856  -9.821   0.611  0.00  0.00     0.040 C 
BRANCH  36  38
HETATM   38  O   UNK N   1       4.524 -12.061   0.212  0.00  0.00    -0.396 OA
HETATM   39  H   UNK N   1       3.620 -12.334   0.431  0.00  0.00     0.210 HD
ENDBRANCH  36  38
ENDBRANCH  34  36
ENDBRANCH  33  34
ENDBRANCH  30  31
ENDBRANCH   2  30
TORSDOF 21
