REMARK  22 active torsions:
REMARK  status: ('A' for Active; 'I' for Inactive)
REMARK    1  A    between atoms: C_2  and  O_3 
REMARK    2  A    between atoms: C_4  and  O_5 
REMARK    3  A    between atoms: C_6  and  C_7 
REMARK    4  A    between atoms: C_7  and  C_8 
REMARK    5  A    between atoms: C_9  and  C_10 
REMARK    6  A    between atoms: C_10  and  C_11 
REMARK    7  A    between atoms: C_11  and  C_12 
REMARK    8  A    between atoms: C_12  and  C_14 
REMARK    9  A    between atoms: C_16  and  C_17 
REMARK   10  A    between atoms: C_18  and  C_24 
REMARK   11  A    between atoms: C_24  and  C_19 
REMARK   12  A    between atoms: C_19  and  C_20 
REMARK   13  A    between atoms: C_20  and  C_21 
REMARK   14  A    between atoms: C_21  and  C_22 
REMARK   15  A    between atoms: C_24  and  O_25 
REMARK   16  A    between atoms: C_28  and  O_27 
REMARK   17  A    between atoms: C_29  and  C_28 
REMARK   18  A    between atoms: C_30  and  C_29 
REMARK   19  A    between atoms: C_29  and  N_32 
REMARK   20  A    between atoms: C_29  and  C_33 
REMARK   21  A    between atoms: O_31  and  C_30 
REMARK   22  A    between atoms: C_33  and  O_34 
ROOT
HETATM    1  C   UNK N   1       9.125  -9.225   0.339  0.00  0.00     0.186 C 
ENDROOT
BRANCH   1   2
HETATM    2  C   UNK N   1       7.743  -9.030  -0.272  0.00  0.00     0.207 C 
BRANCH   2   3
HETATM    3  O   UNK N   1       6.782  -8.794   0.715  0.00  0.00    -0.398 OA
HETATM    4  H   UNK N   1       6.590  -8.135   1.400  0.00  0.00     0.209 HD
ENDBRANCH   2   3
ENDBRANCH   1   2
BRANCH   1   5
HETATM    5  C   UNK N   1      10.102  -9.443  -0.817  0.00  0.00     0.207 C 
BRANCH   5   6
HETATM    6  O   UNK N   1      11.417  -9.574  -0.366  0.00  0.00    -0.398 OA
HETATM    7  H   UNK N   1      11.795 -10.411  -0.052  0.00  0.00     0.209 HD
ENDBRANCH   5   6
ENDBRANCH   1   5
BRANCH   1   8
HETATM    8  N   UNK N   1       9.498  -8.027   1.074  0.00  0.00    -0.064 N 
HETATM    9  H   UNK N   1      10.357  -7.833   1.589  0.00  0.00     0.275 HD
HETATM   10  H   UNK N   1       8.807  -7.277   1.074  0.00  0.00     0.275 HD
HETATM   11  H   UNK N   1       9.655  -7.142   1.557  0.00  0.00     0.275 HD
ENDBRANCH   1   8
BRANCH   1  12
HETATM   12  C   UNK N   1       9.086 -10.430   1.285  0.00  0.00     0.207 C 
BRANCH  12  13
HETATM   13  O   UNK N   1      10.315 -10.635   1.914  0.00  0.00    -0.398 OA
HETATM   14  H   UNK N   1      10.619 -11.446   2.351  0.00  0.00     0.209 HD
ENDBRANCH  12  13
ENDBRANCH   1  12
TORSDOF 22
