REMARK  12 active torsions:
REMARK  status: ('A' for Active; 'I' for Inactive)
REMARK    1  A    between atoms: C_42  and  C_8 
REMARK    2  A    between atoms: C_43  and  C_9 
REMARK    3  A    between atoms: O_59  and  C_27 
REMARK    4  A    between atoms: C_45  and  C_32 
REMARK    5  A    between atoms: O_56  and  C_35 
REMARK    6  A    between atoms: C_39  and  O_59 
REMARK    7  A    between atoms: C_45  and  C_40 
REMARK    8  A    between atoms: O_57  and  C_40 
REMARK    9  A    between atoms: C_46  and  C_41 
REMARK   10  A    between atoms: O_58  and  C_41 
REMARK   11  A    between atoms: C_42  and  O_54 
REMARK   12  A    between atoms: C_46  and  O_55 
ROOT
HETATM    1  C   UNK N   1       2.653  -5.103  -0.260  0.00  0.00     0.150 C 
HETATM    2  C   UNK N   1      -2.186  -0.508  -2.043  0.00  0.00    -0.000 C 
HETATM    3  C   UNK N   1      -2.161  -1.806  -1.722  0.00  0.00    -0.015 C 
HETATM    4  C   UNK N   1       0.864  -1.844  -1.454  0.00  0.00     0.049 C 
HETATM    5  C   UNK N   1      -1.664   0.458  -1.009  0.00  0.00     0.300 C 
HETATM    6  C   UNK N   1       0.491  -0.385  -1.567  0.00  0.00     0.274 C 
HETATM    7  C   UNK N   1       2.619  -0.321   0.403  0.00  0.00     0.022 C 
HETATM    8  C   UNK N   1       4.167  -2.631   0.059  0.00  0.00     0.067 C 
HETATM    9  C   UNK N   1       2.075  -1.627   0.553  0.00  0.00    -0.018 C 
HETATM   10  C   UNK N   1       3.969  -0.143  -0.015  0.00  0.00     0.000 C 
HETATM   11  C   UNK N   1       2.867  -2.733   0.454  0.00  0.00     0.040 C 
HETATM   12  C   UNK N   1       4.704  -1.383  -0.272  0.00  0.00     0.078 C 
HETATM   13  C   UNK N   1      -0.596  -1.369   0.286  0.00  0.00     0.253 C 
HETATM   14  C   UNK N   1       0.704  -3.589   0.449  0.00  0.00     0.146 C 
HETATM   15  C   UNK N   1      -1.730  -3.803  -0.258  0.00  0.00     0.193 C 
HETATM   16  C   UNK N   1      -1.849  -2.211  -0.289  0.00  0.00     0.039 C 
HETATM   17  C   UNK N   1       0.711  -2.086   0.042  0.00  0.00     0.047 C 
HETATM   18  C   UNK N   1      -0.292  -4.432  -0.404  0.00  0.00     0.194 C 
HETATM   19  N   UNK N   1       2.119  -3.920   0.379  0.00  0.00    -0.375 N 
HETATM   20  N   UNK N   1      -0.415  -0.079  -0.439  0.00  0.00     0.098 N 
ENDROOT
BRANCH  10  21
HETATM   21  C   UNK N   1       4.424   1.294  -0.574  0.00  0.00     0.121 C 
HETATM   22  C   UNK N   1       5.722   1.110  -1.413  0.00  0.00     0.038 C 
HETATM   23  C   UNK N   1       7.027   1.111  -0.641  0.00  0.00     0.018 C 
HETATM   24  C   UNK N   1       7.892  -0.105  -0.368  0.00  0.00     0.046 C 
HETATM   25  C   UNK N   1       7.905   2.106  -1.368  0.00  0.00     0.277 C 
HETATM   26  C   UNK N   1       9.262   0.268   0.209  0.00  0.00     0.084 C 
HETATM   27  C   UNK N   1       9.347   1.777   0.603  0.00  0.00     0.310 C 
HETATM   28  N   UNK N   1       8.850   2.714  -0.445  0.00  0.00     0.092 N 
HETATM   29  C   UNK N   1       8.130   3.862   0.136  0.00  0.00     0.277 C 
HETATM   30  C   UNK N   1       7.001   3.421   1.088  0.00  0.00     0.072 C 
HETATM   31  C   UNK N   1       5.541   3.603   0.679  0.00  0.00    -0.020 A 
HETATM   32  C   UNK N   1       4.996   4.878   0.734  0.00  0.00    -0.001 A 
HETATM   33  C   UNK N   1       4.461   2.729   0.210  0.00  0.00     0.040 A 
HETATM   34  C   UNK N   1       5.587   6.114   0.990  0.00  0.00     0.014 A 
HETATM   35  C   UNK N   1       3.683   4.772   0.414  0.00  0.00     0.043 A 
HETATM   36  C   UNK N   1       4.784   7.269   0.884  0.00  0.00     0.001 A 
HETATM   37  C   UNK N   1       3.415   7.154   0.557  0.00  0.00     0.002 A 
HETATM   38  C   UNK N   1       2.850   5.891   0.324  0.00  0.00     0.030 A 
HETATM   39  N   UNK N   1       3.345   3.524   0.123  0.00  0.00    -0.357 N 
HETATM   40  H   UNK N   1       2.441   3.217  -0.117  0.00  0.00     0.166 HD
BRANCH  26  41
HETATM   41  C   UNK N   1       9.512  -0.628   1.424  0.00  0.00     0.035 C 
HETATM   42  C   UNK N   1      10.950  -0.560   1.914  0.00  0.00     0.008 C 
ENDBRANCH  26  41
BRANCH  26  43
HETATM   43  O   UNK N   1      10.202  -0.017  -0.780  0.00  0.00    -0.388 OA
HETATM   44  H   UNK N   1      10.357  -0.683  -1.468  0.00  0.00     0.210 HD
ENDBRANCH  26  43
BRANCH  21  45
HETATM   45  C   UNK N   1       3.312   1.585  -1.622  0.00  0.00     0.278 C 
HETATM   46  O   UNK N   1       3.566   1.679  -2.813  0.00  0.00    -0.264 OA
BRANCH  45  47
HETATM   47  O   UNK N   1       2.048   1.856  -1.178  0.00  0.00    -0.325 OA
HETATM   48  C   UNK N   1       1.106   2.520  -1.931  0.00  0.00     0.213 C 
ENDBRANCH  45  47
ENDBRANCH  21  45
ENDBRANCH  10  21
BRANCH  12  49
HETATM   49  O   UNK N   1       5.839  -1.406  -0.992  0.00  0.00    -0.355 OA
HETATM   50  C   UNK N   1       6.418  -2.546  -1.521  0.00  0.00     0.210 C 
ENDBRANCH  12  49
BRANCH  16  51
HETATM   51  C   UNK N   1      -3.130  -1.742   0.454  0.00  0.00     0.014 C 
HETATM   52  C   UNK N   1      -3.084  -1.880   1.972  0.00  0.00     0.006 C 
ENDBRANCH  16  51
BRANCH  18  53
HETATM   53  C   UNK N   1      -0.308  -5.910   0.034  0.00  0.00     0.298 C 
HETATM   54  O   UNK N   1       0.338  -6.254   1.013  0.00  0.00    -0.262 OA
BRANCH  53  55
HETATM   55  O   UNK N   1      -1.028  -6.861  -0.618  0.00  0.00    -0.324 OA
HETATM   56  C   UNK N   1      -1.743  -6.643  -1.771  0.00  0.00     0.213 C 
ENDBRANCH  53  55
ENDBRANCH  18  53
BRANCH  18  57
HETATM   57  O   UNK N   1       0.111  -4.389  -1.744  0.00  0.00    -0.375 OA
HETATM   58  H   UNK N   1       0.276  -4.616  -2.673  0.00  0.00     0.211 HD
ENDBRANCH  18  57
BRANCH  15  59
HETATM   59  O   UNK N   1      -2.381  -4.327   0.852  0.00  0.00    -0.311 OA
BRANCH  59  60
HETATM   60  C   UNK N   1      -3.641  -4.866   0.797  0.00  0.00     0.255 C 
HETATM   61  C   UNK N   1      -4.522  -4.730  -0.416  0.00  0.00     0.126 C 
HETATM   62  O   UNK N   1      -4.093  -5.429   1.778  0.00  0.00    -0.266 OA
ENDBRANCH  59  60
ENDBRANCH  15  59
TORSDOF 12
