REMARK  5 active torsions:
REMARK  status: ('A' for Active; 'I' for Inactive)
REMARK    1  A    between atoms: C_2  and  O_6 
REMARK    2  A    between atoms: C_3  and  C_2 
REMARK    3  A    between atoms: C_13  and  C_3 
REMARK    4  A    between atoms: C_14  and  C_3 
REMARK    5  A    between atoms: C_7  and  O_6 
ROOT
HETATM    1  C   UNK N   1       1.380  -1.190   0.612  0.00  0.00     0.201 C 
HETATM    2  O   UNK N   1       1.202  -1.252   2.001  0.00  0.00    -0.371 OA
HETATM    3  H   UNK N   1       1.103  -1.167   2.962  0.00  0.00     0.212 HD
ENDROOT
BRANCH   1   4
HETATM    4  C   UNK N   1       0.064  -1.728   0.007  0.00  0.00     0.303 C 
HETATM    5  O   UNK N   1      -0.244  -2.870   0.291  0.00  0.00    -0.261 OA
BRANCH   4   6
HETATM    6  O   UNK N   1      -0.823  -1.030  -0.767  0.00  0.00    -0.313 OA
BRANCH   6   7
HETATM    7  C   UNK N   1      -0.886   0.287  -1.162  0.00  0.00     0.136 C 
HETATM    8  C   UNK N   1      -0.932   1.258   0.039  0.00  0.00     0.066 C 
HETATM    9  C   UNK N   1      -2.327   1.395   0.686  0.00  0.00     0.193 C 
HETATM   10  N   UNK N   1      -3.311   1.847  -0.311  0.00  0.00    -0.058 N 
HETATM   11  C   UNK N   1      -2.814   0.005   1.107  0.00  0.00     0.036 C 
HETATM   12  C   UNK N   1      -3.446   0.641  -1.143  0.00  0.00     0.193 C 
HETATM   13  C   UNK N   1      -2.904   3.043  -1.064  0.00  0.00     0.238 C 
HETATM   14  C   UNK N   1      -4.587   2.184   0.345  0.00  0.00     0.238 C 
HETATM   15  C   UNK N   1      -2.164   0.448  -2.011  0.00  0.00     0.066 C 
HETATM   16  C   UNK N   1      -3.566  -0.509  -0.130  0.00  0.00     0.036 C 
HETATM   17  C   UNK N   1      -3.658   4.219  -0.495  0.00  0.00     0.030 C 
HETATM   18  C   UNK N   1      -4.941   3.616   0.004  0.00  0.00     0.030 C 
ENDBRANCH   6   7
ENDBRANCH   4   6
ENDBRANCH   1   4
BRANCH   1  19
HETATM   19  C   UNK N   1       2.564  -2.093   0.266  0.00  0.00    -0.009 A 
HETATM   20  C   UNK N   1       2.453  -3.154  -0.650  0.00  0.00     0.011 A 
HETATM   21  C   UNK N   1       3.563  -3.945  -0.959  0.00  0.00     0.001 A 
HETATM   22  C   UNK N   1       4.797  -3.683  -0.359  0.00  0.00     0.000 A 
HETATM   23  C   UNK N   1       4.922  -2.632   0.551  0.00  0.00     0.001 A 
HETATM   24  C   UNK N   1       3.814  -1.842   0.862  0.00  0.00     0.011 A 
ENDBRANCH   1  19
BRANCH   1  25
HETATM   25  C   UNK N   1       1.803   0.219   0.226  0.00  0.00    -0.009 A 
HETATM   26  C   UNK N   1       2.174   0.519  -1.098  0.00  0.00     0.011 A 
HETATM   27  C   UNK N   1       2.648   1.792  -1.428  0.00  0.00     0.001 A 
HETATM   28  C   UNK N   1       2.761   2.777  -0.443  0.00  0.00     0.000 A 
HETATM   29  C   UNK N   1       2.399   2.491   0.875  0.00  0.00     0.001 A 
HETATM   30  C   UNK N   1       1.932   1.218   1.210  0.00  0.00     0.011 A 
ENDBRANCH   1  25
TORSDOF 5
