REMARK  3 active torsions:
REMARK  status: ('A' for Active; 'I' for Inactive)
REMARK    1  A    between atoms: C_1  and  O_21 
REMARK    2  A    between atoms: C_2  and  C_10 
REMARK       I    between atoms: C_10  and  N_12 
REMARK    3  A    between atoms: N_12  and  C_13 
ROOT
HETATM    1  C   UNK N   1      -2.039   0.833  -0.089  0.00  0.00     0.117 A 
HETATM    2  C   UNK N   1      -0.792   0.244   0.036  0.00  0.00     0.147 A 
HETATM    3  N   UNK N   1      -0.646  -1.203   0.191  0.00  0.00    -0.268 N 
HETATM    4  S   UNK N   1      -2.024  -2.274   0.141  0.00  0.00     0.266 S 
HETATM    5  C   UNK N   1      -3.316   0.068  -0.100  0.00  0.00     0.063 A 
HETATM    6  C   UNK N   1      -3.453  -1.297  -0.015  0.00  0.00     0.100 A 
HETATM    7  C   UNK N   1      -4.788  -1.775  -0.066  0.00  0.00     0.034 A 
HETATM    8  C   UNK N   1      -5.729  -0.742  -0.198  0.00  0.00     0.052 A 
HETATM    9  S   UNK N   1      -4.849   0.675  -0.241  0.00  0.00    -0.098 SA
HETATM   10  C   UNK N   1       0.624  -1.825   0.476  0.00  0.00     0.170 C 
HETATM   11  O   UNK N   1      -1.923  -3.109   1.426  0.00  0.00    -0.200 OA
HETATM   12  O   UNK N   1      -1.730  -3.245  -1.013  0.00  0.00    -0.200 OA
ENDROOT
BRANCH   2  13
HETATM   13  C   UNK N   1       0.454   1.115   0.004  0.00  0.00     0.277 C 
HETATM   14  O   UNK N   1       0.365   2.336   0.004  0.00  0.00    -0.266 OA
HETATM   15  N   UNK N   1       1.675   0.524  -0.058  0.00  0.00    -0.308 N 
HETATM   16  H   UNK N   1       1.668  -0.460  -0.086  0.00  0.00     0.170 HD
BRANCH  15  17
HETATM   17  C   UNK N   1       2.961   1.127  -0.089  0.00  0.00     0.107 A 
HETATM   18  C   UNK N   1       3.142   2.514   0.007  0.00  0.00     0.048 A 
HETATM   19  C   UNK N   1       4.437   3.037  -0.008  0.00  0.00     0.005 A 
HETATM   20  C   UNK N   1       5.533   2.180  -0.117  0.00  0.00     0.017 A 
HETATM   21  C   UNK N   1       5.316   0.806  -0.212  0.00  0.00     0.089 A 
HETATM   22  N   UNK N   1       4.049   0.316  -0.194  0.00  0.00    -0.352 N 
ATOM     23  HN  UNK N   1       3.909  -0.692  -0.262  1.00  0.00     0.166 HD
ENDBRANCH  15  17
ENDBRANCH   2  13
BRANCH   1  24
HETATM   24  O   UNK N   1      -2.142   2.172  -0.223  0.00  0.00    -0.357 OA
HETATM   25  H   UNK N   1      -1.372   2.699  -0.316  0.00  0.00     0.217 HD
ENDBRANCH   1  24
TORSDOF 3
