REMARK  18 active torsions:
REMARK  status: ('A' for Active; 'I' for Inactive)
REMARK    1  A    between atoms: C_1  and  O_13 
REMARK    2  A    between atoms: C_4  and  O_16 
REMARK    3  A    between atoms: C_11  and  O_37 
REMARK    4  A    between atoms: C_12  and  C_49 
REMARK    5  A    between atoms: C_15  and  O_13 
REMARK    6  A    between atoms: C_20  and  O_16 
REMARK    7  A    between atoms: C_17  and  O_23 
REMARK    8  A    between atoms: C_22  and  N_31 
REMARK    9  A    between atoms: N_25  and  O_42 
REMARK   10  A    between atoms: C_38  and  O_40 
REMARK   11  A    between atoms: C_41  and  O_51 
REMARK   12  A    between atoms: O_42  and  C_43 
REMARK   13  A    between atoms: C_43  and  O_44 
REMARK   14  A    between atoms: O_44  and  C_45 
REMARK   15  A    between atoms: C_45  and  C_46 
REMARK   16  A    between atoms: C_46  and  O_47 
REMARK   17  A    between atoms: C_54  and  O_56 
REMARK   18  A    between atoms: C_55  and  O_57 
ROOT
HETATM    1  C   UNK N   1       2.133  -0.112  -0.878  0.00  0.00     0.165 C 
HETATM    2  C   UNK N   1       0.888  -0.628  -0.099  0.00  0.00     0.043 C 
HETATM    3  C   UNK N   1       1.114   2.303  -1.202  0.00  0.00     0.050 C 
HETATM    4  C   UNK N   1       0.504  -2.102  -0.418  0.00  0.00     0.144 C 
HETATM    5  C   UNK N   1       0.486   2.642   0.164  0.00  0.00     0.033 C 
HETATM    6  C   UNK N   1      -0.842  -2.565   0.204  0.00  0.00     0.111 C 
HETATM    7  C   UNK N   1      -0.630   3.662   0.008  0.00  0.00     0.020 C 
HETATM    8  C   UNK N   1      -2.018  -1.674  -0.085  0.00  0.00     0.265 C 
HETATM    9  C   UNK N   1      -2.071   3.189  -0.020  0.00  0.00     0.061 C 
HETATM   10  O   UNK N   1      -2.630  -1.051   0.957  0.00  0.00    -0.312 OA
HETATM   11  C   UNK N   1      -2.231   1.674   0.229  0.00  0.00     0.164 C 
HETATM   12  C   UNK N   1      -3.757  -0.248   0.955  0.00  0.00     0.168 C 
HETATM   13  C   UNK N   1       0.930  -0.310   1.390  0.00  0.00     0.015 C 
HETATM   14  C   UNK N   1       1.429   2.970   1.316  0.00  0.00     0.016 C 
HETATM   15  C   UNK N   1      -0.712  -2.813   1.703  0.00  0.00     0.023 C 
HETATM   16  N   UNK N   1      -0.415   4.945  -0.082  0.00  0.00    -0.272 N 
ATOM     17  HN  UNK N   1      -1.233   5.544  -0.194  1.00  0.00     0.193 HD
HETATM   18  O   UNK N   1      -2.409  -1.523  -1.233  0.00  0.00    -0.265 OA
HETATM   19  C   UNK N   1      -2.719   3.611  -1.333  0.00  0.00     0.019 C 
HETATM   20  C   UNK N   1      -3.680   1.136   0.269  0.00  0.00     0.107 C 
HETATM   21  C   UNK N   1       2.343   1.386  -1.233  0.00  0.00     0.081 C 
HETATM   22  C   UNK N   1      -4.567   2.067   1.085  0.00  0.00     0.051 C 
HETATM   23  C   UNK N   1       2.850   1.416  -2.661  0.00  0.00     0.049 C 
ENDROOT
BRANCH   1  24
HETATM   24  O   UNK N   1       3.367  -0.808  -0.743  0.00  0.00    -0.350 OA
BRANCH  24  25
HETATM   25  C   UNK N   1       3.663  -1.091   0.610  0.00  0.00     0.291 C 
HETATM   26  C   UNK N   1       4.816  -2.092   0.729  0.00  0.00     0.206 C 
HETATM   27  C   UNK N   1       6.198  -1.444   0.486  0.00  0.00     0.257 C 
HETATM   28  C   UNK N   1       6.075   0.065   0.276  0.00  0.00     0.070 C 
HETATM   29  C   UNK N   1       5.130   0.675   1.312  0.00  0.00     0.122 C 
HETATM   30  O   UNK N   1       3.842   0.075   1.409  0.00  0.00    -0.354 OA
HETATM   31  C   UNK N   1       5.782   0.737   2.680  0.00  0.00     0.040 C 
BRANCH  26  32
HETATM   32  O   UNK N   1       4.804  -2.655   2.005  0.00  0.00    -0.388 OA
HETATM   33  H   UNK N   1       4.460  -2.843   2.893  0.00  0.00     0.210 HD
ENDBRANCH  26  32
BRANCH  27  34
HETATM   34  N   UNK N   1       6.949  -2.028  -0.634  0.00  0.00     0.087 N 
HETATM   35  C   UNK N   1       8.358  -1.760  -0.391  0.00  0.00     0.310 C 
HETATM   36  C   UNK N   1       6.833  -3.478  -0.669  0.00  0.00     0.310 C 
ENDBRANCH  27  34
ENDBRANCH  24  25
ENDBRANCH   1  24
BRANCH  21  37
HETATM   37  O   UNK N   1       3.335   1.945  -0.439  0.00  0.00    -0.388 OA
HETATM   38  H   UNK N   1       4.020   1.540   0.116  0.00  0.00     0.210 HD
ENDBRANCH  21  37
BRANCH   4  39
HETATM   39  O   UNK N   1       1.522  -3.009  -0.049  0.00  0.00    -0.355 OA
BRANCH  39  40
HETATM   40  C   UNK N   1       1.555  -4.011  -1.038  0.00  0.00     0.263 C 
HETATM   41  C   UNK N   1       0.504  -5.125  -0.815  0.00  0.00     0.101 C 
HETATM   42  C   UNK N   1       0.919  -6.123   0.293  0.00  0.00     0.089 C 
HETATM   43  C   UNK N   1       2.379  -6.551   0.069  0.00  0.00     0.181 C 
HETATM   44  C   UNK N   1       0.854  -5.416   1.638  0.00  0.00     0.049 C 
HETATM   45  C   UNK N   1       3.239  -5.286  -0.079  0.00  0.00     0.152 C 
HETATM   46  O   UNK N   1       2.861  -4.538  -1.220  0.00  0.00    -0.354 OA
HETATM   47  C   UNK N   1       4.701  -5.670  -0.166  0.00  0.00     0.042 C 
BRANCH  42  48
HETATM   48  O   UNK N   1       0.049  -7.240   0.408  0.00  0.00    -0.383 OA
HETATM   49  C   UNK N   1      -0.286  -7.767  -0.851  0.00  0.00     0.202 C 
ENDBRANCH  42  48
BRANCH  43  50
HETATM   50  O   UNK N   1       2.507  -7.346  -1.075  0.00  0.00    -0.390 OA
HETATM   51  H   UNK N   1       2.075  -7.699  -1.869  0.00  0.00     0.210 HD
ENDBRANCH  43  50
ENDBRANCH  39  40
ENDBRANCH   4  39
BRANCH  16  52
HETATM   52  O   UNK N   1       0.766   5.541  -0.043  0.00  0.00    -0.255 OA
BRANCH  52  53
HETATM   53  C   UNK N   1       1.869   5.143  -0.768  0.00  0.00     0.369 C 
BRANCH  53  54
HETATM   54  O   UNK N   1       3.023   5.529  -0.083  0.00  0.00    -0.363 OA
BRANCH  54  55
HETATM   55  C   UNK N   1       4.076   4.893  -0.741  0.00  0.00     0.196 C 
BRANCH  55  56
HETATM   56  C   UNK N   1       5.044   4.317   0.279  0.00  0.00     0.193 C 
BRANCH  56  57
HETATM   57  O   UNK N   1       6.092   3.669  -0.377  0.00  0.00    -0.394 OA
HETATM   58  C   UNK N   1       7.217   4.453  -0.116  0.00  0.00     0.201 C 
ENDBRANCH  56  57
ENDBRANCH  55  56
ENDBRANCH  54  55
ENDBRANCH  53  54
ENDBRANCH  52  53
ENDBRANCH  16  52
BRANCH  11  59
HETATM   59  O   UNK N   1      -1.516   0.978  -0.747  0.00  0.00    -0.392 OA
HETATM   60  H   UNK N   1      -1.687   0.306  -1.425  0.00  0.00     0.210 HD
ENDBRANCH  11  59
BRANCH  12  61
HETATM   61  C   UNK N   1      -5.079  -1.016   0.870  0.00  0.00     0.031 C 
HETATM   62  C   UNK N   1      -5.307  -1.634  -0.497  0.00  0.00     0.007 C 
ENDBRANCH  12  61
BRANCH  20  63
HETATM   63  O   UNK N   1      -4.185   1.062  -1.032  0.00  0.00    -0.385 OA
HETATM   64  H   UNK N   1      -4.405   1.340  -1.935  0.00  0.00     0.210 HD
ENDBRANCH  20  63
TORSDOF 18
