REMARK  13 active torsions:
REMARK  status: ('A' for Active; 'I' for Inactive)
REMARK    1  A    between atoms: C_5  and  O_14 
REMARK    2  A    between atoms: C_11  and  C_17 
REMARK    3  A    between atoms: C_13  and  O_27 
REMARK    4  A    between atoms: O_14  and  C_15 
REMARK    5  A    between atoms: C_15  and  C_16 
REMARK    6  A    between atoms: C_16  and  O_25 
REMARK    7  A    between atoms: C_17  and  C_18 
REMARK    8  A    between atoms: C_18  and  C_19 
REMARK    9  A    between atoms: C_19  and  C_20 
REMARK   10  A    between atoms: C_19  and  O_28 
REMARK   11  A    between atoms: C_20  and  C_21 
REMARK   12  A    between atoms: C_21  and  C_22 
REMARK   13  A    between atoms: C_22  and  C_23 
ROOT
HETATM    1  C   UNK N   1       3.632  -1.980  -0.204  0.00  0.00    -0.049 A 
HETATM    2  C   UNK N   1       4.866  -2.615  -0.364  0.00  0.00     0.008 A 
HETATM    3  C   UNK N   1       6.047  -1.964  -0.013  0.00  0.00     0.003 A 
HETATM    4  C   UNK N   1       6.004  -0.662   0.477  0.00  0.00     0.037 A 
HETATM    5  C   UNK N   1       4.776   0.007   0.635  0.00  0.00     0.076 A 
HETATM    6  C   UNK N   1       3.582  -0.665   0.308  0.00  0.00    -0.018 A 
HETATM    7  C   UNK N   1       2.262   0.018   0.523  0.00  0.00     0.047 C 
HETATM    8  C   UNK N   1       1.188  -0.455  -0.457  0.00  0.00    -0.003 C 
HETATM    9  C   UNK N   1       1.067  -1.974  -0.469  0.00  0.00     0.001 C 
HETATM   10  C   UNK N   1       2.398  -2.717  -0.650  0.00  0.00     0.044 C 
HETATM   11  C   UNK N   1       0.372  -2.245   0.856  0.00  0.00     0.019 C 
HETATM   12  C   UNK N   1      -0.168  -0.004   0.076  0.00  0.00     0.037 C 
HETATM   13  C   UNK N   1      -0.695  -1.150   0.954  0.00  0.00     0.123 C 
ENDROOT
BRANCH  11  14
HETATM   14  C   UNK N   1      -0.148  -3.666   1.150  0.00  0.00     0.010 C 
BRANCH  14  15
HETATM   15  C   UNK N   1      -0.058  -4.656  -0.014  0.00  0.00     0.032 C 
BRANCH  15  16
HETATM   16  C   UNK N   1      -1.378  -4.898  -0.748  0.00  0.00     0.118 C 
BRANCH  16  17
HETATM   17  C   UNK N   1      -2.480  -5.483   0.140  0.00  0.00     0.032 C 
BRANCH  17  18
HETATM   18  C   UNK N   1      -3.354  -4.422   0.792  0.00  0.00     0.002 C 
BRANCH  18  19
HETATM   19  C   UNK N   1      -4.595  -4.226  -0.059  0.00  0.00    -0.000 C 
BRANCH  19  20
HETATM   20  C   UNK N   1      -5.429  -3.086   0.482  0.00  0.00    -0.005 C 
HETATM   21  C   UNK N   1      -6.728  -3.008  -0.294  0.00  0.00     0.005 C 
ENDBRANCH  19  20
ENDBRANCH  18  19
ENDBRANCH  17  18
ENDBRANCH  16  17
BRANCH  16  22
HETATM   22  O   UNK N   1      -1.803  -3.771  -1.458  0.00  0.00    -0.396 OA
HETATM   23  H   UNK N   1      -1.274  -3.125  -1.950  0.00  0.00     0.210 HD
ENDBRANCH  16  22
ENDBRANCH  15  16
ENDBRANCH  14  15
ENDBRANCH  11  14
BRANCH  13  24
HETATM   24  O   UNK N   1      -1.908  -1.583   0.414  0.00  0.00    -0.395 OA
HETATM   25  H   UNK N   1      -2.589  -1.004   0.039  0.00  0.00     0.210 HD
ENDBRANCH  13  24
BRANCH   5  26
HETATM   26  O   UNK N   1       4.727   1.292   1.076  0.00  0.00    -0.340 OA
BRANCH  26  27
HETATM   27  C   UNK N   1       5.815   2.043   1.496  0.00  0.00     0.285 C 
BRANCH  27  28
HETATM   28  C   UNK N   1       6.878   2.163   0.444  0.00  0.00     0.164 C 
HETATM   29  O   UNK N   1       8.018   1.809   0.698  0.00  0.00    -0.648 OA
BRANCH  28  30
HETATM   30  O   UNK N   1       6.581   2.635  -0.781  0.00  0.00    -0.775 OA
HETATM   31  H   UNK N   1       6.761   2.978  -1.634  0.00  0.00     0.167 HD
ENDBRANCH  28  30
ENDBRANCH  27  28
ENDBRANCH  26  27
ENDBRANCH   5  26
TORSDOF 13
