REMARK WARNING: 32 MAX_TORS EXCEEDED!!!
REMARK  36 active torsions:
REMARK  status: ('A' for Active; 'I' for Inactive)
REMARK    1  A    between atoms: C_2  and  C_3 
REMARK    2  A    between atoms: C_3  and  C_5 
REMARK    3  A    between atoms: C_5  and  C_6 
REMARK    4  A    between atoms: C_6  and  C_7 
REMARK    5  A    between atoms: C_7  and  C_8 
REMARK    6  A    between atoms: C_8  and  C_9 
REMARK       I    between atoms: C_9  and  N_11 
REMARK    7  A    between atoms: N_11  and  C_12 
REMARK    8  A    between atoms: C_12  and  C_13 
REMARK    9  A    between atoms: C_12  and  C_16 
REMARK   10  A    between atoms: C_13  and  C_14 
REMARK   11  A    between atoms: C_14  and  N_15 
REMARK       I    between atoms: C_16  and  N_18 
REMARK   12  A    between atoms: N_18  and  C_19 
REMARK   13  A    between atoms: C_19  and  C_20 
REMARK   14  A    between atoms: C_19  and  C_23 
REMARK   15  A    between atoms: C_20  and  O_22 
REMARK       I    between atoms: C_23  and  N_25 
REMARK   16  A    between atoms: N_25  and  C_26 
REMARK   17  A    between atoms: C_26  and  C_27 
REMARK   18  A    between atoms: C_26  and  C_30 
REMARK   19  A    between atoms: C_27  and  C_28 
REMARK   20  A    between atoms: C_28  and  N_29 
REMARK       I    between atoms: C_30  and  N_32 
REMARK   21  A    between atoms: N_32  and  C_33 
REMARK   22  A    between atoms: C_39  and  C_83 
REMARK   23  A    between atoms: C_43  and  C_44 
REMARK   24  A    between atoms: C_44  and  C_45 
REMARK   25  A    between atoms: C_45  and  N_46 
REMARK   26  A    between atoms: C_50  and  C_51 
REMARK   27  A    between atoms: C_51  and  C_52 
REMARK   28  A    between atoms: C_52  and  N_53 
REMARK   29  A    between atoms: C_57  and  C_58 
REMARK   30  A    between atoms: C_58  and  C_59 
REMARK   31  A    between atoms: C_65  and  C_66 
REMARK   32  A    between atoms: C_66  and  C_67 
REMARK   33  A    between atoms: C_76  and  C_77 
REMARK   34  A    between atoms: C_77  and  C_78 
REMARK   35  A    between atoms: C_78  and  N_79 
REMARK   36  A    between atoms: C_83  and  O_85 
ROOT
HETATM    1  C   UNK N   1      11.602  -3.637  -0.049  0.00  0.00     0.178 C 
HETATM    2  C   UNK N   1      10.565  -3.506  -1.161  0.00  0.00     0.054 C 
HETATM    3  C   UNK N   1      11.122  -2.657  -2.288  0.00  0.00     0.125 C 
HETATM    4  N   UNK N   1      11.544  -1.404  -1.727  0.00  0.00    -0.359 N 
HETATM    5  C   UNK N   1      10.901  -0.252  -1.991  0.00  0.00     0.243 C 
HETATM    6  O   UNK N   1       9.993  -0.215  -2.807  0.00  0.00    -0.271 OA
HETATM    7  C   UNK N   1      11.239   0.956  -1.193  0.00  0.00     0.205 C 
HETATM    8  N   UNK N   1      11.657   2.138  -1.905  0.00  0.00    -0.344 N 
HETATM    9  C   UNK N   1      12.912   2.616  -1.778  0.00  0.00     0.241 C 
HETATM   10  O   UNK N   1      13.723   2.008  -1.109  0.00  0.00    -0.271 OA
HETATM   11  C   UNK N   1      13.316   3.894  -2.469  0.00  0.00     0.178 C 
HETATM   12  N   UNK N   1      14.464   4.511  -1.833  0.00  0.00    -0.346 N 
HETATM   13  C   UNK N   1      14.480   4.915  -0.535  0.00  0.00     0.241 C 
HETATM   14  O   UNK N   1      13.464   4.894   0.142  0.00  0.00    -0.271 OA
HETATM   15  C   UNK N   1      15.785   5.196   0.138  0.00  0.00     0.178 C 
HETATM   16  N   UNK N   1      16.203   4.044   0.930  0.00  0.00    -0.346 N 
HETATM   17  C   UNK N   1      16.382   2.783   0.433  0.00  0.00     0.241 C 
HETATM   18  O   UNK N   1      16.206   2.545  -0.751  0.00  0.00    -0.271 OA
HETATM   19  C   UNK N   1      16.969   1.725   1.322  0.00  0.00     0.177 C 
HETATM   20  N   UNK N   1      16.126   0.623   1.766  0.00  0.00    -0.346 N 
HETATM   21  C   UNK N   1      15.528  -0.358   1.028  0.00  0.00     0.241 C 
HETATM   22  O   UNK N   1      15.386  -0.248  -0.180  0.00  0.00    -0.271 OA
HETATM   23  C   UNK N   1      15.338  -1.692   1.738  0.00  0.00     0.180 C 
HETATM   24  N   UNK N   1      14.489  -2.794   1.283  0.00  0.00    -0.346 N 
HETATM   25  C   UNK N   1      14.568  -3.453   0.096  0.00  0.00     0.241 C 
HETATM   26  O   UNK N   1      15.013  -2.900  -0.895  0.00  0.00    -0.271 OA
HETATM   27  C   UNK N   1      14.402  -4.964   0.075  0.00  0.00     0.178 C 
HETATM   28  N   UNK N   1      13.105  -5.583   0.334  0.00  0.00    -0.346 N 
HETATM   29  C   UNK N   1      11.857  -5.052   0.327  0.00  0.00     0.241 C 
HETATM   30  O   UNK N   1      10.914  -5.761   0.644  0.00  0.00    -0.271 OA
HETATM   31  H   UNK N   1      12.327  -1.387  -1.130  0.00  0.00     0.162 HD
HETATM   32  H   UNK N   1      11.017   2.603  -2.492  0.00  0.00     0.163 HD
HETATM   33  H   UNK N   1      15.278   4.644  -2.371  0.00  0.00     0.163 HD
HETATM   34  H   UNK N   1      16.367   4.185   1.890  0.00  0.00     0.163 HD
HETATM   35  H   UNK N   1      15.965   0.579   2.736  0.00  0.00     0.163 HD
HETATM   36  H   UNK N   1      13.785  -3.090   1.904  0.00  0.00     0.163 HD
HETATM   37  H   UNK N   1      13.143  -6.543   0.547  0.00  0.00     0.163 HD
ENDROOT
BRANCH   1  38
HETATM   38  N   UNK N   1      11.446  -2.817   1.144  0.00  0.00    -0.346 N 
HETATM   39  C   UNK N   1      10.391  -2.139   1.680  0.00  0.00     0.241 C 
HETATM   40  O   UNK N   1      10.564  -1.568   2.744  0.00  0.00    -0.271 OA
HETATM   41  H   UNK N   1      12.272  -2.735   1.673  0.00  0.00     0.163 HD
BRANCH  39  42
HETATM   42  C   UNK N   1       9.006  -2.078   1.095  0.00  0.00     0.178 C 
BRANCH  42  43
HETATM   43  N   UNK N   1       8.858  -1.145  -0.006  0.00  0.00    -0.346 N 
HETATM   44  C   UNK N   1       8.356   0.104   0.201  0.00  0.00     0.243 C 
HETATM   45  O   UNK N   1       8.140   0.494   1.340  0.00  0.00    -0.271 OA
HETATM   46  H   UNK N   1       9.124  -1.418  -0.913  0.00  0.00     0.163 HD
BRANCH  44  47
HETATM   47  C   UNK N   1       7.972   0.976  -0.983  0.00  0.00     0.205 C 
BRANCH  47  48
HETATM   48  N   UNK N   1       6.535   1.046  -1.077  0.00  0.00    -0.344 N 
HETATM   49  C   UNK N   1       5.728   1.557  -0.112  0.00  0.00     0.241 C 
HETATM   50  O   UNK N   1       6.192   2.182   0.831  0.00  0.00    -0.271 OA
HETATM   51  H   UNK N   1       6.111   0.701  -1.895  0.00  0.00     0.163 HD
BRANCH  49  52
HETATM   52  C   UNK N   1       4.287   1.164  -0.105  0.00  0.00     0.178 C 
BRANCH  52  53
HETATM   53  N   UNK N   1       3.744   1.431   1.208  0.00  0.00    -0.348 N 
HETATM   54  C   UNK N   1       2.603   2.124   1.403  0.00  0.00     0.218 C 
HETATM   55  O   UNK N   1       2.212   2.327   2.541  0.00  0.00    -0.274 OA
HETATM   56  H   UNK N   1       4.230   1.093   1.995  0.00  0.00     0.163 HD
BRANCH  54  57
HETATM   57  C   UNK N   1       1.790   2.605   0.242  0.00  0.00     0.103 C 
BRANCH  57  58
HETATM   58  C   UNK N   1       0.562   1.724   0.053  0.00  0.00     0.009 C 
BRANCH  58  59
HETATM   59  C   UNK N   1       0.939   0.408  -0.616  0.00  0.00     0.001 C 
BRANCH  59  60
HETATM   60  C   UNK N   1       1.092  -0.701   0.417  0.00  0.00     0.004 C 
BRANCH  60  61
HETATM   61  C   UNK N   1       1.733  -1.936  -0.205  0.00  0.00    -0.019 C 
HETATM   62  C   UNK N   1       0.786  -2.620  -1.177  0.00  0.00     0.010 C 
BRANCH  61  63
HETATM   63  C   UNK N   1       2.185  -2.895   0.884  0.00  0.00    -0.000 C 
HETATM   64  C   UNK N   1       3.156  -3.922   0.327  0.00  0.00     0.005 C 
ENDBRANCH  61  63
ENDBRANCH  60  61
ENDBRANCH  59  60
ENDBRANCH  58  59
ENDBRANCH  57  58
ENDBRANCH  54  57
ENDBRANCH  52  53
BRANCH  52  65
HETATM   65  C   UNK N   1       4.213  -0.338  -0.351  0.00  0.00     0.054 C 
BRANCH  65  66
HETATM   66  C   UNK N   1       4.346  -0.652  -1.834  0.00  0.00     0.113 C 
BRANCH  66  67
HETATM   67  N   UNK N   1       4.627  -2.064  -2.013  0.00  0.00    -0.430 N 
HETATM   68  H   UNK N   1       3.867  -2.732  -2.139  0.00  0.00     0.149 HD
HETATM   69  H   UNK N   1       5.593  -2.391  -2.013  0.00  0.00     0.149 HD
ENDBRANCH  66  67
ENDBRANCH  65  66
ENDBRANCH  52  65
ENDBRANCH  49  52
ENDBRANCH  47  48
BRANCH  47  70
HETATM   70  C   UNK N   1       8.661   2.343  -1.120  0.00  0.00     0.146 C 
HETATM   71  C   UNK N   1       8.349   2.980  -2.461  0.00  0.00     0.042 C 
BRANCH  70  72
HETATM   72  O   UNK N   1       8.356   3.225  -0.085  0.00  0.00    -0.393 OA
HETATM   73  H   UNK N   1       8.781   3.716   0.635  0.00  0.00     0.210 HD
ENDBRANCH  70  72
ENDBRANCH  47  70
ENDBRANCH  44  47
ENDBRANCH  42  43
BRANCH  42  74
HETATM   74  C   UNK N   1       8.373  -3.439   0.836  0.00  0.00     0.054 C 
BRANCH  74  75
HETATM   75  C   UNK N   1       6.969  -3.305   0.280  0.00  0.00     0.113 C 
BRANCH  75  76
HETATM   76  N   UNK N   1       6.878  -4.061  -0.956  0.00  0.00    -0.430 N 
HETATM   77  H   UNK N   1       6.386  -4.271  -1.825  0.00  0.00     0.149 HD
HETATM   78  H   UNK N   1       7.694  -4.673  -0.956  0.00  0.00     0.149 HD
ENDBRANCH  75  76
ENDBRANCH  74  75
ENDBRANCH  42  74
ENDBRANCH  39  42
ENDBRANCH   1  38
BRANCH  27  79
HETATM   79  C   UNK N   1      15.395  -5.521   1.092  0.00  0.00     0.054 C 
BRANCH  79  80
HETATM   80  C   UNK N   1      15.904  -6.889   0.695  0.00  0.00     0.113 C 
BRANCH  80  81
HETATM   81  N   UNK N   1      16.998  -6.733  -0.246  0.00  0.00    -0.430 N 
HETATM   82  H   UNK N   1      17.477  -7.344  -0.908  0.00  0.00     0.149 HD
HETATM   83  H   UNK N   1      17.378  -5.787  -0.246  0.00  0.00     0.149 HD
ENDBRANCH  80  81
ENDBRANCH  79  80
ENDBRANCH  27  79
BRANCH   7  84
HETATM   84  C   UNK N   1      11.235   0.953   0.343  0.00  0.00     0.146 C 
HETATM   85  C   UNK N   1      12.482   0.336   0.930  0.00  0.00     0.042 C 
BRANCH  84  86
HETATM   86  O   UNK N   1      11.053   2.237   0.856  0.00  0.00    -0.393 OA
HETATM   87  H   UNK N   1      11.763   2.793   1.212  0.00  0.00     0.210 HD
ENDBRANCH  84  86
ENDBRANCH   7  84
BRANCH  23  88
HETATM   88  C   UNK N   1      16.703  -2.241   2.206  0.00  0.00     0.073 C 
BRANCH  88  89
HETATM   89  C   UNK N   1      17.842  -2.213   1.204  0.00  0.00    -0.056 A 
HETATM   90  C   UNK N   1      17.625  -2.148  -0.182  0.00  0.00     0.007 A 
HETATM   91  C   UNK N   1      18.699  -2.065  -1.070  0.00  0.00     0.001 A 
HETATM   92  C   UNK N   1      20.006  -2.047  -0.580  0.00  0.00     0.000 A 
HETATM   93  C   UNK N   1      20.234  -2.120   0.797  0.00  0.00     0.001 A 
HETATM   94  C   UNK N   1      19.155  -2.200   1.685  0.00  0.00     0.007 A 
ENDBRANCH  88  89
ENDBRANCH  23  88
BRANCH  11  95
HETATM   95  C   UNK N   1      12.210   4.851  -2.934  0.00  0.00     0.054 C 
BRANCH  95  96
HETATM   96  C   UNK N   1      11.567   5.683  -1.833  0.00  0.00     0.113 C 
BRANCH  96  97
HETATM   97  N   UNK N   1      10.735   4.854  -0.980  0.00  0.00    -0.430 N 
HETATM   98  H   UNK N   1       9.938   5.069  -0.381  0.00  0.00     0.149 HD
HETATM   99  H   UNK N   1      10.997   3.868  -0.980  0.00  0.00     0.149 HD
ENDBRANCH  96  97
ENDBRANCH  95  96
ENDBRANCH  11  95
BRANCH  19 100
HETATM  100  C   UNK N   1      18.282   1.172   0.773  0.00  0.00     0.038 C 
BRANCH 100 101
HETATM  101  C   UNK N   1      19.324   2.248   0.509  0.00  0.00    -0.020 C 
HETATM  102  C   UNK N   1      19.722   2.941   1.798  0.00  0.00     0.009 C 
HETATM  103  C   UNK N   1      20.544   1.600  -0.106  0.00  0.00     0.009 C 
ENDBRANCH 100 101
ENDBRANCH  19 100
BRANCH  15 104
HETATM  104  C   UNK N   1      16.881   5.651  -0.820  0.00  0.00     0.054 C 
BRANCH 104 105
HETATM  105  C   UNK N   1      17.860   6.562  -0.100  0.00  0.00     0.113 C 
BRANCH 105 106
HETATM  106  N   UNK N   1      17.248   7.862   0.127  0.00  0.00    -0.430 N 
HETATM  107  H   UNK N   1      17.823   8.689   0.286  0.00  0.00     0.149 HD
HETATM  108  H   UNK N   1      16.232   7.946   0.127  0.00  0.00     0.149 HD
ENDBRANCH 105 106
ENDBRANCH 104 105
ENDBRANCH  15 104
TORSDOF 36
