REMARK  7 active torsions:
REMARK  status: ('A' for Active; 'I' for Inactive)
REMARK    1  A    between atoms: C_6  and  C_8 
REMARK    2  A    between atoms: C_14  and  O_16 
REMARK    3  A    between atoms: C_25  and  C_18 
REMARK    4  A    between atoms: C_18  and  C_19 
REMARK    5  A    between atoms: C_19  and  C_20 
REMARK    6  A    between atoms: C_20  and  C_24 
REMARK    7  A    between atoms: C_24  and  C_22 
ROOT
HETATM    1  C   UNK N   1      -1.715   2.498  -0.545  0.00  0.00     0.010 C 
HETATM    2  C   UNK N   1      -1.494  -0.361   0.111  0.00  0.00    -0.075 C 
HETATM    3  C   UNK N   1       1.066   0.029   0.041  0.00  0.00     0.010 C 
HETATM    4  C   UNK N   1       1.908   1.272  -0.286  0.00  0.00     0.006 C 
HETATM    5  C   UNK N   1      -2.962   1.653  -0.142  0.00  0.00     0.005 C 
HETATM    6  C   UNK N   1      -1.503  -1.678  -0.113  0.00  0.00     0.004 C 
HETATM    7  C   UNK N   1      -2.664   0.386   0.699  0.00  0.00     0.034 C 
HETATM    8  C   UNK N   1       0.913   2.383  -0.668  0.00  0.00    -0.002 C 
HETATM    9  C   UNK N   1      -0.329   0.436  -0.393  0.00  0.00     0.023 C 
HETATM   10  C   UNK N   1      -0.400   1.912  -0.009  0.00  0.00    -0.033 C 
HETATM   11  C   UNK N   1      -0.355   2.118   1.517  0.00  0.00     0.016 C 
ENDROOT
BRANCH   6  12
HETATM   12  C   UNK N   1      -2.597  -2.603   0.221  0.00  0.00     0.008 C 
HETATM   13  C   UNK N   1      -2.506  -3.942   0.072  0.00  0.00    -0.050 C 
HETATM   14  C   UNK N   1      -1.272  -4.669  -0.424  0.00  0.00    -0.061 C 
HETATM   15  C   UNK N   1      -3.738  -4.740   0.416  0.00  0.00     0.070 C 
HETATM   16  C   UNK N   1      -1.295  -6.155  -0.656  0.00  0.00     0.041 C 
HETATM   17  C   UNK N   1      -0.108  -4.050  -0.631  0.00  0.00     0.019 C 
HETATM   18  C   UNK N   1      -2.697  -6.749  -0.638  0.00  0.00     0.036 C 
HETATM   19  C   UNK N   1      -3.467  -6.234   0.562  0.00  0.00     0.122 C 
BRANCH  19  20
HETATM   20  O   UNK N   1      -4.678  -6.917   0.665  0.00  0.00    -0.395 OA
HETATM   21  H   UNK N   1      -5.511  -6.424   0.737  0.00  0.00     0.210 HD
ENDBRANCH  19  20
ENDBRANCH   6  12
BRANCH   8  22
HETATM   22  C   UNK N   1       1.451   3.799  -0.379  0.00  0.00    -0.014 C 
HETATM   23  C   UNK N   1       0.445   4.881  -0.727  0.00  0.00     0.010 C 
BRANCH  22  24
HETATM   24  C   UNK N   1       2.014   4.015   1.021  0.00  0.00     0.005 C 
BRANCH  24  25
HETATM   25  C   UNK N   1       3.533   4.126   0.963  0.00  0.00     0.001 C 
BRANCH  25  26
HETATM   26  C   UNK N   1       4.188   2.774   1.210  0.00  0.00     0.004 C 
BRANCH  26  27
HETATM   27  C   UNK N   1       4.957   2.295  -0.013  0.00  0.00    -0.023 C 
HETATM   28  C   UNK N   1       6.229   3.102  -0.196  0.00  0.00     0.009 C 
HETATM   29  C   UNK N   1       5.321   0.835   0.165  0.00  0.00     0.009 C 
ENDBRANCH  26  27
ENDBRANCH  25  26
ENDBRANCH  24  25
ENDBRANCH  22  24
ENDBRANCH   8  22
TORSDOF 7
