REMARK  8 active torsions:
REMARK  status: ('A' for Active; 'I' for Inactive)
REMARK    1  A    between atoms: C_1  and  C_10 
REMARK    2  A    between atoms: C_4  and  O_14 
REMARK    3  A    between atoms: C_9  and  C_7 
REMARK    4  A    between atoms: O_12  and  C_7 
REMARK    5  A    between atoms: C_10  and  C_9 
REMARK    6  A    between atoms: C_9  and  N_11 
REMARK    7  A    between atoms: O_14  and  C_17 
REMARK    8  A    between atoms: C_21  and  O_15 
ROOT
HETATM    1  C   UNK N   1       2.683  -0.276  -0.421  0.00  0.00    -0.053 A 
HETATM    2  C   UNK N   1       2.218  -1.562  -0.663  0.00  0.00     0.028 A 
HETATM    3  C   UNK N   1       0.887  -1.885  -0.407  0.00  0.00     0.042 A 
HETATM    4  C   UNK N   1      -0.017  -0.922   0.091  0.00  0.00     0.109 A 
HETATM    5  C   UNK N   1       0.478   0.392   0.372  0.00  0.00     0.042 A 
HETATM    6  C   UNK N   1       1.819   0.685   0.101  0.00  0.00     0.028 A 
HETATM    7  I   UNK N   1       0.257  -3.871  -0.771  0.00  0.00    -0.042 I 
HETATM    8  I   UNK N   1      -0.546   1.989   1.322  0.00  0.00    -0.042 I 
ENDROOT
BRANCH   4   9
HETATM    9  O   UNK N   1      -1.293  -1.356   0.302  0.00  0.00    -0.308 OA
BRANCH   9  10
HETATM   10  C   UNK N   1      -2.515  -0.793   0.109  0.00  0.00     0.078 A 
HETATM   11  C   UNK N   1      -3.639  -1.604   0.297  0.00  0.00     0.058 A 
HETATM   12  C   UNK N   1      -4.927  -1.111   0.075  0.00  0.00     0.043 A 
HETATM   13  I   UNK N   1      -6.575  -2.407   0.330  0.00  0.00    -0.042 I 
HETATM   14  C   UNK N   1      -5.105   0.221  -0.319  0.00  0.00     0.098 A 
HETATM   15  C   UNK N   1      -3.986   1.042  -0.514  0.00  0.00     0.043 A 
HETATM   16  C   UNK N   1      -2.699   0.524  -0.326  0.00  0.00     0.058 A 
HETATM   17  I   UNK N   1      -4.208   3.066  -1.072  0.00  0.00    -0.042 I 
BRANCH  14  18
HETATM   18  O   UNK N   1      -6.344   0.708  -0.513  0.00  0.00    -0.358 OA
HETATM   19  H   UNK N   1      -6.482   1.625  -0.648  0.00  0.00     0.217 HD
ENDBRANCH  14  18
ENDBRANCH   9  10
ENDBRANCH   4   9
BRANCH   1  20
HETATM   20  C   UNK N   1       4.104   0.072  -0.710  0.00  0.00     0.074 C 
BRANCH  20  21
HETATM   21  C   UNK N   1       4.820   0.483   0.569  0.00  0.00     0.177 C 
BRANCH  21  22
HETATM   22  C   UNK N   1       5.645   1.712   0.331  0.00  0.00     0.163 C 
HETATM   23  O   UNK N   1       5.102   2.743  -0.033  0.00  0.00    -0.648 OA
BRANCH  22  24
HETATM   24  O   UNK N   1       6.977   1.698   0.535  0.00  0.00    -0.775 OA
HETATM   25  H   UNK N   1       7.431   0.891   0.677  0.00  0.00     0.167 HD
ENDBRANCH  22  24
ENDBRANCH  21  22
BRANCH  21  26
HETATM   26  N   UNK N   1       5.639  -0.620   1.045  0.00  0.00    -0.417 N 
HETATM   27  H   UNK N   1       5.256  -1.505   1.380  0.00  0.00     0.150 HD
HETATM   28  H   UNK N   1       6.652  -0.503   1.045  0.00  0.00     0.150 HD
ENDBRANCH  21  26
ENDBRANCH  20  21
ENDBRANCH   1  20
TORSDOF 8
