REMARK  15 active torsions:
REMARK  status: ('A' for Active; 'I' for Inactive)
REMARK    1  A    between atoms: C_2  and  C_6 
REMARK    2  A    between atoms: C_5  and  O_10 
REMARK    3  A    between atoms: C_6  and  O_11 
REMARK    4  A    between atoms: C_7  and  O_14 
REMARK    5  A    between atoms: C_8  and  O_15 
REMARK    6  A    between atoms: O_15  and  C_18 
REMARK    7  A    between atoms: C_17  and  O_21 
REMARK    8  A    between atoms: C_22  and  O_27 
REMARK    9  A    between atoms: C_25  and  O_31 
REMARK   10  A    between atoms: C_26  and  N_33 
REMARK   11  A    between atoms: C_30  and  O_37 
REMARK   12  A    between atoms: C_32  and  O_38 
REMARK   13  A    between atoms: C_42  and  O_45 
REMARK   14  A    between atoms: C_47  and  O_50 
REMARK   15  A    between atoms: C_62  and  O_65 
ROOT
HETATM    1  C   UNK N   1      19.403  -8.930  -0.028  0.00  0.00     0.144 C 
HETATM    2  C   UNK N   1      20.763  -8.380   0.474  0.00  0.00     0.141 C 
HETATM    3  O   UNK N   1      18.338  -8.145   0.486  0.00  0.00    -0.349 OA
HETATM    4  C   UNK N   1      19.281 -10.372   0.506  0.00  0.00     0.069 C 
HETATM    5  C   UNK N   1      20.908  -6.853   0.274  0.00  0.00     0.140 C 
HETATM    6  C   UNK N   1      18.395  -6.754   0.150  0.00  0.00     0.166 C 
HETATM    7  C   UNK N   1      17.956 -11.128   0.345  0.00  0.00     0.150 C 
HETATM    8  C   UNK N   1      19.717  -6.283  -0.459  0.00  0.00     0.101 C 
HETATM    9  C   UNK N   1      17.353  -6.377  -0.897  0.00  0.00     0.100 C 
HETATM   10  C   UNK N   1      16.817 -10.376  -0.261  0.00  0.00     0.005 C 
HETATM   11  C   UNK N   1      16.058  -7.154  -0.827  0.00  0.00     0.125 C 
HETATM   12  C   UNK N   1      15.803 -10.083   0.536  0.00  0.00    -0.002 C 
HETATM   13  C   UNK N   1      14.901  -6.189  -0.915  0.00  0.00     0.066 C 
HETATM   14  C   UNK N   1      14.483  -9.904  -0.031  0.00  0.00    -0.000 C 
HETATM   15  C   UNK N   1      14.551  -5.600   0.447  0.00  0.00     0.149 C 
HETATM   16  C   UNK N   1      13.458  -9.859   0.798  0.00  0.00     0.000 C 
HETATM   17  C   UNK N   1      13.638  -4.373   0.312  0.00  0.00     0.147 C 
HETATM   18  C   UNK N   1      12.192 -10.365   0.310  0.00  0.00     0.000 C 
HETATM   19  C   UNK N   1      12.563  -4.537  -0.773  0.00  0.00     0.036 C 
HETATM   20  C   UNK N   1      11.199 -10.592   1.160  0.00  0.00     0.000 C 
HETATM   21  C   UNK N   1      11.217  -4.972  -0.217  0.00  0.00     0.034 C 
HETATM   22  C   UNK N   1      10.176 -11.587   0.815  0.00  0.00     0.000 C 
HETATM   23  C   UNK N   1      11.301  -6.319   0.475  0.00  0.00     0.120 C 
HETATM   24  C   UNK N   1      10.578 -12.735   0.249  0.00  0.00     0.000 C 
HETATM   25  C   UNK N   1      10.141  -6.510   1.446  0.00  0.00     0.064 C 
HETATM   26  C   UNK N   1       9.699 -13.870  -0.084  0.00  0.00     0.000 C 
HETATM   27  C   UNK N   1       8.865  -7.110   0.863  0.00  0.00     0.130 C 
HETATM   28  C   UNK N   1       8.375 -13.818  -0.259  0.00  0.00     0.000 C 
HETATM   29  C   UNK N   1       8.387  -6.427  -0.410  0.00  0.00     0.142 C 
HETATM   30  C   UNK N   1       7.600 -12.574  -0.278  0.00  0.00     0.000 C 
HETATM   31  C   UNK N   1       6.989  -6.856  -0.679  0.00  0.00     0.261 C 
HETATM   32  C   UNK N   1       6.280 -12.653  -0.208  0.00  0.00    -0.000 C 
HETATM   33  O   UNK N   1       6.018  -6.544   0.221  0.00  0.00    -0.316 OA
HETATM   34  O   UNK N   1       6.740  -7.522  -1.677  0.00  0.00    -0.265 OA
HETATM   35  C   UNK N   1       5.441 -11.466  -0.352  0.00  0.00    -0.004 C 
HETATM   36  C   UNK N   1       4.719  -7.020   0.185  0.00  0.00     0.134 C 
HETATM   37  C   UNK N   1       4.136 -11.582  -0.126  0.00  0.00    -0.020 C 
HETATM   38  C   UNK N   1       4.692  -8.558   0.317  0.00  0.00     0.040 C 
HETATM   39  C   UNK N   1       4.019  -6.526  -1.077  0.00  0.00     0.040 C 
HETATM   40  C   UNK N   1       3.155 -10.477  -0.388  0.00  0.00     0.033 C 
HETATM   41  C   UNK N   1       3.302  -9.206   0.467  0.00  0.00     0.131 C 
HETATM   42  C   UNK N   1       5.527  -8.984   1.517  0.00  0.00     0.015 C 
HETATM   43  C   UNK N   1       1.769 -11.064  -0.193  0.00  0.00     0.017 C 
ENDROOT
BRANCH   7  44
HETATM   44  O   UNK N   1      18.131 -12.378  -0.294  0.00  0.00    -0.349 OA
BRANCH  44  45
HETATM   45  C   UNK N   1      17.001 -13.170   0.022  0.00  0.00     0.291 C 
HETATM   46  C   UNK N   1      17.332 -14.666   0.080  0.00  0.00     0.198 C 
HETATM   47  C   UNK N   1      16.049 -15.420   0.471  0.00  0.00     0.139 C 
HETATM   48  C   UNK N   1      14.860 -14.993  -0.396  0.00  0.00     0.171 C 
HETATM   49  C   UNK N   1      14.805 -13.464  -0.422  0.00  0.00     0.151 C 
HETATM   50  O   UNK N   1      16.009 -12.981  -0.962  0.00  0.00    -0.351 OA
HETATM   51  C   UNK N   1      13.652 -12.987  -1.286  0.00  0.00     0.042 C 
BRANCH  46  52
HETATM   52  O   UNK N   1      18.325 -14.907   1.030  0.00  0.00    -0.388 OA
HETATM   53  H   UNK N   1      18.525 -15.589   1.690  0.00  0.00     0.210 HD
ENDBRANCH  46  52
BRANCH  47  54
HETATM   54  N   UNK N   1      16.252 -16.855   0.362  0.00  0.00    -0.421 N 
HETATM   55  H   UNK N   1      15.450 -17.481   0.286  0.00  0.00     0.150 HD
HETATM   56  H   UNK N   1      17.197 -17.237   0.362  0.00  0.00     0.150 HD
ENDBRANCH  47  54
BRANCH  48  57
HETATM   57  O   UNK N   1      13.677 -15.511   0.138  0.00  0.00    -0.391 OA
HETATM   58  H   UNK N   1      12.955 -14.980   0.509  0.00  0.00     0.210 HD
ENDBRANCH  48  57
ENDBRANCH  44  45
ENDBRANCH   7  44
BRANCH   2  59
HETATM   59  C   UNK N   1      21.972  -9.174   0.028  0.00  0.00     0.148 C 
HETATM   60  O   UNK N   1      23.062  -8.949   0.529  0.00  0.00    -0.650 OA
BRANCH  59  61
HETATM   61  O   UNK N   1      21.859 -10.139  -0.905  0.00  0.00    -0.776 OA
HETATM   62  H   UNK N   1      21.238 -10.406  -1.555  0.00  0.00     0.167 HD
ENDBRANCH  59  61
ENDBRANCH   2  59
BRANCH   5  63
HETATM   63  O   UNK N   1      22.063  -6.508  -0.434  0.00  0.00    -0.394 OA
HETATM   64  H   UNK N   1      22.671  -7.082  -0.925  0.00  0.00     0.210 HD
ENDBRANCH   5  63
BRANCH   6  65
HETATM   65  O   UNK N   1      18.153  -6.020   1.313  0.00  0.00    -0.365 OA
HETATM   66  H   UNK N   1      18.510  -5.619   2.120  0.00  0.00     0.213 HD
ENDBRANCH   6  65
BRANCH  11  67
HETATM   67  O   UNK N   1      16.011  -7.996  -1.936  0.00  0.00    -0.395 OA
HETATM   68  H   UNK N   1      15.487  -8.261  -2.709  0.00  0.00     0.210 HD
ENDBRANCH  11  67
BRANCH  15  69
HETATM   69  O   UNK N   1      13.975  -6.577   1.261  0.00  0.00    -0.393 OA
HETATM   70  H   UNK N   1      13.187  -6.570   1.826  0.00  0.00     0.210 HD
ENDBRANCH  15  69
BRANCH  17  71
HETATM   71  O   UNK N   1      14.422  -3.264   0.002  0.00  0.00    -0.393 OA
HETATM   72  H   UNK N   1      15.364  -3.350  -0.214  0.00  0.00     0.210 HD
ENDBRANCH  17  71
BRANCH  23  73
HETATM   73  O   UNK N   1      11.415  -7.365  -0.445  0.00  0.00    -0.395 OA
HETATM   74  H   UNK N   1      10.826  -7.796  -1.083  0.00  0.00     0.210 HD
ENDBRANCH  23  73
BRANCH  27  75
HETATM   75  O   UNK N   1       9.027  -8.479   0.651  0.00  0.00    -0.395 OA
HETATM   76  H   UNK N   1       8.259  -9.053   0.503  0.00  0.00     0.210 HD
ENDBRANCH  27  75
BRANCH  41  77
HETATM   77  O   UNK N   1       2.277  -8.316   0.130  0.00  0.00    -0.394 OA
HETATM   78  H   UNK N   1       2.455  -7.392  -0.104  0.00  0.00     0.210 HD
ENDBRANCH  41  77
TORSDOF 15
