REMARK  12 active torsions:
REMARK  status: ('A' for Active; 'I' for Inactive)
REMARK    1  A    between atoms: C_3  and  N_13 
REMARK    2  A    between atoms: S_23  and  C_5 
REMARK    3  A    between atoms: C_22  and  C_6 
REMARK       I    between atoms: C_18  and  N_13 
REMARK       I    between atoms: N_19  and  C_14 
REMARK    4  A    between atoms: C_16  and  C_14 
REMARK    5  A    between atoms: C_29  and  C_17 
REMARK    6  A    between atoms: C_20  and  C_18 
REMARK    7  A    between atoms: C_20  and  N_19 
REMARK    8  A    between atoms: C_20  and  C_30 
REMARK    9  A    between atoms: O_37  and  C_21 
REMARK   10  A    between atoms: O_39  and  C_22 
REMARK   11  A    between atoms: C_29  and  S_23 
REMARK   12  A    between atoms: O_43  and  C_40 
ROOT
HETATM    1  N   UNK N   1       6.473  -7.094  -1.187  0.00  0.00    -0.343 N 
HETATM    2  C   UNK N   1       5.371  -6.598  -1.769  0.00  0.00     0.245 C 
HETATM    3  O   UNK N   1       5.170  -6.808  -2.954  0.00  0.00    -0.271 OA
HETATM    4  H   UNK N   1       7.156  -7.496  -1.772  0.00  0.00     0.163 HD
ENDROOT
BRANCH   1   5
HETATM    5  C   UNK N   1       6.736  -7.083   0.240  0.00  0.00     0.210 C 
HETATM    6  C   UNK N   1       7.120  -8.480   0.495  0.00  0.00     0.251 C 
HETATM    7  N   UNK N   1       8.399  -8.272   0.558  0.00  0.00    -0.293 N 
HETATM    8  O   UNK N   1       6.534  -9.529   0.277  0.00  0.00    -0.271 OA
HETATM    9  C   UNK N   1       8.297  -6.851   0.555  0.00  0.00     0.187 C 
HETATM   10  C   UNK N   1       9.469  -9.120   0.210  0.00  0.00     0.116 C 
HETATM   11  S   UNK N   1       9.199  -5.979  -0.751  0.00  0.00    -0.136 SA
HETATM   12  C   UNK N   1      10.549  -7.170  -1.032  0.00  0.00     0.113 C 
HETATM   13  C   UNK N   1      10.502  -8.581  -0.491  0.00  0.00    -0.027 C 
BRANCH  13  14
HETATM   14  C   UNK N   1      11.749  -9.336  -0.683  0.00  0.00     0.120 C 
BRANCH  14  15
HETATM   15  S   UNK N   1      12.555  -9.182   0.939  0.00  0.00    -0.087 SA
BRANCH  15  16
HETATM   16  C   UNK N   1      14.126  -9.522   0.229  0.00  0.00     0.175 A 
HETATM   17  N   UNK N   1      15.039  -8.616  -0.135  0.00  0.00    -0.262 N 
HETATM   18  N   UNK N   1      16.063  -9.289  -0.618  0.00  0.00    -0.223 N 
HETATM   19  C   UNK N   1      14.961  -7.167  -0.037  0.00  0.00     0.181 C 
HETATM   20  N   UNK N   1      15.785 -10.586  -0.555  0.00  0.00    -0.005 NA
ATOM     21  HN  UNK N   1      16.925  -8.882  -0.981  1.00  0.00     0.206 HD
HETATM   22  N   UNK N   1      14.581 -10.756  -0.029  0.00  0.00    -0.261 N 
ATOM     23  HN  UNK N   1      14.101 -11.640   0.143  1.00  0.00     0.186 HD
ENDBRANCH  15  16
ENDBRANCH  14  15
ENDBRANCH  13  14
BRANCH  10  24
HETATM   24  C   UNK N   1       9.432 -10.570   0.622  0.00  0.00     0.194 C 
HETATM   25  O   UNK N   1      10.294 -11.355   0.259  0.00  0.00    -0.645 OA
BRANCH  24  26
HETATM   26  O   UNK N   1       8.418 -11.034   1.376  0.00  0.00    -0.772 OA
HETATM   27  H   UNK N   1       7.785 -10.585   1.901  0.00  0.00     0.167 HD
ENDBRANCH  24  26
ENDBRANCH  10  24
ENDBRANCH   1   5
BRANCH   2  28
HETATM   28  C   UNK N   1       4.413  -5.782  -0.981  0.00  0.00     0.210 C 
BRANCH  28  29
HETATM   29  N   UNK N   1       3.117  -6.321  -0.678  0.00  0.00    -0.339 N 
HETATM   30  C   UNK N   1       2.919  -7.434   0.071  0.00  0.00     0.256 C 
HETATM   31  O   UNK N   1       3.865  -8.030   0.567  0.00  0.00    -0.267 OA
HETATM   32  H   UNK N   1       2.326  -5.856  -1.036  0.00  0.00     0.164 HD
BRANCH  30  33
HETATM   33  C   UNK N   1       1.557  -7.987   0.175  0.00  0.00     0.080 A 
HETATM   34  C   UNK N   1       0.423  -7.224  -0.174  0.00  0.00     0.084 A 
HETATM   35  C   UNK N   1      -0.831  -7.823  -0.187  0.00  0.00     0.062 A 
HETATM   36  C   UNK N   1      -0.953  -9.170   0.146  0.00  0.00     0.007 A 
HETATM   37  N   UNK N   1       0.141  -9.885   0.521  0.00  0.00    -0.368 N 
HETATM   38  C   UNK N   1      -2.281  -9.827   0.067  0.00  0.00     0.068 C 
HETATM   39  C   UNK N   1       1.380  -9.325   0.548  0.00  0.00     0.108 A 
ATOM     40  HN  UNK N   1       0.030 -10.864   0.787  1.00  0.00     0.165 HD
BRANCH  34  41
HETATM   41  O   UNK N   1       0.529  -5.923  -0.500  0.00  0.00    -0.360 OA
HETATM   42  H   UNK N   1       1.350  -5.534  -0.727  0.00  0.00     0.217 HD
ENDBRANCH  34  41
ENDBRANCH  30  33
ENDBRANCH  28  29
BRANCH  28  43
HETATM   43  C   UNK N   1       4.779  -4.435  -0.470  0.00  0.00    -0.026 A 
HETATM   44  C   UNK N   1       6.014  -3.869  -0.815  0.00  0.00     0.012 A 
HETATM   45  C   UNK N   1       6.364  -2.609  -0.336  0.00  0.00     0.037 A 
HETATM   46  C   UNK N   1       5.481  -1.913   0.493  0.00  0.00     0.065 A 
HETATM   47  C   UNK N   1       4.248  -2.475   0.837  0.00  0.00     0.037 A 
HETATM   48  C   UNK N   1       3.896  -3.734   0.353  0.00  0.00     0.012 A 
BRANCH  46  49
HETATM   49  O   UNK N   1       5.816  -0.702   0.960  0.00  0.00    -0.361 OA
HETATM   50  H   UNK N   1       6.667  -0.483   1.287  0.00  0.00     0.217 HD
ENDBRANCH  46  49
ENDBRANCH  28  43
ENDBRANCH   2  28
TORSDOF 12
