REMARK  8 active torsions:
REMARK  status: ('A' for Active; 'I' for Inactive)
REMARK    1  A    between atoms: C_15  and  O_1 
REMARK    2  A    between atoms: O_1  and  C_2 
REMARK    3  A    between atoms: C_2  and  C_3 
REMARK    4  A    between atoms: C_3  and  C_7 
REMARK    5  A    between atoms: C_3  and  C_9 
REMARK    6  A    between atoms: C_9  and  O_10 
REMARK    7  A    between atoms: N_21  and  C_19 
REMARK    8  A    between atoms: Br_25  and  Br_25 
ROOT
HETATM    1 Br   UNK N   1       3.742  -4.583  -0.506  0.00  0.00     0.000 Br
ENDROOT
TORSDOF 8
