REMARK  3 active torsions:
REMARK  status: ('A' for Active; 'I' for Inactive)
REMARK    1  A    between atoms: C_24  and  C_15 
REMARK    2  A    between atoms: O_28  and  C_16 
REMARK    3  A    between atoms: C_24  and  O_28 
ROOT
HETATM    1  C   UNK N   1       2.925  -2.016  -0.832  0.00  0.00     0.048 C 
HETATM    2  C   UNK N   1       1.942   2.275  -1.547  0.00  0.00     0.021 C 
HETATM    3  C   UNK N   1      -1.621   2.865  -2.080  0.00  0.00     0.019 C 
HETATM    4  C   UNK N   1       4.665   2.968  -0.180  0.00  0.00     0.084 C 
HETATM    5  C   UNK N   1       0.349   2.872   1.141  0.00  0.00     0.007 C 
HETATM    6  C   UNK N   1      -2.137   0.118  -0.179  0.00  0.00     0.009 C 
HETATM    7  C   UNK N   1       3.285   2.953   0.457  0.00  0.00     0.022 C 
HETATM    8  C   UNK N   1      -0.386   3.349  -0.096  0.00  0.00     0.013 C 
HETATM    9  C   UNK N   1      -2.679   1.055   0.914  0.00  0.00     0.048 C 
HETATM   10  C   UNK N   1       0.968  -0.727  -0.132  0.00  0.00    -0.014 C 
HETATM   11  C   UNK N   1       4.442   0.418  -0.162  0.00  0.00     0.058 C 
HETATM   12  C   UNK N   1       2.285  -0.730  -0.417  0.00  0.00    -0.058 C 
HETATM   13  C   UNK N   1       5.276   1.619   0.011  0.00  0.00     0.149 C 
HETATM   14  C   UNK N   1       0.221   0.500   0.373  0.00  0.00     0.018 C 
HETATM   15  C   UNK N   1       1.178   1.632   0.809  0.00  0.00     0.006 C 
HETATM   16  C   UNK N   1      -0.911   0.887  -0.654  0.00  0.00     0.005 C 
HETATM   17  C   UNK N   1       3.099   0.509  -0.263  0.00  0.00    -0.040 C 
HETATM   18  C   UNK N   1       2.377   1.854  -0.145  0.00  0.00    -0.012 C 
HETATM   19  C   UNK N   1      -1.436   2.366  -0.651  0.00  0.00    -0.001 C 
HETATM   20  C   UNK N   1      -2.801   2.358   0.152  0.00  0.00     0.138 C 
HETATM   21  O   UNK N   1       6.448   1.514   0.330  0.00  0.00    -0.293 OA
ENDROOT
BRANCH  20  22
HETATM   22  C   UNK N   1      -4.150   2.184  -0.575  0.00  0.00     0.158 C 
HETATM   23  C   UNK N   1      -4.285   2.013  -2.053  0.00  0.00     0.094 C 
HETATM   24  O   UNK N   1      -5.173   2.144   0.094  0.00  0.00    -0.295 OA
ENDBRANCH  20  22
BRANCH  20  25
HETATM   25  O   UNK N   1      -2.889   3.457   1.004  0.00  0.00    -0.302 OA
BRANCH  25  26
HETATM   26  C   UNK N   1      -3.085   4.751   0.610  0.00  0.00     0.256 C 
HETATM   27  C   UNK N   1      -3.377   5.118  -0.813  0.00  0.00     0.126 C 
HETATM   28  O   UNK N   1      -3.028   5.643   1.441  0.00  0.00    -0.266 OA
ENDBRANCH  25  26
ENDBRANCH  20  25
TORSDOF 3
