REMARK  4 active torsions:
REMARK  status: ('A' for Active; 'I' for Inactive)
REMARK    1  A    between atoms: C_2  and  O_10 
REMARK    2  A    between atoms: C_9  and  C_11 
REMARK    3  A    between atoms: C_9  and  C_12 
REMARK    4  A    between atoms: O_10  and  C_9 
ROOT
HETATM    1  C   UNK N   1       7.390  -7.477  -0.346  0.00  0.00     0.188 C 
ENDROOT
BRANCH   1   2
HETATM    2  C   UNK N   1       8.812  -7.002  -0.069  0.00  0.00    -0.025 A 
HETATM    3  C   UNK N   1       9.718  -7.731   0.719  0.00  0.00     0.010 A 
HETATM    4  C   UNK N   1      11.016  -7.257   0.936  0.00  0.00     0.001 A 
HETATM    5  C   UNK N   1      11.421  -6.047   0.370  0.00  0.00     0.000 A 
HETATM    6  C   UNK N   1      10.529  -5.309  -0.410  0.00  0.00     0.001 A 
HETATM    7  C   UNK N   1       9.234  -5.786  -0.625  0.00  0.00     0.010 A 
ENDBRANCH   1   2
BRANCH   1   8
HETATM    8  C   UNK N   1       7.059  -8.958  -0.237  0.00  0.00    -0.025 A 
HETATM    9  C   UNK N   1       5.782  -9.392  -0.618  0.00  0.00     0.010 A 
HETATM   10  C   UNK N   1       5.444 -10.749  -0.559  0.00  0.00     0.001 A 
HETATM   11  C   UNK N   1       6.383 -11.687  -0.122  0.00  0.00     0.000 A 
HETATM   12  C   UNK N   1       7.660 -11.268   0.256  0.00  0.00     0.001 A 
HETATM   13  C   UNK N   1       7.995  -9.913   0.196  0.00  0.00     0.010 A 
ENDBRANCH   1   8
BRANCH   1  14
HETATM   14  O   UNK N   1       6.449  -6.693   0.364  0.00  0.00    -0.371 OA
BRANCH  14  15
HETATM   15  C   UNK N   1       5.985  -5.642  -0.468  0.00  0.00     0.127 C 
HETATM   16  C   UNK N   1       5.629  -4.425   0.410  0.00  0.00     0.067 C 
HETATM   17  C   UNK N   1       4.170  -4.437   0.900  0.00  0.00     0.225 C 
HETATM   18  N   UNK N   1       3.316  -4.485  -0.289  0.00  0.00     0.093 N 
HETATM   19  C   UNK N   1       3.875  -5.713   1.690  0.00  0.00     0.038 C 
HETATM   20  C   UNK N   1       3.428  -5.896  -0.665  0.00  0.00     0.225 C 
HETATM   21  C   UNK N   1       1.933  -4.153   0.060  0.00  0.00     0.310 C 
HETATM   22  C   UNK N   1       3.367  -6.692   0.637  0.00  0.00     0.038 C 
HETATM   23  C   UNK N   1       4.795  -6.090  -1.346  0.00  0.00     0.067 C 
ENDBRANCH  14  15
ENDBRANCH   1  14
TORSDOF 4
