REMARK  16 active torsions:
REMARK  status: ('A' for Active; 'I' for Inactive)
REMARK    1  A    between atoms: C_1  and  C_4 
REMARK    2  A    between atoms: C_4  and  C_9 
REMARK    3  A    between atoms: C_4  and  O_10 
REMARK    4  A    between atoms: C_9  and  C_14 
REMARK    5  A    between atoms: C_11  and  C_79 
REMARK    6  A    between atoms: C_13  and  C_18 
REMARK    7  A    between atoms: C_14  and  C_19 
REMARK    8  A    between atoms: C_26  and  C_32 
REMARK    9  A    between atoms: C_32  and  C_36 
REMARK   10  A    between atoms: C_39  and  C_46 
REMARK   11  A    between atoms: C_43  and  C_48 
REMARK   12  A    between atoms: C_46  and  C_51 
REMARK   13  A    between atoms: C_48  and  C_54 
REMARK   14  A    between atoms: C_59  and  C_65 
REMARK   15  A    between atoms: C_73  and  C_82 
REMARK   16  A    between atoms: C_82  and  C_83 
ROOT
HETATM    1  C   UNK N   1       1.100   2.141   0.335  0.00  0.00     0.207 C 
HETATM    2  N   UNK N   1       0.191   1.710  -0.714  0.00  0.00    -0.339 N 
HETATM    3  C   UNK N   1       1.616   1.111   1.313  0.00  0.00     0.243 C 
HETATM    4  C   UNK N   1      -1.171   1.687  -0.571  0.00  0.00     0.243 C 
HETATM    5  C   UNK N   1       0.761   1.430  -2.012  0.00  0.00     0.153 C 
HETATM    6  N   UNK N   1       2.735   0.415   1.020  0.00  0.00    -0.346 N 
HETATM    7  O   UNK N   1       1.092   0.966   2.402  0.00  0.00    -0.271 OA
HETATM    8  C   UNK N   1      -1.826   1.894   0.795  0.00  0.00     0.182 C 
HETATM    9  O   UNK N   1      -1.867   1.495  -1.553  0.00  0.00    -0.271 OA
HETATM   10  C   UNK N   1       3.464   0.741  -0.168  0.00  0.00     0.176 C 
HETATM   11  N   UNK N   1      -3.232   2.284   0.813  0.00  0.00    -0.341 N 
HETATM   12  C   UNK N   1       4.649   1.626   0.174  0.00  0.00     0.242 C 
HETATM   13  C   UNK N   1      -4.219   1.534   0.227  0.00  0.00     0.243 C 
HETATM   14  C   UNK N   1      -3.573   3.407   1.654  0.00  0.00     0.153 C 
HETATM   15  N   UNK N   1       5.824   1.154   0.709  0.00  0.00    -0.346 N 
HETATM   16  O   UNK N   1       4.498   2.830   0.032  0.00  0.00    -0.271 OA
HETATM   17  C   UNK N   1      -5.689   1.761   0.514  0.00  0.00     0.179 C 
HETATM   18  O   UNK N   1      -3.925   0.584  -0.491  0.00  0.00    -0.271 OA
HETATM   19  C   UNK N   1       6.134  -0.261   0.799  0.00  0.00     0.228 C 
HETATM   20  C   UNK N   1       6.832   2.089   1.148  0.00  0.00     0.153 C 
HETATM   21  N   UNK N   1      -6.499   0.675  -0.016  0.00  0.00    -0.341 N 
HETATM   22  C   UNK N   1       6.312  -0.832  -0.590  0.00  0.00     0.238 C 
HETATM   23  C   UNK N   1      -6.508  -0.531   0.646  0.00  0.00     0.243 C 
HETATM   24  C   UNK N   1      -7.110   0.828  -1.316  0.00  0.00     0.153 C 
HETATM   25  N   UNK N   1       6.463  -2.168  -0.813  0.00  0.00    -0.342 N 
HETATM   26  O   UNK N   1       6.277  -0.066  -1.546  0.00  0.00    -0.272 OA
HETATM   27  C   UNK N   1      -7.179  -1.780   0.094  0.00  0.00     0.179 C 
HETATM   28  O   UNK N   1      -5.899  -0.634   1.705  0.00  0.00    -0.271 OA
HETATM   29  C   UNK N   1       6.901  -3.062   0.251  0.00  0.00     0.179 C 
HETATM   30  C   UNK N   1       6.480  -2.636  -2.185  0.00  0.00     0.153 C 
HETATM   31  N   UNK N   1      -7.012  -2.992   0.883  0.00  0.00    -0.341 N 
HETATM   32  C   UNK N   1       5.872  -3.906   0.976  0.00  0.00     0.241 C 
HETATM   33  C   UNK N   1      -5.874  -3.738   0.785  0.00  0.00     0.242 C 
HETATM   34  C   UNK N   1      -8.039  -3.377   1.817  0.00  0.00     0.153 C 
HETATM   35  N   UNK N   1       5.074  -4.818   0.368  0.00  0.00    -0.346 N 
HETATM   36  O   UNK N   1       5.813  -3.806   2.190  0.00  0.00    -0.271 OA
HETATM   37  C   UNK N   1      -4.760  -3.367  -0.164  0.00  0.00     0.172 C 
HETATM   38  O   UNK N   1      -5.745  -4.735   1.492  0.00  0.00    -0.271 OA
HETATM   39  C   UNK N   1       4.844  -4.913  -1.051  0.00  0.00     0.180 C 
HETATM   40  N   UNK N   1      -3.653  -4.264   0.033  0.00  0.00    -0.346 N 
HETATM   41  C   UNK N   1      -5.213  -3.442  -1.611  0.00  0.00     0.042 C 
HETATM   42  C   UNK N   1       3.553  -4.202  -1.342  0.00  0.00     0.243 C 
HETATM   43  C   UNK N   1      -2.387  -3.816   0.128  0.00  0.00     0.240 C 
HETATM   44  N   UNK N   1       2.438  -4.391  -0.569  0.00  0.00    -0.341 N 
HETATM   45  O   UNK N   1       3.516  -3.430  -2.289  0.00  0.00    -0.271 OA
HETATM   46  C   UNK N   1      -1.278  -4.763   0.406  0.00  0.00     0.172 C 
HETATM   47  O   UNK N   1      -2.126  -2.653  -0.128  0.00  0.00    -0.271 OA
HETATM   48  C   UNK N   1       1.204  -3.756  -0.940  0.00  0.00     0.179 C 
HETATM   49  C   UNK N   1       2.418  -5.299   0.563  0.00  0.00     0.153 C 
HETATM   50  N   UNK N   1      -0.828  -5.276  -0.850  0.00  0.00    -0.346 N 
HETATM   51  C   UNK N   1      -1.692  -5.903   1.325  0.00  0.00     0.042 C 
HETATM   52  C   UNK N   1       0.277  -4.827  -1.489  0.00  0.00     0.241 C 
HETATM   53  O   UNK N   1       0.589  -5.357  -2.542  0.00  0.00    -0.271 OA
HETATM   54  H   UNK N   1       3.044  -0.306   1.614  0.00  0.00     0.163 HD
HETATM   55  H   UNK N   1       4.613  -5.469   0.945  0.00  0.00     0.163 HD
HETATM   56  H   UNK N   1      -3.825  -5.231   0.100  0.00  0.00     0.163 HD
HETATM   57  H   UNK N   1      -1.350  -5.995  -1.273  0.00  0.00     0.163 HD
ENDROOT
BRANCH   1  58
HETATM   58  C   UNK N   1       1.137   3.634   0.675  0.00  0.00     0.154 C 
BRANCH  58  59
HETATM   59  C   UNK N   1       1.137   4.493  -0.606  0.00  0.00     0.016 C 
HETATM   60  C   UNK N   1       2.312   4.149  -1.506  0.00  0.00     0.013 C 
BRANCH  59  61
HETATM   61  C   UNK N   1       1.215   5.982  -0.304  0.00  0.00     0.033 C 
BRANCH  61  62
HETATM   62  C   UNK N   1      -0.120   6.535   0.070  0.00  0.00    -0.031 C 
HETATM   63  C   UNK N   1      -1.119   6.540  -0.809  0.00  0.00    -0.035 C 
HETATM   64  C   UNK N   1      -2.443   7.095  -0.421  0.00  0.00     0.036 C 
ENDBRANCH  61  62
ENDBRANCH  59  61
ENDBRANCH  58  59
BRANCH  58  65
HETATM   65  O   UNK N   1       0.074   3.969   1.512  0.00  0.00    -0.393 OA
HETATM   66  H   UNK N   1      -0.094   4.727   2.095  0.00  0.00     0.210 HD
ENDBRANCH  58  65
ENDBRANCH   1  58
BRANCH   8  67
HETATM   67  C   UNK N   1      -1.561   0.746   1.783  0.00  0.00     0.009 C 
HETATM   68  C   UNK N   1      -2.386  -0.494   1.526  0.00  0.00     0.012 C 
HETATM   69  C   UNK N   1      -1.808   1.188   3.211  0.00  0.00     0.012 C 
ENDBRANCH   8  67
BRANCH  10  70
HETATM   70  C   UNK N   1       3.516  -0.407  -1.165  0.00  0.00     0.030 C 
HETATM   71  C   UNK N   1       3.645   0.116  -2.584  0.00  0.00     0.007 C 
ENDBRANCH  10  70
BRANCH  17  72
HETATM   72  C   UNK N   1      -6.292   3.165   0.346  0.00  0.00     0.039 C 
BRANCH  72  73
HETATM   73  C   UNK N   1      -5.750   3.931  -0.848  0.00  0.00    -0.020 C 
HETATM   74  C   UNK N   1      -5.235   5.272  -0.365  0.00  0.00     0.009 C 
HETATM   75  C   UNK N   1      -6.864   4.174  -1.842  0.00  0.00     0.009 C 
ENDBRANCH  72  73
ENDBRANCH  17  72
BRANCH  27  76
HETATM   76  C   UNK N   1      -8.302  -1.775  -0.956  0.00  0.00     0.039 C 
BRANCH  76  77
HETATM   77  C   UNK N   1      -9.702  -1.395  -0.467  0.00  0.00    -0.020 C 
HETATM   78  C   UNK N   1      -9.729  -0.119   0.353  0.00  0.00     0.009 C 
HETATM   79  C   UNK N   1     -10.400  -2.525   0.259  0.00  0.00     0.009 C 
ENDBRANCH  76  77
ENDBRANCH  27  76
BRANCH  29  80
HETATM   80  C   UNK N   1       8.074  -3.908  -0.229  0.00  0.00     0.039 C 
BRANCH  80  81
HETATM   81  C   UNK N   1       8.936  -4.400   0.909  0.00  0.00    -0.020 C 
HETATM   82  C   UNK N   1       9.922  -5.398   0.347  0.00  0.00     0.009 C 
HETATM   83  C   UNK N   1       9.699  -3.235   1.511  0.00  0.00     0.009 C 
ENDBRANCH  80  81
ENDBRANCH  29  80
BRANCH  39  84
HETATM   84  C   UNK N   1       4.833  -6.358  -1.603  0.00  0.00     0.009 C 
HETATM   85  C   UNK N   1       3.699  -7.254  -1.128  0.00  0.00     0.012 C 
HETATM   86  C   UNK N   1       6.156  -7.062  -1.406  0.00  0.00     0.012 C 
ENDBRANCH  39  84
BRANCH  48  87
HETATM   87  C   UNK N   1       0.722  -2.668   0.057  0.00  0.00     0.039 C 
BRANCH  87  88
HETATM   88  C   UNK N   1       0.985  -2.924   1.546  0.00  0.00    -0.020 C 
HETATM   89  C   UNK N   1       2.403  -2.535   1.917  0.00  0.00     0.009 C 
HETATM   90  C   UNK N   1       0.044  -2.104   2.396  0.00  0.00     0.009 C 
ENDBRANCH  87  88
ENDBRANCH  48  87
TORSDOF 16
