REMARK  32 active torsions:
REMARK  status: ('A' for Active; 'I' for Inactive)
REMARK    1  A    between atoms: C_1  and  O_14 
REMARK    2  A    between atoms: C_2  and  N_13 
REMARK    3  A    between atoms: C_6  and  N_20 
REMARK    4  A    between atoms: C_9  and  O_8 
REMARK    5  A    between atoms: C_9  and  C_10 
REMARK    6  A    between atoms: N_13  and  C_21 
REMARK       I    between atoms: N_20  and  C_74 
REMARK    7  A    between atoms: C_21  and  C_22 
REMARK    8  A    between atoms: C_22  and  N_23 
REMARK    9  A    between atoms: C_25  and  O_29 
REMARK   10  A    between atoms: C_32  and  O_34 
REMARK   11  A    between atoms: C_39  and  C_56 
REMARK   12  A    between atoms: C_43  and  C_45 
REMARK   13  A    between atoms: C_45  and  C_46 
REMARK   14  A    between atoms: C_45  and  O_48 
REMARK   15  A    between atoms: C_46  and  C_47 
REMARK   16  A    between atoms: C_52  and  O_55 
REMARK   17  A    between atoms: C_56  and  C_57 
REMARK   18  A    between atoms: C_56  and  O_60 
REMARK   19  A    between atoms: C_57  and  C_58 
REMARK   20  A    between atoms: C_58  and  N_59 
REMARK   21  A    between atoms: C_61  and  C_62 
REMARK   22  A    between atoms: C_61  and  C_66 
REMARK   23  A    between atoms: C_67  and  C_62 
REMARK   24  A    between atoms: C_63  and  C_64 
REMARK   25  A    between atoms: C_70  and  C_63 
REMARK   26  A    between atoms: C_64  and  C_65 
REMARK   27  A    between atoms: C_65  and  C_66 
REMARK   28  A    between atoms: C_67  and  C_68 
REMARK   29  A    between atoms: C_71  and  C_68 
REMARK   30  A    between atoms: C_69  and  C_70 
REMARK   31  A    between atoms: C_71  and  C_72 
REMARK   32  A    between atoms: C_74  and  C_72 
ROOT
HETATM    1  C   UNK N   1      -4.650  -3.959   1.242  0.00  0.00     0.182 C 
HETATM    2  O   UNK N   1      -4.514  -3.930   2.629  0.00  0.00    -0.388 OA
HETATM    3  H   UNK N   1      -4.449  -4.001   3.595  0.00  0.00     0.210 HD
ENDROOT
BRANCH   1   4
HETATM    4  C   UNK N   1      -3.254  -3.931   0.597  0.00  0.00     0.183 C 
BRANCH   4   5
HETATM    5  C   UNK N   1      -3.247  -3.285  -0.798  0.00  0.00     0.208 C 
HETATM    6  N   UNK N   1      -1.968  -3.342  -1.488  0.00  0.00    -0.344 N 
HETATM    7  C   UNK N   1      -0.731  -3.221  -0.934  0.00  0.00     0.241 C 
HETATM    8  H   UNK N   1      -2.001  -3.482  -2.462  0.00  0.00     0.163 HD
HETATM    9  C   UNK N   1      -0.525  -3.023   0.554  0.00  0.00     0.181 C 
HETATM   10  O   UNK N   1       0.245  -3.279  -1.666  0.00  0.00    -0.271 OA
HETATM   11  N   UNK N   1       0.271  -1.845   0.790  0.00  0.00    -0.334 N 
HETATM   12  C   UNK N   1       0.304  -4.168   1.127  0.00  0.00     0.068 C 
HETATM   13  C   UNK N   1      -0.217  -0.585   0.511  0.00  0.00     0.246 C 
HETATM   14  C   UNK N   1       1.585  -2.138   1.291  0.00  0.00     0.158 C 
HETATM   15  C   UNK N   1       0.623   0.692   0.522  0.00  0.00     0.205 C 
HETATM   16  O   UNK N   1      -1.379  -0.465   0.167  0.00  0.00    -0.271 OA
HETATM   17  N   UNK N   1       0.579   1.219  -0.823  0.00  0.00    -0.344 N 
HETATM   18  C   UNK N   1       0.115   2.442  -1.195  0.00  0.00     0.241 C 
HETATM   19  H   UNK N   1       0.917   0.635  -1.540  0.00  0.00     0.163 HD
HETATM   20  C   UNK N   1      -0.438   3.485  -0.226  0.00  0.00     0.179 C 
HETATM   21  O   UNK N   1       0.102   2.706  -2.388  0.00  0.00    -0.271 OA
HETATM   22  C   UNK N   1      -0.476   4.900  -0.835  0.00  0.00     0.070 C 
HETATM   23  C   UNK N   1      -0.502   6.028   0.195  0.00  0.00     0.162 C 
HETATM   24  C   UNK N   1      -1.785   6.257   1.019  0.00  0.00     0.209 C 
HETATM   25  N   UNK N   1      -2.732   5.170   1.211  0.00  0.00    -0.336 N 
HETATM   26  C   UNK N   1      -3.461   4.583   0.227  0.00  0.00     0.244 C 
HETATM   27  H   UNK N   1      -2.854   4.832   2.127  0.00  0.00     0.164 HD
HETATM   28  O   UNK N   1      -3.294   4.885  -0.947  0.00  0.00    -0.271 OA
HETATM   29  C   UNK N   1      -4.557   3.624   0.616  0.00  0.00     0.208 C 
HETATM   30  N   UNK N   1      -4.438   2.339  -0.008  0.00  0.00    -0.334 N 
HETATM   31  C   UNK N   1      -5.917   4.044   0.065  0.00  0.00     0.151 C 
HETATM   32  C   UNK N   1      -5.059   2.285  -1.312  0.00  0.00     0.129 C 
HETATM   33  C   UNK N   1      -4.341   1.218   0.761  0.00  0.00     0.246 C 
HETATM   34  C   UNK N   1      -5.930   3.533  -1.372  0.00  0.00     0.054 C 
HETATM   35  O   UNK N   1      -3.945   1.291   1.920  0.00  0.00    -0.271 OA
HETATM   36  C   UNK N   1      -4.975  -0.046   0.264  0.00  0.00     0.205 C 
HETATM   37  N   UNK N   1      -4.156  -1.234   0.290  0.00  0.00    -0.344 N 
HETATM   38  C   UNK N   1      -3.830  -1.891  -0.853  0.00  0.00     0.243 C 
HETATM   39  H   UNK N   1      -3.827  -1.574   1.153  0.00  0.00     0.163 HD
HETATM   40  O   UNK N   1      -4.073  -1.390  -1.941  0.00  0.00    -0.271 OA
HETATM   41  C   UNK N   1       1.730  -3.644   1.238  0.00  0.00     0.138 C 
BRANCH  15  42
HETATM   42  C   UNK N   1       2.082   0.492   0.943  0.00  0.00     0.146 C 
HETATM   43  C   UNK N   1       2.246   0.664   2.440  0.00  0.00     0.042 C 
BRANCH  42  44
HETATM   44  O   UNK N   1       2.963   1.324   0.266  0.00  0.00    -0.393 OA
HETATM   45  H   UNK N   1       3.775   1.082  -0.207  0.00  0.00     0.210 HD
ENDBRANCH  42  44
ENDBRANCH  15  42
BRANCH  20  46
HETATM   46  N   UNK N   1       0.036   3.461   1.149  0.00  0.00    -0.348 N 
HETATM   47  C   UNK N   1       1.295   3.716   1.594  0.00  0.00     0.218 C 
HETATM   48  O   UNK N   1       1.499   3.718   2.796  0.00  0.00    -0.274 OA
HETATM   49  H   UNK N   1      -0.632   3.235   1.836  0.00  0.00     0.163 HD
BRANCH  47  50
HETATM   50  C   UNK N   1       2.471   3.887   0.680  0.00  0.00     0.103 C 
BRANCH  50  51
HETATM   51  C   UNK N   1       2.529   5.148  -0.146  0.00  0.00     0.009 C 
BRANCH  51  52
HETATM   52  C   UNK N   1       3.797   5.107  -0.989  0.00  0.00     0.000 C 
BRANCH  52  53
HETATM   53  C   UNK N   1       5.005   5.609  -0.204  0.00  0.00     0.000 C 
BRANCH  53  54
HETATM   54  C   UNK N   1       5.614   4.535   0.686  0.00  0.00     0.000 C 
BRANCH  54  55
HETATM   55  C   UNK N   1       6.706   3.781  -0.051  0.00  0.00     0.000 C 
BRANCH  55  56
HETATM   56  C   UNK N   1       7.543   3.018   0.959  0.00  0.00     0.000 C 
BRANCH  56  57
HETATM   57  C   UNK N   1       8.274   1.855   0.308  0.00  0.00     0.004 C 
BRANCH  57  58
HETATM   58  C   UNK N   1       7.354   0.650   0.192  0.00  0.00    -0.018 C 
HETATM   59  C   UNK N   1       8.196  -0.611   0.199  0.00  0.00     0.010 C 
BRANCH  58  60
HETATM   60  C   UNK N   1       6.554   0.702  -1.106  0.00  0.00     0.008 C 
BRANCH  60  61
HETATM   61  C   UNK N   1       5.158   0.090  -0.967  0.00  0.00    -0.019 C 
HETATM   62  C   UNK N   1       5.187  -1.314  -0.388  0.00  0.00     0.010 C 
BRANCH  61  63
HETATM   63  C   UNK N   1       4.450   0.045  -2.312  0.00  0.00    -0.000 C 
HETATM   64  C   UNK N   1       4.113   1.440  -2.808  0.00  0.00     0.005 C 
ENDBRANCH  61  63
ENDBRANCH  60  61
ENDBRANCH  58  60
ENDBRANCH  57  58
ENDBRANCH  56  57
ENDBRANCH  55  56
ENDBRANCH  54  55
ENDBRANCH  53  54
ENDBRANCH  52  53
ENDBRANCH  51  52
ENDBRANCH  50  51
ENDBRANCH  47  50
ENDBRANCH  20  46
BRANCH  23  65
HETATM   65  O   UNK N   1      -0.040   7.216  -0.374  0.00  0.00    -0.392 OA
HETATM   66  H   UNK N   1       0.835   7.351  -0.769  0.00  0.00     0.210 HD
ENDBRANCH  23  65
BRANCH  24  67
HETATM   67  N   UNK N   1      -2.408   7.579   0.922  0.00  0.00    -0.398 N 
HETATM   68  H   UNK N   1      -2.358   8.299   1.643  0.00  0.00     0.155 HD
BRANCH  67  69
HETATM   69  C   UNK N   1      -3.108   7.721  -0.343  0.00  0.00     0.135 C 
BRANCH  69  70
HETATM   70  C   UNK N   1      -4.584   7.915  -0.071  0.00  0.00     0.130 C 
BRANCH  70  71
HETATM   71  N   UNK N   1      -5.315   7.860  -1.323  0.00  0.00    -0.429 N 
HETATM   72  H   UNK N   1      -5.605   8.286  -2.203  0.00  0.00     0.149 HD
HETATM   73  H   UNK N   1      -5.758   6.941  -1.323  0.00  0.00     0.149 HD
ENDBRANCH  70  71
ENDBRANCH  69  70
ENDBRANCH  67  69
ENDBRANCH  24  67
BRANCH  36  74
HETATM   74  C   UNK N   1      -6.284  -0.259   1.024  0.00  0.00     0.151 C 
BRANCH  74  75
HETATM   75  C   UNK N   1      -7.325  -0.965   0.176  0.00  0.00     0.053 C 
BRANCH  75  76
HETATM   76  C   UNK N   1      -7.797  -0.047  -0.945  0.00  0.00     0.113 C 
BRANCH  76  77
HETATM   77  N   UNK N   1      -8.504   1.100  -0.395  0.00  0.00    -0.430 N 
HETATM   78  H   UNK N   1      -8.056   1.931  -0.009  0.00  0.00     0.149 HD
HETATM   79  H   UNK N   1      -9.524   1.070  -0.395  0.00  0.00     0.149 HD
ENDBRANCH  76  77
ENDBRANCH  75  76
ENDBRANCH  74  75
BRANCH  74  80
HETATM   80  O   UNK N   1      -6.077  -0.932   2.231  0.00  0.00    -0.393 OA
HETATM   81  H   UNK N   1      -6.410  -1.290   3.068  0.00  0.00     0.210 HD
ENDBRANCH  74  80
ENDBRANCH  36  74
BRANCH  31  82
HETATM   82  O   UNK N   1      -6.167   5.412   0.145  0.00  0.00    -0.393 OA
HETATM   83  H   UNK N   1      -5.429   6.039   0.201  0.00  0.00     0.210 HD
ENDBRANCH  31  82
BRANCH  41  84
HETATM   84  O   UNK N   1       2.445  -3.983   0.089  0.00  0.00    -0.394 OA
HETATM   85  H   UNK N   1       2.490  -4.532  -0.709  0.00  0.00     0.210 HD
ENDBRANCH  41  84
ENDBRANCH   4   5
BRANCH   4  86
HETATM   86  O   UNK N   1      -2.657  -5.196   0.590  0.00  0.00    -0.390 OA
HETATM   87  H   UNK N   1      -3.210  -5.993   0.585  0.00  0.00     0.210 HD
ENDBRANCH   4  86
ENDBRANCH   1   4
BRANCH   1  88
HETATM   88  C   UNK N   1      -5.604  -5.066   0.855  0.00  0.00    -0.027 A 
HETATM   89  C   UNK N   1      -6.923  -5.001   1.324  0.00  0.00     0.012 A 
HETATM   90  C   UNK N   1      -7.823  -6.035   1.055  0.00  0.00     0.037 A 
HETATM   91  C   UNK N   1      -7.409  -7.149   0.322  0.00  0.00     0.065 A 
HETATM   92  C   UNK N   1      -6.099  -7.220  -0.160  0.00  0.00     0.037 A 
HETATM   93  C   UNK N   1      -5.200  -6.181   0.102  0.00  0.00     0.012 A 
BRANCH  91  94
HETATM   94  O   UNK N   1      -8.268  -8.154   0.086  0.00  0.00    -0.361 OA
HETATM   95  H   UNK N   1      -9.175  -7.985  -0.080  0.00  0.00     0.217 HD
ENDBRANCH  91  94
ENDBRANCH   1  88
TORSDOF 32
