REMARK  2 active torsions:
REMARK  status: ('A' for Active; 'I' for Inactive)
REMARK    1  A    between atoms: C_7  and  C_8 
REMARK    2  A    between atoms: N_9  and  O_11 
ROOT
HETATM    1  C   UNK N   1      -1.213   1.911   0.043  0.00  0.00     0.004 A 
HETATM    2  C   UNK N   1      -2.420   1.218   0.032  0.00  0.00     0.017 A 
HETATM    3  C   UNK N   1      -2.409  -0.176   0.003  0.00  0.00     0.090 A 
HETATM    4  C   UNK N   1      -0.011   1.204   0.035  0.00  0.00     0.031 A 
HETATM    5  N   UNK N   1      -1.230  -0.861  -0.011  0.00  0.00    -0.360 N 
HETATM    6  C   UNK N   1      -1.284  -2.315  -0.031  0.00  0.00     0.155 C 
HETATM    7  C   UNK N   1      -0.029  -0.197   0.011  0.00  0.00     0.051 A 
ENDROOT
BRANCH   7   8
HETATM    8  C   UNK N   1       1.243  -0.953   0.037  0.00  0.00     0.143 C 
HETATM    9  N   UNK N   1       2.372  -0.360   0.169  0.00  0.00    -0.278 N 
ATOM     10  HN  UNK N   1       2.410   0.657   0.235  1.00  0.00     0.193 HD
BRANCH   9  11
HETATM   11  O   UNK N   1       3.480  -1.065   0.219  0.00  0.00    -0.290 OA
HETATM   12  H   UNK N   1       3.439  -2.001   0.254  0.00  0.00     0.244 HD
ENDBRANCH   9  11
ENDBRANCH   7   8
TORSDOF 2
