REMARK  9 active torsions:
REMARK  status: ('A' for Active; 'I' for Inactive)
REMARK    1  A    between atoms: N_12  and  C_1 
REMARK    2  A    between atoms: C_2  and  N_11 
REMARK    3  A    between atoms: N_11  and  C_22 
REMARK    4  A    between atoms: C_21  and  N_12 
REMARK    5  A    between atoms: C_28  and  C_21 
REMARK    6  A    between atoms: C_22  and  C_27 
REMARK    7  A    between atoms: C_27  and  C_34 
REMARK    8  A    between atoms: C_33  and  C_28 
REMARK    9  A    between atoms: C_34  and  C_33 
ROOT
HETATM    1  C   UNK N   1       0.120   2.945  -1.633  0.00  0.00     0.002 C 
ENDROOT
BRANCH   1   2
HETATM    2  C   UNK N   1       0.400   1.474  -1.358  0.00  0.00     0.028 C 
BRANCH   2   3
HETATM    3  C   UNK N   1       1.824   1.215  -0.830  0.00  0.00     0.237 C 
BRANCH   3   4
HETATM    4  N   UNK N   1       2.077   1.634   0.567  0.00  0.00    -0.062 N 
HETATM    5  C   UNK N   1       2.427   3.048   0.580  0.00  0.00     0.273 C 
HETATM    6  C   UNK N   1       0.892   1.494   1.409  0.00  0.00     0.273 C 
BRANCH   4   7
HETATM    7  C   UNK N   1       3.158   0.835   1.203  0.00  0.00     0.257 A 
HETATM    8  C   UNK N   1       4.540   0.969   0.564  0.00  0.00    -0.012 A 
HETATM    9  C   UNK N   1       5.023  -0.246   0.121  0.00  0.00    -0.017 A 
HETATM   10  C   UNK N   1       5.323   2.121   0.453  0.00  0.00     0.010 A 
HETATM   11  C   UNK N   1       6.284  -0.375  -0.459  0.00  0.00     0.013 A 
HETATM   12  C   UNK N   1       4.049  -1.258   0.399  0.00  0.00    -0.017 A 
HETATM   13  C   UNK N   1       7.076   0.776  -0.584  0.00  0.00     0.001 A 
HETATM   14  C   UNK N   1       6.598   2.020  -0.129  0.00  0.00     0.001 A 
HETATM   15  C   UNK N   1       2.972  -0.673   1.032  0.00  0.00    -0.012 A 
HETATM   16  C   UNK N   1       4.099  -2.625   0.136  0.00  0.00     0.013 A 
HETATM   17  C   UNK N   1       1.887  -1.449   1.443  0.00  0.00     0.010 A 
HETATM   18  C   UNK N   1       1.911  -2.831   1.189  0.00  0.00     0.001 A 
HETATM   19  C   UNK N   1       3.011  -3.417   0.533  0.00  0.00     0.001 A 
ENDBRANCH   4   7
ENDBRANCH   3   4
ENDBRANCH   2   3
ENDBRANCH   1   2
BRANCH   1  20
HETATM   20  C   UNK N   1      -0.763   3.568  -0.554  0.00  0.00     0.002 C 
BRANCH  20  21
HETATM   21  C   UNK N   1      -2.211   3.111  -0.668  0.00  0.00     0.028 C 
BRANCH  21  22
HETATM   22  C   UNK N   1      -2.411   1.807   0.108  0.00  0.00     0.237 C 
BRANCH  22  23
HETATM   23  N   UNK N   1      -3.728   1.179  -0.085  0.00  0.00    -0.062 N 
HETATM   24  C   UNK N   1      -3.998   0.979  -1.510  0.00  0.00     0.273 C 
HETATM   25  C   UNK N   1      -4.741   2.075   0.460  0.00  0.00     0.273 C 
BRANCH  23  26
HETATM   26  C   UNK N   1      -3.748  -0.104   0.665  0.00  0.00     0.257 A 
HETATM   27  C   UNK N   1      -5.045  -0.902   0.515  0.00  0.00    -0.012 A 
HETATM   28  C   UNK N   1      -4.822  -2.154  -0.023  0.00  0.00    -0.017 A 
HETATM   29  C   UNK N   1      -6.338  -0.508   0.871  0.00  0.00     0.010 A 
HETATM   30  C   UNK N   1      -5.856  -3.062  -0.240  0.00  0.00     0.013 A 
HETATM   31  C   UNK N   1      -3.422  -2.303  -0.275  0.00  0.00    -0.017 A 
HETATM   32  C   UNK N   1      -7.160  -2.676   0.106  0.00  0.00     0.001 A 
HETATM   33  C   UNK N   1      -7.400  -1.403   0.660  0.00  0.00     0.001 A 
HETATM   34  C   UNK N   1      -2.776  -1.147   0.111  0.00  0.00    -0.012 A 
HETATM   35  C   UNK N   1      -2.735  -3.391  -0.810  0.00  0.00     0.013 A 
HETATM   36  C   UNK N   1      -1.392  -1.034  -0.023  0.00  0.00     0.010 A 
HETATM   37  C   UNK N   1      -0.676  -2.111  -0.569  0.00  0.00     0.001 A 
HETATM   38  C   UNK N   1      -1.344  -3.287  -0.958  0.00  0.00     0.001 A 
ENDBRANCH  23  26
ENDBRANCH  22  23
ENDBRANCH  21  22
ENDBRANCH  20  21
ENDBRANCH   1  20
TORSDOF 9
