REMARK  7 active torsions:
REMARK  status: ('A' for Active; 'I' for Inactive)
REMARK    1  A    between atoms: C_3  and  O_17 
REMARK    2  A    between atoms: C_6  and  C_11 
REMARK    3  A    between atoms: C_12  and  C_21 
REMARK    4  A    between atoms: C_13  and  C_14 
REMARK    5  A    between atoms: C_15  and  C_23 
REMARK    6  A    between atoms: C_16  and  C_19 
REMARK    7  A    between atoms: C_19  and  O_20 
ROOT
HETATM    1  C   UNK N   1      -0.736   1.721   0.000  0.00  0.00     0.013 C 
HETATM    2  C   UNK N   1      -0.490   3.031   0.001  0.00  0.00     0.007 C 
ENDROOT
BRANCH   2   3
HETATM    3  C   UNK N   1       0.863   3.634   0.002  0.00  0.00    -0.062 C 
HETATM    4  C   UNK N   1       2.020   2.954   0.002  0.00  0.00     0.007 C 
HETATM    5  C   UNK N   1       0.948   5.119   0.003  0.00  0.00     0.048 C 
BRANCH   4   6
HETATM    6  C   UNK N   1       2.196   1.489   0.001  0.00  0.00     0.001 C 
HETATM    7  C   UNK N   1       3.409   0.902   0.000  0.00  0.00     0.007 C 
BRANCH   7   8
HETATM    8  C   UNK N   1       4.729   1.596  -0.001  0.00  0.00    -0.056 C 
HETATM    9  C   UNK N   1       5.841   0.839   0.001  0.00  0.00     0.087 C 
HETATM   10  C   UNK N   1       4.826   3.095  -0.005  0.00  0.00     0.048 C 
BRANCH   9  11
HETATM   11  C   UNK N   1       7.239   1.347  -0.000  0.00  0.00     0.165 C 
HETATM   12  O   UNK N   1       7.483   2.543  -0.002  0.00  0.00    -0.647 OA
BRANCH  11  13
HETATM   13  O   UNK N   1       8.256   0.467   0.001  0.00  0.00    -0.773 OA
HETATM   14  H   UNK N   1       8.080  -0.453   0.002  0.00  0.00     0.167 HD
ENDBRANCH  11  13
ENDBRANCH   9  11
ENDBRANCH   7   8
ENDBRANCH   4   6
ENDBRANCH   2   3
BRANCH   1  15
HETATM   15  C   UNK N   1      -2.096   1.105  -0.000  0.00  0.00    -0.024 A 
HETATM   16  C   UNK N   1      -3.307   1.857  -0.000  0.00  0.00    -0.043 A 
HETATM   17  C   UNK N   1      -4.556   1.191  -0.000  0.00  0.00    -0.022 A 
HETATM   18  C   UNK N   1      -3.294   3.358  -0.000  0.00  0.00     0.049 C 
HETATM   19  C   UNK N   1      -4.599  -0.232  -0.001  0.00  0.00     0.075 A 
HETATM   20  C   UNK N   1      -5.810   2.014  -0.000  0.00  0.00     0.052 C 
HETATM   21  C   UNK N   1      -3.402  -0.942  -0.001  0.00  0.00     0.044 A 
HETATM   22  C   UNK N   1      -2.169  -0.299  -0.000  0.00  0.00    -0.049 A 
HETATM   23  C   UNK N   1      -0.936  -1.143  -0.000  0.00  0.00     0.049 C 
BRANCH  19  24
HETATM   24  O   UNK N   1      -5.744  -0.970  -0.001  0.00  0.00    -0.355 OA
HETATM   25  C   UNK N   1      -7.034  -0.493  -0.000  0.00  0.00     0.210 C 
ENDBRANCH  19  24
ENDBRANCH   1  15
TORSDOF 7
