REMARK  5 active torsions:
REMARK  status: ('A' for Active; 'I' for Inactive)
REMARK    1  A    between atoms: C_7  and  C_9 
REMARK    2  A    between atoms: C_9  and  C_8 
REMARK    3  A    between atoms: C_9  and  C_10 
REMARK    4  A    between atoms: C_10  and  C_21 
REMARK    5  A    between atoms: C_11  and  O_12 
ROOT
HETATM    1  C   UNK N   1       2.891  -0.337   0.400  0.00  0.00     0.017 A 
HETATM    2  C   UNK N   1       4.122   0.323   0.359  0.00  0.00     0.001 A 
HETATM    3  C   UNK N   1       4.170   1.700   0.124  0.00  0.00     0.003 A 
HETATM    4  C   UNK N   1       2.987   2.419  -0.080  0.00  0.00     0.038 A 
HETATM    5  C   UNK N   1       1.702   0.379   0.199  0.00  0.00     0.032 A 
HETATM    6  C   UNK N   1       1.753   1.762  -0.047  0.00  0.00     0.092 A 
HETATM    7  C   UNK N   1      -0.720   0.493   0.020  0.00  0.00     0.060 A 
HETATM    8  C   UNK N   1       0.460  -0.254   0.239  0.00  0.00     0.091 A 
HETATM    9  O   UNK N   1       0.634   2.448  -0.252  0.00  0.00    -0.274 OA
HETATM   10  C   UNK N   1      -0.571   1.884  -0.237  0.00  0.00     0.298 A 
HETATM   11  O   UNK N   1      -1.541   2.589  -0.455  0.00  0.00    -0.259 OA
ENDROOT
BRANCH   7  12
HETATM   12  C   UNK N   1      -2.068  -0.241   0.076  0.00  0.00     0.067 C 
BRANCH  12  13
HETATM   13  C   UNK N   1      -3.348   0.580   0.033  0.00  0.00    -0.049 A 
HETATM   14  C   UNK N   1      -4.295   0.399  -0.993  0.00  0.00     0.008 A 
HETATM   15  C   UNK N   1      -5.475   1.148  -1.013  0.00  0.00     0.001 A 
HETATM   16  C   UNK N   1      -5.721   2.087  -0.009  0.00  0.00     0.000 A 
HETATM   17  C   UNK N   1      -4.794   2.269   1.020  0.00  0.00     0.001 A 
HETATM   18  C   UNK N   1      -3.617   1.512   1.047  0.00  0.00     0.008 A 
ENDBRANCH  12  13
BRANCH  12  19
HETATM   19  C   UNK N   1      -2.089  -1.394  -0.935  0.00  0.00     0.092 C 
BRANCH  19  20
HETATM   20  C   UNK N   1      -2.516  -2.666  -0.271  0.00  0.00     0.124 C 
HETATM   21  O   UNK N   1      -3.612  -2.751   0.258  0.00  0.00    -0.298 OA
HETATM   22  C   UNK N   1      -1.596  -3.838  -0.258  0.00  0.00     0.091 C 
ENDBRANCH  19  20
ENDBRANCH  12  19
ENDBRANCH   7  12
BRANCH   8  23
HETATM   23  O   UNK N   1       0.396  -1.577   0.488  0.00  0.00    -0.359 OA
HETATM   24  H   UNK N   1      -0.423  -1.998   0.660  0.00  0.00     0.217 HD
ENDBRANCH   8  23
TORSDOF 5
