REMARK  7 active torsions:
REMARK  status: ('A' for Active; 'I' for Inactive)
REMARK    1  A    between atoms: C_14  and  O_21 
REMARK    2  A    between atoms: C_17  and  O_23 
REMARK    3  A    between atoms: C_17  and  C_26 
REMARK    4  A    between atoms: C_31  and  O_23 
REMARK    5  A    between atoms: C_26  and  S_28 
REMARK    6  A    between atoms: S_28  and  C_29 
REMARK    7  A    between atoms: C_31  and  C_32 
ROOT
HETATM    1  C   UNK N   1      10.164 -17.618   1.891  0.00  0.00     0.052 C 
HETATM    2  C   UNK N   1       9.911 -19.022   1.470  0.00  0.00     0.172 C 
HETATM    3  C   UNK N   1      11.055 -19.778   0.904  0.00  0.00     0.061 C 
HETATM    4  C   UNK N   1      12.075 -19.076   0.366  0.00  0.00    -0.027 C 
HETATM    5  C   UNK N   1      11.904 -17.579   0.150  0.00  0.00     0.039 C 
HETATM    6  C   UNK N   1      11.235 -16.980   1.374  0.00  0.00    -0.006 C 
HETATM    7  C   UNK N   1      13.399 -19.717   0.036  0.00  0.00     0.201 C 
HETATM    8  C   UNK N   1      14.524 -18.959   0.760  0.00  0.00     0.050 C 
HETATM    9  C   UNK N   1      14.497 -17.423   0.555  0.00  0.00     0.037 C 
HETATM   10  C   UNK N   1      13.255 -16.935  -0.270  0.00  0.00     0.147 C 
HETATM   11  C   UNK N   1      15.756 -16.941  -0.244  0.00  0.00     0.005 C 
HETATM   12  C   UNK N   1      15.692 -15.442  -0.675  0.00  0.00     0.003 C 
HETATM   13  C   UNK N   1      14.533 -14.690  -0.018  0.00  0.00     0.048 C 
HETATM   14  C   UNK N   1      13.178 -15.387  -0.190  0.00  0.00     0.160 C 
HETATM   15  C   UNK N   1      17.164 -17.141   0.316  0.00  0.00     0.013 C 
HETATM   16  C   UNK N   1      18.002 -16.079  -0.429  0.00  0.00     0.027 C 
HETATM   17  C   UNK N   1      17.083 -14.844  -0.293  0.00  0.00     0.152 C 
HETATM   18  O   UNK N   1       8.857 -19.578   1.733  0.00  0.00    -0.289 OA
HETATM   19  C   UNK N   1      10.899 -17.380  -0.996  0.00  0.00     0.028 C 
HETATM   20  F   UNK N   1      13.479 -17.322  -1.591  0.00  0.00    -0.238 F 
HETATM   21  C   UNK N   1      15.471 -15.384  -2.200  0.00  0.00     0.019 C 
HETATM   22  C   UNK N   1      18.290 -16.518  -1.865  0.00  0.00     0.014 C 
HETATM   23  F   UNK N   1      13.428 -21.053   0.399  0.00  0.00    -0.245 F 
ENDROOT
BRANCH  17  24
HETATM   24  O   UNK N   1      17.163 -14.502   1.060  0.00  0.00    -0.300 OA
BRANCH  24  25
HETATM   25  C   UNK N   1      18.312 -14.057   1.667  0.00  0.00     0.259 C 
HETATM   26  O   UNK N   1      18.322 -13.885   2.876  0.00  0.00    -0.265 OA
BRANCH  25  27
HETATM   27  C   UNK N   1      19.563 -13.747   0.880  0.00  0.00     0.106 C 
HETATM   28  C   UNK N   1      20.684 -14.716   1.203  0.00  0.00     0.015 C 
ENDBRANCH  25  27
ENDBRANCH  24  25
ENDBRANCH  17  24
BRANCH  17  29
HETATM   29  C   UNK N   1      17.382 -13.584  -1.117  0.00  0.00     0.224 C 
HETATM   30  O   UNK N   1      18.357 -13.556  -1.852  0.00  0.00    -0.282 OA
BRANCH  29  31
HETATM   31  S   UNK N   1      16.275 -12.139  -1.100  0.00  0.00    -0.058 SA
BRANCH  31  32
HETATM   32  C   UNK N   1      16.043 -11.953   0.701  0.00  0.00     0.304 C 
HETATM   33  F   UNK N   1      14.699 -12.076   1.020  0.00  0.00    -0.244 F 
ENDBRANCH  31  32
ENDBRANCH  29  31
ENDBRANCH  17  29
BRANCH  14  34
HETATM   34  O   UNK N   1      12.460 -14.845  -1.258  0.00  0.00    -0.392 OA
HETATM   35  H   UNK N   1      12.537 -14.225  -1.999  0.00  0.00     0.210 HD
ENDBRANCH  14  34
TORSDOF 7
