REMARK  4 active torsions:
REMARK  status: ('A' for Active; 'I' for Inactive)
REMARK    1  A    between atoms: C_8  and  O_20 
REMARK    2  A    between atoms: C_9  and  C_11 
REMARK    3  A    between atoms: C_11  and  C_12 
REMARK    4  A    between atoms: C_11  and  C_18 
ROOT
HETATM    1  C   UNK N   1      -5.020   1.249  -0.157  0.00  0.00     0.038 A 
HETATM    2  C   UNK N   1      -6.179   0.467  -0.154  0.00  0.00     0.003 A 
HETATM    3  C   UNK N   1      -6.085  -0.923  -0.046  0.00  0.00     0.001 A 
HETATM    4  C   UNK N   1      -4.831  -1.533   0.060  0.00  0.00     0.017 A 
HETATM    5  C   UNK N   1      -3.665  -0.752   0.052  0.00  0.00     0.032 A 
HETATM    6  C   UNK N   1      -3.765   0.642  -0.057  0.00  0.00     0.092 A 
HETATM    7  O   UNK N   1      -2.672   1.389  -0.061  0.00  0.00    -0.274 OA
HETATM    8  C   UNK N   1      -2.400  -1.336   0.142  0.00  0.00     0.091 A 
HETATM    9  C   UNK N   1      -1.231  -0.526   0.098  0.00  0.00     0.060 A 
HETATM   10  C   UNK N   1      -1.443   0.884   0.013  0.00  0.00     0.298 A 
HETATM   11  O   UNK N   1      -0.518   1.665   0.017  0.00  0.00    -0.259 OA
ENDROOT
BRANCH   9  12
HETATM   12  C   UNK N   1       0.147  -1.249   0.160  0.00  0.00     0.060 C 
BRANCH  12  13
HETATM   13  C   UNK N   1       1.545  -0.618   0.157  0.00  0.00    -0.049 A 
HETATM   14  C   UNK N   1       1.810   0.698  -0.243  0.00  0.00     0.008 A 
HETATM   15  C   UNK N   1       3.114   1.198  -0.280  0.00  0.00     0.001 A 
HETATM   16  C   UNK N   1       4.186   0.374   0.060  0.00  0.00     0.000 A 
HETATM   17  C   UNK N   1       3.949  -0.947   0.443  0.00  0.00     0.001 A 
HETATM   18  C   UNK N   1       2.640  -1.436   0.492  0.00  0.00     0.008 A 
ENDBRANCH  12  13
BRANCH  12  19
HETATM   19  C   UNK N   1       0.180  -2.383  -0.869  0.00  0.00     0.010 C 
HETATM   20  C   UNK N   1       0.522  -3.696  -0.184  0.00  0.00     0.006 C 
ENDBRANCH  12  19
ENDBRANCH   9  12
BRANCH   8  21
HETATM   21  O   UNK N   1      -2.307  -2.675   0.262  0.00  0.00    -0.359 OA
HETATM   22  H   UNK N   1      -3.080  -3.197   0.346  0.00  0.00     0.217 HD
ENDBRANCH   8  21
TORSDOF 4
