REMARK  3 active torsions:
REMARK  status: ('A' for Active; 'I' for Inactive)
REMARK    1  A    between atoms: C_1  and  C_2 
REMARK    2  A    between atoms: C_2  and  C_5 
REMARK    3  A    between atoms: C_5  and  N_8 
REMARK       I    between atoms: N_8  and  C_10 
REMARK       I    between atoms: C_10  and  N_11 
REMARK       I    between atoms: N_11  and  C_14 
REMARK       I    between atoms: C_14  and  N_15 
ROOT
HETATM    1  N   UNK N   1      -1.065   1.075  -0.000  0.00  0.00    -0.226 N 
HETATM    2  C   UNK N   1      -2.276   0.330  -0.000  0.00  0.00     0.686 C 
HETATM    3  N   UNK N   1      -3.526   1.016   0.000  0.00  0.00    -0.024 N 
HETATM    4  N   UNK N   1      -2.234  -0.953  -0.000  0.00  0.00    -0.234 N 
ATOM      5  HN  UNK N   1      -1.334  -1.434  -0.000  1.00  0.00     0.174 HD
HETATM    6  C   UNK N   1      -4.804   0.377   0.000  0.00  0.00     0.683 C 
HETATM    7  N   UNK N   1      -5.973   1.167   0.000  0.00  0.00    -0.234 N 
HETATM    8  N   UNK N   1      -4.910  -0.901   0.000  0.00  0.00    -0.234 N 
ATOM      9  HN  UNK N   1      -4.072  -1.482   0.000  1.00  0.00     0.174 HD
HETATM   10  H   UNK N   1      -1.084   2.059   0.000  0.00  0.00     0.177 HD
HETATM   11  H   UNK N   1      -3.508   2.001   0.000  0.00  0.00     0.203 HD
HETATM   12  H   UNK N   1      -3.070  -1.473  -0.000  0.00  0.00     0.174 HD
HETATM   13  H   UNK N   1      -5.903   2.149   0.000  0.00  0.00     0.174 HD
HETATM   14  H   UNK N   1      -6.858   0.737   0.000  0.00  0.00     0.174 HD
HETATM   15  H   UNK N   1      -5.801  -1.320  -0.000  0.00  0.00     0.174 HD
ENDROOT
BRANCH   1  16
HETATM   16  C   UNK N   1       0.188   0.368  -0.000  0.00  0.00     0.142 C 
BRANCH  16  17
HETATM   17  C   UNK N   1       1.397   1.288  -0.000  0.00  0.00     0.058 C 
BRANCH  17  18
HETATM   18  C   UNK N   1       2.675   0.487  -0.000  0.00  0.00    -0.057 A 
HETATM   19  C   UNK N   1       2.658  -0.922  -0.000  0.00  0.00     0.007 A 
HETATM   20  C   UNK N   1       3.849  -1.648  -0.000  0.00  0.00     0.001 A 
HETATM   21  C   UNK N   1       5.071  -0.975   0.000  0.00  0.00     0.000 A 
HETATM   22  C   UNK N   1       5.101   0.423   0.000  0.00  0.00     0.001 A 
HETATM   23  C   UNK N   1       3.905   1.153   0.000  0.00  0.00     0.007 A 
ENDBRANCH  17  18
ENDBRANCH  16  17
ENDBRANCH   1  16
TORSDOF 3
