REMARK  5 active torsions:
REMARK  status: ('A' for Active; 'I' for Inactive)
REMARK    1  A    between atoms: C_11  and  C_17 
REMARK       I    between atoms: C_17  and  N_19 
REMARK    2  A    between atoms: N_19  and  C_20 
REMARK    3  A    between atoms: C_20  and  C_21 
REMARK    4  A    between atoms: C_20  and  C_24 
REMARK    5  A    between atoms: C_24  and  O_25 
ROOT
HETATM    1  C   UNK N   1      -5.211   0.160   0.503  0.00  0.00     0.013 A 
HETATM    2  C   UNK N   1      -6.378  -0.650   0.564  0.00  0.00     0.003 A 
HETATM    3  C   UNK N   1      -6.294  -2.055   0.385  0.00  0.00     0.030 A 
HETATM    4  C   UNK N   1      -5.033  -2.595   0.131  0.00  0.00     0.045 A 
HETATM    5  C   UNK N   1      -3.939  -1.804   0.076  0.00  0.00     0.009 A 
HETATM    6  C   UNK N   1      -3.959  -0.444   0.269  0.00  0.00    -0.015 A 
HETATM    7  C   UNK N   1      -2.656   0.254   0.197  0.00  0.00    -0.017 C 
HETATM    8  C   UNK N   1      -2.865  -2.571  -0.241  0.00  0.00    -0.027 A 
HETATM    9  C   UNK N   1      -1.514  -1.970  -0.510  0.00  0.00     0.081 C 
HETATM   10  C   UNK N   1      -1.363  -0.609   0.245  0.00  0.00     0.260 C 
HETATM   11  C   UNK N   1      -1.259   2.256   0.026  0.00  0.00     0.129 C 
HETATM   12  C   UNK N   1      -2.596   1.589   0.082  0.00  0.00    -0.001 C 
HETATM   13  N   UNK N   1      -0.119   0.151  -0.081  0.00  0.00     0.094 N 
HETATM   14  C   UNK N   1      -0.349   1.386  -0.827  0.00  0.00     0.290 C 
HETATM   15  C   UNK N   1      -3.337  -3.877  -0.367  0.00  0.00     0.099 A 
HETATM   16  N   UNK N   1      -4.675  -3.871  -0.120  0.00  0.00    -0.360 N 
HETATM   17  C   UNK N   1       0.911  -0.628  -0.759  0.00  0.00     0.310 C 
HETATM   18  C   UNK N   1      -5.553  -5.028  -0.163  0.00  0.00     0.155 C 
ENDROOT
BRANCH  11  19
HETATM   19  C   UNK N   1      -1.290   3.712  -0.381  0.00  0.00     0.227 C 
HETATM   20  N   UNK N   1      -0.153   4.458  -0.404  0.00  0.00    -0.354 N 
HETATM   21  H   UNK N   1      -0.224   5.412  -0.640  0.00  0.00     0.163 HD
HETATM   22  O   UNK N   1      -2.353   4.242  -0.666  0.00  0.00    -0.273 OA
BRANCH  20  23
HETATM   23  C   UNK N   1       1.156   3.922  -0.099  0.00  0.00     0.107 C 
BRANCH  23  24
HETATM   24  C   UNK N   1       2.213   4.980  -0.375  0.00  0.00     0.023 C 
HETATM   25  C   UNK N   1       3.596   4.359  -0.449  0.00  0.00     0.007 C 
ENDBRANCH  23  24
BRANCH  23  26
HETATM   26  C   UNK N   1       1.227   3.443   1.349  0.00  0.00     0.189 C 
BRANCH  26  27
HETATM   27  O   UNK N   1       2.166   2.417   1.461  0.00  0.00    -0.399 OA
HETATM   28  H   UNK N   1       1.875   1.495   1.539  0.00  0.00     0.209 HD
ENDBRANCH  26  27
ENDBRANCH  23  26
ENDBRANCH  20  23
ENDBRANCH  11  19
TORSDOF 5
