REMARK  5 active torsions:
REMARK  status: ('A' for Active; 'I' for Inactive)
REMARK    1  A    between atoms: C_2  and  C_1 
REMARK    2  A    between atoms: O_4  and  C_1 
REMARK    3  A    between atoms: C_3  and  C_2 
REMARK    4  A    between atoms: C_2  and  N_6 
REMARK    5  A    between atoms: S_7  and  C_3 
ROOT
HETATM    1  C   UNK N   1       0.038  -0.377   0.000  0.00  0.00     0.182 C 
ENDROOT
BRANCH   1   2
HETATM    2  C   UNK N   1       1.016   0.771  -0.000  0.00  0.00     0.163 C 
HETATM    3  O   UNK N   1       0.629   1.928  -0.000  0.00  0.00    -0.648 OA
BRANCH   2   4
HETATM    4  O   UNK N   1       2.339   0.517  -0.000  0.00  0.00    -0.775 OA
HETATM    5  H   UNK N   1       2.647  -0.368   0.000  0.00  0.00     0.167 HD
ENDBRANCH   2   4
ENDBRANCH   1   2
BRANCH   1   6
HETATM    6  C   UNK N   1      -1.495  -0.343  -0.000  0.00  0.00     0.106 C 
BRANCH   6   7
HETATM    7  S   UNK N   1      -2.255   1.310   0.000  0.00  0.00    -0.180 SA
HETATM    8  H   UNK N   1      -1.469   2.420   0.000  0.00  0.00     0.101 HD
ENDBRANCH   6   7
ENDBRANCH   1   6
BRANCH   1   9
HETATM    9  N   UNK N   1       0.622  -1.706  -0.000  0.00  0.00    -0.417 N 
HETATM   10  H   UNK N   1       0.018  -2.529  -0.000  0.00  0.00     0.150 HD
HETATM   11  H   UNK N   1       1.636  -1.818  -0.000  0.00  0.00     0.150 HD
ENDBRANCH   1   9
TORSDOF 5
