REMARK  2 active torsions:
REMARK  status: ('A' for Active; 'I' for Inactive)
REMARK    1  A    between atoms: C_5  and  C_3 
REMARK    2  A    between atoms: C_5  and  C_4 
ROOT
HETATM    1  C   UNK N   1       0.493  -1.027   0.006  0.00  0.00     0.066 C 
HETATM    2  C   UNK N   1       0.703  -2.535   0.074  0.00  0.00     0.021 C 
ENDROOT
BRANCH   1   3
HETATM    3  C   UNK N   1      -0.901  -0.391  -0.004  0.00  0.00    -0.042 A 
HETATM    4  C   UNK N   1      -2.117  -1.135  -0.053  0.00  0.00    -0.049 A 
HETATM    5  C   UNK N   1      -3.354  -0.449  -0.058  0.00  0.00    -0.056 A 
HETATM    6  C   UNK N   1      -2.128  -2.631  -0.106  0.00  0.00     0.049 C 
HETATM    7  C   UNK N   1      -3.387   0.944  -0.014  0.00  0.00     0.007 A 
HETATM    8  C   UNK N   1      -4.651  -1.184  -0.115  0.00  0.00     0.049 C 
HETATM    9  C   UNK N   1      -2.206   1.672   0.034  0.00  0.00     0.001 A 
HETATM   10  C   UNK N   1      -0.984   1.009   0.036  0.00  0.00     0.008 A 
ENDBRANCH   1   3
BRANCH   1  11
HETATM   11  C   UNK N   1       1.747  -0.176   0.016  0.00  0.00     0.033 A 
HETATM   12  N   UNK N   1       1.763   1.166   0.002  0.00  0.00    -0.354 N 
HETATM   13  C   UNK N   1       3.066   1.508   0.019  0.00  0.00     0.180 A 
ATOM     14  HN  UNK N   1       0.960   1.794  -0.017  1.00  0.00     0.166 HD
HETATM   15  N   UNK N   1       3.864   0.422   0.042  0.00  0.00    -0.360 N 
HETATM   16  C   UNK N   1       3.041  -0.645   0.039  0.00  0.00     0.114 A 
HETATM   17  H   UNK N   1       4.849   0.410   0.057  0.00  0.00     0.166 HD
ENDBRANCH   1  11
TORSDOF 2
