REMARK  6 active torsions:
REMARK  status: ('A' for Active; 'I' for Inactive)
REMARK    1  A    between atoms: N_1  and  C_2 
REMARK    2  A    between atoms: N_1  and  C_7 
REMARK    3  A    between atoms: C_2  and  C_3 
REMARK    4  A    between atoms: C_6  and  C_20 
REMARK    5  A    between atoms: C_7  and  C_17 
REMARK    6  A    between atoms: C_21  and  C_22 
ROOT
HETATM    1  N   UNK N   1       4.398  -0.170  -0.202  0.00  0.00     0.091 N 
HETATM    2  C   UNK N   1       3.102   0.448  -0.421  0.00  0.00     0.310 C 
ENDROOT
BRANCH   1   3
HETATM    3  C   UNK N   1       5.501   0.563  -0.817  0.00  0.00     0.311 C 
BRANCH   3   4
HETATM    4  C   UNK N   1       5.754   1.945  -0.275  0.00  0.00    -0.019 A 
HETATM    5  C   UNK N   1       7.073   2.414  -0.134  0.00  0.00    -0.018 A 
HETATM    6  C   UNK N   1       7.294   3.787   0.127  0.00  0.00    -0.025 A 
HETATM    7  C   UNK N   1       8.174   1.558  -0.298  0.00  0.00     0.013 A 
HETATM    8  C   UNK N   1       6.212   4.649   0.321  0.00  0.00     0.012 A 
HETATM    9  C   UNK N   1       8.597   4.289   0.158  0.00  0.00     0.012 A 
HETATM   10  C   UNK N   1       4.909   4.159   0.258  0.00  0.00     0.002 A 
HETATM   11  C   UNK N   1       4.684   2.826  -0.074  0.00  0.00     0.010 A 
HETATM   12  C   UNK N   1       9.684   3.429  -0.020  0.00  0.00     0.001 A 
HETATM   13  C   UNK N   1       9.474   2.062  -0.219  0.00  0.00     0.001 A 
ENDBRANCH   3   4
ENDBRANCH   1   3
BRANCH   1  14
HETATM   14  C   UNK N   1       4.649  -0.465   1.201  0.00  0.00     0.300 C 
BRANCH  14  15
HETATM   15  C   UNK N   1       5.633  -1.598   1.230  0.00  0.00     0.012 C 
HETATM   16  C   UNK N   1       5.364  -2.769   0.633  0.00  0.00     0.062 C 
BRANCH  16  17
HETATM   17  C   UNK N   1       4.045  -3.041   0.121  0.00  0.00    -0.078 C 
HETATM   18  C   UNK N   1       2.908  -3.145  -0.253  0.00  0.00    -0.093 C 
BRANCH  18  19
HETATM   19  C   UNK N   1       1.516  -3.190  -0.672  0.00  0.00     0.013 C 
HETATM   20  C   UNK N   1       1.105  -1.893  -1.335  0.00  0.00     0.028 C 
HETATM   21  C   UNK N   1       1.243  -4.406  -1.525  0.00  0.00     0.028 C 
HETATM   22  C   UNK N   1       0.709  -3.214   0.614  0.00  0.00     0.028 C 
ENDBRANCH  18  19
ENDBRANCH  16  17
ENDBRANCH  14  15
ENDBRANCH   1  14
TORSDOF 6
