REMARK  5 active torsions:
REMARK  status: ('A' for Active; 'I' for Inactive)
REMARK    1  A    between atoms: C_4  and  C_3 
REMARK    2  A    between atoms: C_5  and  C_3 
REMARK    3  A    between atoms: C_3  and  N_6 
REMARK    4  A    between atoms: O_8  and  C_4 
REMARK    5  A    between atoms: S_9  and  C_5 
ROOT
HETATM    1  C   UNK N   1       0.687   0.951  -0.081  0.00  0.00     0.191 C 
ENDROOT
BRANCH   1   2
HETATM    2  C   UNK N   1       2.068   1.520   0.170  0.00  0.00     0.164 C 
HETATM    3  O   UNK N   1       2.232   2.728   0.153  0.00  0.00    -0.648 OA
BRANCH   2   4
HETATM    4  O   UNK N   1       3.127   0.714   0.393  0.00  0.00    -0.775 OA
HETATM    5  H   UNK N   1       3.010  -0.203   0.547  0.00  0.00     0.167 HD
ENDBRANCH   2   4
ENDBRANCH   1   2
BRANCH   1   6
HETATM    6  C   UNK N   1       0.598  -0.598  -0.087  0.00  0.00     0.028 C 
HETATM    7  C   UNK N   1       0.900  -1.184   1.285  0.00  0.00     0.029 C 
HETATM    8  C   UNK N   1       1.558  -1.205  -1.098  0.00  0.00     0.029 C 
BRANCH   6   9
HETATM    9  S   UNK N   1      -1.083  -1.110  -0.568  0.00  0.00    -0.170 SA
HETATM   10  H   UNK N   1      -2.041  -0.214  -0.927  0.00  0.00     0.102 HD
ENDBRANCH   6   9
ENDBRANCH   1   6
BRANCH   1  11
HETATM   11  N   UNK N   1      -0.229   1.495   0.914  0.00  0.00    -0.416 N 
HETATM   12  H   UNK N   1      -0.219   2.241   1.610  0.00  0.00     0.150 HD
HETATM   13  H   UNK N   1      -1.118   0.996   0.914  0.00  0.00     0.150 HD
ENDBRANCH   1  11
TORSDOF 5
