REMARK  1 active torsions:
REMARK  status: ('A' for Active; 'I' for Inactive)
REMARK    1  A    between atoms: C_3  and  O_21 
ROOT
HETATM    1  C   UNK N   1       2.746  -0.615  -1.427  0.00  0.00     0.008 C 
HETATM    2  C   UNK N   1       0.397  -2.215  -0.380  0.00  0.00     0.006 C 
HETATM    3  C   UNK N   1       2.802   1.379  -0.058  0.00  0.00     0.126 C 
HETATM    4  C   UNK N   1       0.433   2.106  -0.129  0.00  0.00     0.012 C 
HETATM    5  C   UNK N   1       3.690   0.316  -0.671  0.00  0.00     0.033 C 
HETATM    6  C   UNK N   1      -1.793  -0.654   0.933  0.00  0.00    -0.035 C 
HETATM    7  C   UNK N   1      -0.938   1.454  -0.323  0.00  0.00     0.007 C 
HETATM    8  C   UNK N   1      -0.411  -2.814   0.775  0.00  0.00     0.006 C 
HETATM    9  C   UNK N   1      -1.824  -2.218   0.857  0.00  0.00     0.001 C 
HETATM   10  C   UNK N   1      -3.243  -0.097   0.945  0.00  0.00     0.021 C 
HETATM   11  C   UNK N   1      -2.655  -2.709  -0.338  0.00  0.00     0.084 C 
HETATM   12  C   UNK N   1      -4.177  -0.642  -0.147  0.00  0.00     0.052 C 
HETATM   13  C   UNK N   1       0.502  -0.698  -0.203  0.00  0.00    -0.005 C 
HETATM   14  C   UNK N   1      -0.932  -0.091  -0.242  0.00  0.00    -0.002 C 
HETATM   15  C   UNK N   1       1.566   1.457  -0.947  0.00  0.00    -0.014 C 
HETATM   16  C   UNK N   1       1.848   2.261  -2.216  0.00  0.00     0.018 C 
HETATM   17  C   UNK N   1       1.337  -0.024  -1.308  0.00  0.00     0.001 C 
HETATM   18  O   UNK N   1      -4.998  -2.854  -0.094  0.00  0.00    -0.298 OA
HETATM   19  C   UNK N   1      -4.027  -2.127  -0.223  0.00  0.00     0.131 C 
HETATM   20  C   UNK N   1      -1.175  -0.228   2.263  0.00  0.00     0.016 C 
HETATM   21  C   UNK N   1      -3.918   0.011  -1.493  0.00  0.00     0.018 C 
ENDROOT
BRANCH   3  22
HETATM   22  O   UNK N   1       3.465   2.603   0.064  0.00  0.00    -0.395 OA
HETATM   23  H   UNK N   1       4.431   2.630   0.149  0.00  0.00     0.210 HD
ENDBRANCH   3  22
TORSDOF 1
