REMARK  1 active torsions:
REMARK  status: ('A' for Active; 'I' for Inactive)
REMARK    1  A    between atoms: C_2  and  C_3 
ROOT
HETATM    1  C   UNK N   1       9.058  -8.284  -0.000  0.00  0.00    -0.020 A 
HETATM    2  N   UNK N   1       7.634  -6.361   0.000  0.00  0.00    -0.375 N 
ATOM      3  HN  UNK N   1       7.525  -5.346   0.000  1.00  0.00     0.164 HD
HETATM    4  C   UNK N   1       8.885  -6.896   0.000  0.00  0.00     0.096 A 
HETATM    5  C   UNK N   1       7.927  -9.105  -0.000  0.00  0.00     0.012 A 
HETATM    6  C   UNK N   1       6.527  -7.149   0.000  0.00  0.00     0.087 A 
HETATM    7  C   UNK N   1       6.654  -8.539   0.000  0.00  0.00     0.018 A 
ENDROOT
BRANCH   1   8
HETATM    8  C   UNK N   1      10.422  -8.909  -0.000  0.00  0.00     0.113 A 
HETATM    9  N   UNK N   1      11.665  -8.172   0.000  0.00  0.00    -0.408 N 
HETATM   10  C   UNK N   1      12.796  -9.074  -0.000  0.00  0.00     0.117 A 
HETATM   11  C   UNK N   1      11.833  -6.727  -0.000  0.00  0.00     0.143 C 
HETATM   12  C   UNK N   1      12.217 -10.493  -0.000  0.00  0.00     0.022 A 
HETATM   13  C   UNK N   1      10.692 -10.391   0.000  0.00  0.00     0.031 A 
ENDBRANCH   1   8
TORSDOF 1
