REMARK  0 active torsions:
REMARK  status: ('A' for Active; 'I' for Inactive)
ROOT
HETATM    1  C   UNK N   1       5.268  -1.013  -0.000  0.00  0.00     0.684 A 
HETATM    2  N   UNK N   1       5.282   0.382  -0.000  0.00  0.00    -0.204 N 
HETATM    3  C   UNK N   1       2.842   0.368   0.000  0.00  0.00     0.011 A 
HETATM    4  N   UNK N   1       4.184  -1.706  -0.000  0.00  0.00    -0.191 N 
ATOM      5  HN  UNK N   1       4.229  -2.725  -0.000  1.00  0.00     0.184 HD
HETATM    6  C   UNK N   1       2.921  -1.049   0.000  0.00  0.00     0.059 A 
HETATM    7  C   UNK N   1       4.099   1.206   0.000  0.00  0.00     0.184 A 
HETATM    8  C   UNK N   1       1.587   0.999   0.000  0.00  0.00     0.066 A 
HETATM    9  C   UNK N   1       0.416   0.222   0.000  0.00  0.00     0.056 A 
HETATM   10  C   UNK N   1       1.748  -1.807   0.000  0.00  0.00     0.032 A 
HETATM   11  C   UNK N   1       0.502  -1.174   0.000  0.00  0.00     0.028 A 
HETATM   12 Cl   UNK N   1       1.485   2.761   0.000  0.00  0.00    -0.082 Cl
HETATM   13 Cl   UNK N   1      -1.170   0.977   0.000  0.00  0.00    -0.083 Cl
HETATM   14  C   UNK N   1       6.643   0.865  -0.000  0.00  0.00     0.245 A 
HETATM   15  N   UNK N   1       6.555  -1.538  -0.000  0.00  0.00    -0.158 N 
HETATM   16  C   UNK N   1       7.380  -0.468  -0.000  0.00  0.00     0.254 A 
HETATM   17  O   UNK N   1       8.595  -0.574  -0.000  0.00  0.00    -0.271 OA
HETATM   18  H   UNK N   1       6.812  -2.488  -0.000  0.00  0.00     0.187 HD
ENDROOT
TORSDOF 0
