REMARK  2 active torsions:
REMARK  status: ('A' for Active; 'I' for Inactive)
REMARK    1  A    between atoms: Fe_7  and  N_12 
REMARK    2  A    between atoms: N_12  and  O_14 
ROOT
HETATM    1  N   UNK N   1       0.030  -3.274   0.000  0.00  0.00    -0.180 NA
HETATM    2  C   UNK N   1       1.850   0.863   0.000  0.00  0.00     0.180 C 
HETATM    3  C   UNK N   1       0.019  -2.107   0.000  0.00  0.00     0.180 C 
HETATM    4  C   UNK N   1      -1.944   0.761   0.000  0.00  0.00     0.180 C 
HETATM    5  N   UNK N   1       2.875   1.413   0.000  0.00  0.00    -0.180 NA
HETATM    6  N   UNK N   1      -2.985   1.285   0.000  0.00  0.00    -0.180 NA
HETATM    7 Fe   UNK N   1      -0.030  -0.016   0.000  0.00  0.00     0.000 Fe
HETATM    8  C   UNK N   1       1.749  -1.125   0.000  0.00  0.00     0.180 C 
HETATM    9  N   UNK N   1       2.742  -1.740   0.000  0.00  0.00    -0.180 NA
HETATM   10  C   UNK N   1      -1.782  -1.165   0.000  0.00  0.00     0.180 C 
HETATM   11  N   UNK N   1      -2.746  -1.823   0.000  0.00  0.00    -0.180 NA
ENDROOT
BRANCH   7  12
HETATM   12  N   UNK N   1      -0.268   2.022   0.000  0.00  0.00    -0.191 N 
ATOM     13  HN  UNK N   1      -1.243   2.321   0.000  1.00  0.00     0.217 HD
BRANCH  12  14
HETATM   14  O   UNK N   1       0.515   2.930   0.000  0.00  0.00    -0.273 OA
ATOM     15  HO  UNK N   1       0.404   3.874   0.000  1.00  0.00     0.246 HD
ENDBRANCH  12  14
ENDBRANCH   7  12
TORSDOF 2
