REMARK  9 active torsions:
REMARK  status: ('A' for Active; 'I' for Inactive)
REMARK    1  A    between atoms: C_1  and  N_11 
REMARK    2  A    between atoms: N_3  and  S_5 
REMARK       I    between atoms: N_11  and  C_12 
REMARK    3  A    between atoms: C_12  and  C_14 
REMARK    4  A    between atoms: C_14  and  C_19 
REMARK    5  A    between atoms: N_15  and  O_23 
REMARK    6  A    between atoms: C_22  and  N_30 
REMARK    7  A    between atoms: O_23  and  C_24 
REMARK    8  A    between atoms: C_24  and  C_25 
REMARK    9  A    between atoms: C_25  and  O_27 
ROOT
HETATM    1  C   UNK N   1      -3.698   2.172  -0.109  0.00  0.00     0.149 C 
HETATM    2  N   UNK N   1      -3.694   3.454  -0.302  0.00  0.00    -0.258 N 
ATOM      3  HN  UNK N   1      -4.572   3.918  -0.533  1.00  0.00     0.194 HD
ENDROOT
BRANCH   1   4
HETATM    4  C   UNK N   1      -2.439   1.428   0.260  0.00  0.00     0.273 C 
HETATM    5  N   UNK N   1      -1.230   2.046   0.214  0.00  0.00    -0.340 N 
HETATM    6  H   UNK N   1      -1.177   2.903  -0.269  0.00  0.00     0.163 HD
HETATM    7  O   UNK N   1      -2.520   0.282   0.677  0.00  0.00    -0.266 OA
BRANCH   5   8
HETATM    8  C   UNK N   1      -0.008   1.545   0.818  0.00  0.00     0.202 A 
HETATM    9  C   UNK N   1       1.277   1.843  -0.122  0.00  0.00     0.135 A 
HETATM   10  N   UNK N   1       1.457   0.411  -0.219  0.00  0.00    -0.218 N 
HETATM   11  C   UNK N   1       2.372   2.517   0.691  0.00  0.00     0.036 C 
HETATM   12  C   UNK N   1       0.373   0.147   0.467  0.00  0.00     0.260 A 
HETATM   13  O   UNK N   1      -0.118  -0.940   0.732  0.00  0.00    -0.270 OA
BRANCH  10  14
HETATM   14  S   UNK N   1       2.675  -0.552  -1.135  0.00  0.00     0.214 S 
HETATM   15  O   UNK N   1       3.842  -1.547  -0.362  0.00  0.00    -0.578 OA
HETATM   16  O   UNK N   1       3.476   0.126  -0.017  0.00  0.00    -0.578 OA
HETATM   17  O   UNK N   1       1.960  -1.728  -0.457  0.00  0.00    -0.578 OA
ENDBRANCH  10  14
ENDBRANCH   5   8
ENDBRANCH   1   4
BRANCH   1  18
HETATM   18  C   UNK N   1      -5.016   1.482  -0.128  0.00  0.00     0.075 A 
HETATM   19  C   UNK N   1      -5.175   0.083   0.011  0.00  0.00     0.085 A 
HETATM   20  S   UNK N   1      -6.813  -0.171  -0.012  0.00  0.00    -0.064 SA
HETATM   21  C   UNK N   1      -7.280   1.393  -0.185  0.00  0.00     0.142 A 
HETATM   22  N   UNK N   1      -6.195   2.197  -0.238  0.00  0.00    -0.335 N 
ATOM     23  HN  UNK N   1      -6.239   3.210  -0.346  1.00  0.00     0.168 HD
BRANCH  21  24
HETATM   24  N   UNK N   1      -8.609   1.855  -0.234  0.00  0.00    -0.380 N 
HETATM   25  H   UNK N   1      -8.795   2.821  -0.268  0.00  0.00     0.158 HD
HETATM   26  H   UNK N   1      -9.354   1.211  -0.234  0.00  0.00     0.158 HD
ENDBRANCH  21  24
ENDBRANCH   1  18
BRANCH   2  27
HETATM   27  O   UNK N   1      -2.597   4.181  -0.211  0.00  0.00    -0.258 OA
BRANCH  27  28
HETATM   28  C   UNK N   1      -2.640   5.559  -0.114  0.00  0.00     0.166 C 
HETATM   29  C   UNK N   1      -3.283   6.149  -1.360  0.00  0.00     0.060 C 
HETATM   30  C   UNK N   1      -3.453   5.961   1.109  0.00  0.00     0.060 C 
BRANCH  28  31
HETATM   31  C   UNK N   1      -1.240   6.095   0.032  0.00  0.00     0.178 C 
HETATM   32  O   UNK N   1      -1.049   7.296   0.149  0.00  0.00    -0.648 OA
BRANCH  31  33
HETATM   33  O   UNK N   1      -0.187   5.253   0.045  0.00  0.00    -0.774 OA
HETATM   34  H   UNK N   1      -0.327   4.326   0.054  0.00  0.00     0.167 HD
ENDBRANCH  31  33
ENDBRANCH  28  31
ENDBRANCH  27  28
ENDBRANCH   2  27
TORSDOF 9
