REMARK  16 active torsions:
REMARK  status: ('A' for Active; 'I' for Inactive)
REMARK    1  A    between atoms: C_3  and  O_15 
REMARK    2  A    between atoms: C_11  and  O_18 
REMARK    3  A    between atoms: C_12  and  O_17 
REMARK    4  A    between atoms: C_21  and  O_31 
REMARK    5  A    between atoms: C_23  and  C_25 
REMARK    6  A    between atoms: C_23  and  O_30 
REMARK    7  A    between atoms: C_25  and  C_26 
REMARK    8  A    between atoms: C_26  and  O_28 
REMARK    9  A    between atoms: O_28  and  C_29 
REMARK   10  A    between atoms: C_29  and  C_33 
REMARK   11  A    between atoms: C_37  and  O_31 
REMARK   12  A    between atoms: C_33  and  C_34 
REMARK   13  A    between atoms: C_34  and  C_35 
REMARK   14  A    between atoms: C_39  and  N_45 
REMARK   15  A    between atoms: C_40  and  O_44 
REMARK       I    between atoms: N_45  and  C_46 
REMARK   16  A    between atoms: C_46  and  C_47 
ROOT
HETATM    1  C   UNK N   1      -8.854   2.642   0.374  0.00  0.00     0.004 A 
HETATM    2  C   UNK N   1      -8.767   1.260   0.243  0.00  0.00     0.038 A 
HETATM    3  C   UNK N   1      -7.531   0.611   0.207  0.00  0.00     0.083 A 
HETATM    4  C   UNK N   1      -7.698   3.403   0.475  0.00  0.00     0.017 A 
HETATM    5  C   UNK N   1      -6.439   2.796   0.454  0.00  0.00     0.032 A 
HETATM    6  C   UNK N   1      -6.330   1.387   0.331  0.00  0.00     0.062 A 
HETATM    7  C   UNK N   1      -4.964   0.796   0.348  0.00  0.00     0.200 C 
HETATM    8  C   UNK N   1      -5.229   3.648   0.538  0.00  0.00     0.197 C 
HETATM    9  C   UNK N   1      -3.888   3.060   0.281  0.00  0.00     0.066 A 
HETATM   10  C   UNK N   1      -3.770   1.659   0.153  0.00  0.00     0.066 A 
HETATM   11  C   UNK N   1      -2.533   1.092  -0.202  0.00  0.00     0.090 A 
HETATM   12  C   UNK N   1      -2.745   3.872   0.117  0.00  0.00     0.088 A 
HETATM   13  O   UNK N   1      -5.353   4.852   0.723  0.00  0.00    -0.286 OA
HETATM   14  O   UNK N   1      -4.808  -0.399   0.550  0.00  0.00    -0.286 OA
HETATM   15  C   UNK N   1      -1.515   3.299  -0.226  0.00  0.00    -0.009 A 
HETATM   16  C   UNK N   1      -1.410   1.904  -0.415  0.00  0.00     0.014 A 
HETATM   17  C   UNK N   1      -0.116   1.297  -0.928  0.00  0.00     0.164 C 
HETATM   18  C   UNK N   1       1.076   2.258  -1.011  0.00  0.00     0.083 C 
HETATM   19  C   UNK N   1       0.966   3.466  -0.078  0.00  0.00     0.127 C 
HETATM   20  C   UNK N   1      -0.321   4.191  -0.448  0.00  0.00     0.088 C 
ENDROOT
BRANCH  17  21
HETATM   21  O   UNK N   1       0.151   0.008  -0.415  0.00  0.00    -0.351 OA
BRANCH  21  22
HETATM   22  C   UNK N   1       1.125  -0.087   0.607  0.00  0.00     0.263 C 
HETATM   23  C   UNK N   1       1.072  -1.527   1.123  0.00  0.00     0.088 C 
HETATM   24  C   UNK N   1       1.332  -2.409  -0.103  0.00  0.00     0.120 C 
HETATM   25  C   UNK N   1       2.689  -2.107  -0.730  0.00  0.00     0.169 C 
HETATM   26  C   UNK N   1       2.696  -0.603  -1.033  0.00  0.00     0.151 C 
HETATM   27  O   UNK N   1       2.443   0.165   0.131  0.00  0.00    -0.354 OA
HETATM   28  C   UNK N   1       3.998  -0.166  -1.675  0.00  0.00     0.042 C 
BRANCH  24  29
HETATM   29  N   UNK N   1       1.092  -3.813   0.111  0.00  0.00    -0.346 N 
HETATM   30  C   UNK N   1      -0.156  -4.351   0.042  0.00  0.00     0.325 C 
HETATM   31  O   UNK N   1      -0.285  -5.560   0.148  0.00  0.00    -0.263 OA
HETATM   32  H   UNK N   1       1.855  -4.402   0.313  0.00  0.00     0.163 HD
BRANCH  30  33
HETATM   33  C   UNK N   1      -1.386  -3.491  -0.165  0.00  0.00     0.472 C 
HETATM   34  F   UNK N   1      -1.272  -2.763  -1.336  0.00  0.00    -0.162 F 
HETATM   35  F   UNK N   1      -2.522  -4.277  -0.244  0.00  0.00    -0.162 F 
HETATM   36  F   UNK N   1      -1.536  -2.626   0.903  0.00  0.00    -0.162 F 
ENDBRANCH  30  33
ENDBRANCH  24  29
BRANCH  25  37
HETATM   37  O   UNK N   1       3.720  -2.437   0.154  0.00  0.00    -0.391 OA
HETATM   38  H   UNK N   1       3.879  -3.171   0.768  0.00  0.00     0.210 HD
ENDBRANCH  25  37
ENDBRANCH  21  22
ENDBRANCH  17  21
BRANCH  11  39
HETATM   39  O   UNK N   1      -2.435  -0.240  -0.385  0.00  0.00    -0.359 OA
HETATM   40  H   UNK N   1      -3.203  -0.762  -0.512  0.00  0.00     0.217 HD
ENDBRANCH  11  39
BRANCH  19  41
HETATM   41  C   UNK N   1       2.162   4.374  -0.229  0.00  0.00     0.185 C 
HETATM   42  O   UNK N   1       2.189   5.447   0.354  0.00  0.00    -0.292 OA
BRANCH  41  43
HETATM   43  C   UNK N   1       3.376   3.926  -0.988  0.00  0.00     0.260 C 
BRANCH  43  44
HETATM   44  O   UNK N   1       3.831   2.753  -0.419  0.00  0.00    -0.314 OA
BRANCH  44  45
HETATM   45  C   UNK N   1       4.554   2.716   0.727  0.00  0.00     0.259 C 
HETATM   46  O   UNK N   1       4.743   1.647   1.286  0.00  0.00    -0.265 OA
BRANCH  45  47
HETATM   47  C   UNK N   1       5.178   3.959   1.283  0.00  0.00     0.111 C 
BRANCH  47  48
HETATM   48  C   UNK N   1       6.640   4.024   0.873  0.00  0.00     0.009 C 
BRANCH  48  49
HETATM   49  C   UNK N   1       6.762   4.266  -0.624  0.00  0.00    -0.004 C 
HETATM   50  C   UNK N   1       7.508   3.116  -1.269  0.00  0.00     0.005 C 
ENDBRANCH  48  49
ENDBRANCH  47  48
ENDBRANCH  45  47
ENDBRANCH  44  45
ENDBRANCH  43  44
ENDBRANCH  41  43
ENDBRANCH  19  41
BRANCH  19  51
HETATM   51  O   UNK N   1       0.902   3.046   1.255  0.00  0.00    -0.382 OA
HETATM   52  H   UNK N   1       0.628   2.939   2.179  0.00  0.00     0.211 HD
ENDBRANCH  19  51
BRANCH  12  53
HETATM   53  O   UNK N   1      -2.831   5.211   0.249  0.00  0.00    -0.359 OA
HETATM   54  H   UNK N   1      -2.055   5.728   0.340  0.00  0.00     0.217 HD
ENDBRANCH  12  53
BRANCH   3  55
HETATM   55  O   UNK N   1      -7.565  -0.737   0.026  0.00  0.00    -0.355 OA
HETATM   56  C   UNK N   1      -6.740  -1.441  -0.820  0.00  0.00     0.210 C 
ENDBRANCH   3  55
TORSDOF 16
