REMARK  10 active torsions:
REMARK  status: ('A' for Active; 'I' for Inactive)
REMARK    1  A    between atoms: C_1  and  C_12 
REMARK    2  A    between atoms: C_3  and  C_2 
REMARK    3  A    between atoms: C_6  and  O_10 
REMARK    4  A    between atoms: C_7  and  O_9 
REMARK    5  A    between atoms: C_15  and  O_53 
REMARK    6  A    between atoms: C_18  and  C_55 
REMARK    7  A    between atoms: C_26  and  O_34 
REMARK    8  A    between atoms: C_28  and  O_33 
REMARK    9  A    between atoms: C_31  and  O_37 
REMARK   10  A    between atoms: C_55  and  C_56 
ROOT
HETATM    1  C   UNK N   1      12.830  -6.991  -0.664  0.00  0.00     0.166 C 
HETATM    2  C   UNK N   1      14.115  -6.411  -1.332  0.00  0.00     0.044 C 
HETATM    3  C   UNK N   1      15.454  -6.699  -0.659  0.00  0.00     0.131 C 
HETATM    4  C   UNK N   1      15.769  -8.165  -0.947  0.00  0.00     0.111 C 
HETATM    5  C   UNK N   1      16.597  -8.924   0.034  0.00  0.00     0.137 C 
HETATM    6  C   UNK N   1      16.763 -10.397  -0.195  0.00  0.00     0.081 C 
HETATM    7  C   UNK N   1      15.972 -11.162   0.820  0.00  0.00    -0.012 C 
HETATM    8  C   UNK N   1      15.025 -12.043   0.465  0.00  0.00    -0.086 C 
HETATM    9  C   UNK N   1      14.217 -12.670   1.552  0.00  0.00     0.043 C 
HETATM   10  C   UNK N   1      14.811 -12.406  -0.994  0.00  0.00     0.037 C 
HETATM   11  C   UNK N   1      13.419 -12.925  -1.350  0.00  0.00    -0.012 C 
HETATM   12  C   UNK N   1      12.916 -12.149  -2.554  0.00  0.00     0.010 C 
HETATM   13  C   UNK N   1      13.372 -14.420  -1.677  0.00  0.00     0.039 C 
HETATM   14  C   UNK N   1      13.334 -15.374  -0.471  0.00  0.00     0.152 C 
HETATM   15  C   UNK N   1      12.019 -15.591   0.316  0.00  0.00     0.183 C 
HETATM   16  C   UNK N   1      11.211 -16.888   0.156  0.00  0.00     0.153 C 
HETATM   17  C   UNK N   1       9.943 -16.662  -0.652  0.00  0.00     0.044 C 
HETATM   18  C   UNK N   1       9.198 -15.435  -0.135  0.00  0.00     0.055 C 
HETATM   19  C   UNK N   1      10.174 -14.233  -0.167  0.00  0.00     0.238 C 
HETATM   20  O   UNK N   1      11.272 -14.459   0.713  0.00  0.00    -0.338 OA
HETATM   21  C   UNK N   1       9.553 -12.910   0.214  0.00  0.00     0.278 C 
HETATM   22  C   UNK N   1      10.416 -11.696   0.126  0.00  0.00     0.296 C 
HETATM   23  N   UNK N   1       9.931 -10.448  -0.123  0.00  0.00    -0.331 N 
HETATM   24  C   UNK N   1       8.498 -10.278  -0.326  0.00  0.00     0.127 C 
HETATM   25  C   UNK N   1      10.811  -9.300  -0.445  0.00  0.00     0.187 C 
HETATM   26  C   UNK N   1       9.982  -8.027  -0.471  0.00  0.00     0.035 C 
HETATM   27  C   UNK N   1       9.020  -8.042   0.717  0.00  0.00     0.004 C 
HETATM   28  C   UNK N   1       7.969  -9.136   0.532  0.00  0.00     0.020 C 
HETATM   29  O   UNK N   1      11.618 -11.860   0.214  0.00  0.00    -0.264 OA
HETATM   30  O   UNK N   1       8.361 -12.828   0.486  0.00  0.00    -0.281 OA
HETATM   31  C   UNK N   1       7.990 -15.223  -1.040  0.00  0.00     0.016 C 
HETATM   32  C   UNK N   1      12.096  -9.091   0.370  0.00  0.00     0.282 C 
HETATM   33  O   UNK N   1      12.311  -9.756   1.370  0.00  0.00    -0.263 OA
HETATM   34  O   UNK N   1      13.058  -8.207  -0.033  0.00  0.00    -0.309 OA
HETATM   35  C   UNK N   1      13.986  -4.944  -1.718  0.00  0.00     0.015 C 
HETATM   36  O   UNK N   1      17.047  -8.393   1.040  0.00  0.00    -0.297 OA
ENDROOT
BRANCH   1  37
HETATM   37  C   UNK N   1      12.190  -6.037   0.313  0.00  0.00    -0.058 C 
HETATM   38  C   UNK N   1      11.080  -5.391  -0.064  0.00  0.00    -0.017 C 
HETATM   39  C   UNK N   1      12.749  -5.874   1.695  0.00  0.00     0.046 C 
BRANCH  38  40
HETATM   40  C   UNK N   1      10.342  -4.447   0.830  0.00  0.00     0.011 C 
HETATM   41  C   UNK N   1      10.272  -3.061   0.195  0.00  0.00     0.011 C 
HETATM   42  C   UNK N   1       9.310  -3.047  -0.996  0.00  0.00     0.035 C 
HETATM   43  C   UNK N   1       7.902  -3.438  -0.547  0.00  0.00     0.147 C 
HETATM   44  C   UNK N   1       7.898  -4.833   0.076  0.00  0.00     0.150 C 
HETATM   45  C   UNK N   1       8.942  -4.962   1.203  0.00  0.00     0.043 C 
BRANCH  43  46
HETATM   46  O   UNK N   1       7.416  -2.507   0.372  0.00  0.00    -0.393 OA
HETATM   47  H   UNK N   1       7.808  -1.891   1.011  0.00  0.00     0.210 HD
ENDBRANCH  43  46
BRANCH  44  48
HETATM   48  O   UNK N   1       8.062  -5.808  -0.910  0.00  0.00    -0.388 OA
HETATM   49  C   UNK N   1       6.807  -6.417  -1.012  0.00  0.00     0.202 C 
ENDBRANCH  44  48
ENDBRANCH  38  40
ENDBRANCH   1  37
BRANCH   3  50
HETATM   50  O   UNK N   1      15.391  -6.401   0.705  0.00  0.00    -0.395 OA
HETATM   51  H   UNK N   1      15.549  -6.261   1.652  0.00  0.00     0.210 HD
ENDBRANCH   3  50
BRANCH   6  52
HETATM   52  C   UNK N   1      18.205 -10.883  -0.394  0.00  0.00     0.042 C 
BRANCH  52  53
HETATM   53  C   UNK N   1      19.228 -10.141   0.405  0.00  0.00    -0.036 C 
HETATM   54  C   UNK N   1      19.917  -9.157  -0.171  0.00  0.00     0.007 C 
ENDBRANCH  52  53
ENDBRANCH   6  52
BRANCH  19  55
HETATM   55  O   UNK N   1      10.622 -14.072  -1.485  0.00  0.00    -0.359 OA
HETATM   56  H   UNK N   1      10.874 -14.284  -2.397  0.00  0.00     0.213 HD
ENDBRANCH  19  55
BRANCH  16  57
HETATM   57  O   UNK N   1      11.986 -17.895  -0.426  0.00  0.00    -0.388 OA
HETATM   58  C   UNK N   1      11.862 -18.988   0.432  0.00  0.00     0.202 C 
ENDBRANCH  16  57
BRANCH  14  59
HETATM   59  O   UNK N   1      14.431 -15.213   0.373  0.00  0.00    -0.388 OA
HETATM   60  C   UNK N   1      15.220 -16.340   0.144  0.00  0.00     0.202 C 
ENDBRANCH  14  59
TORSDOF 10
