REMARK  3 active torsions:
REMARK  status: ('A' for Active; 'I' for Inactive)
REMARK       I    between atoms: N_4  and  C_2 
REMARK    1  A    between atoms: N_4  and  C_6 
REMARK    2  A    between atoms: C_10  and  S_12 
REMARK    3  A    between atoms: S_12  and  N_15 
ROOT
HETATM    1  C   UNK N   1       0.638   1.665   0.134  0.00  0.00     0.170 A 
HETATM    2  N   UNK N   1       1.720   0.832   0.159  0.00  0.00    -0.274 N 
HETATM    3  N   UNK N   1       1.407  -0.479   0.247  0.00  0.00    -0.279 N 
ATOM      4  HN  UNK N   1       2.104  -1.223   0.284  1.00  0.00     0.188 HD
HETATM    5  C   UNK N   1       0.061  -0.705   0.281  0.00  0.00     0.209 A 
HETATM    6  S   UNK N   1      -0.728   0.740   0.220  0.00  0.00    -0.019 SA
HETATM    7  C   UNK N   1       3.099   1.292   0.106  0.00  0.00     0.180 C 
ENDROOT
BRANCH   5   8
HETATM    8  S   UNK N   1      -0.766  -2.287   0.430  0.00  0.00     0.280 S 
HETATM    9  O   UNK N   1      -0.220  -3.647  -0.030  0.00  0.00    -0.199 OA
HETATM   10  O   UNK N   1      -2.240  -2.265   0.002  0.00  0.00    -0.199 OA
BRANCH   8  11
HETATM   11  N   UNK N   1      -0.500  -1.992  -1.290  0.00  0.00    -0.323 N 
HETATM   12  H   UNK N   1      -0.276  -2.040  -2.284  0.00  0.00     0.169 HD
HETATM   13  H   UNK N   1      -0.813  -1.021  -1.290  0.00  0.00     0.169 HD
ENDBRANCH   8  11
ENDBRANCH   5   8
BRANCH   1  14
HETATM   14  N   UNK N   1       0.721   2.955   0.064  0.00  0.00    -0.306 N 
HETATM   15  C   UNK N   1      -0.331   3.826   0.046  0.00  0.00     0.219 C 
HETATM   16  C   UNK N   1      -0.062   5.288  -0.025  0.00  0.00     0.117 C 
HETATM   17  O   UNK N   1      -1.490   3.440   0.091  0.00  0.00    -0.274 OA
ATOM     18  HN  UNK N   1       1.657   3.357   0.019  1.00  0.00     0.171 HD
ENDBRANCH   1  14
TORSDOF 3
