REMARK  3 active torsions:
REMARK  status: ('A' for Active; 'I' for Inactive)
REMARK    1  A    between atoms: N_2  and  N_3 
REMARK    2  A    between atoms: C_5  and  C_6 
REMARK    3  A    between atoms: C_8  and  N_11 
ROOT
HETATM    1  N   UNK N   1       1.042  -0.135  -0.383  0.00  0.00    -0.303 N 
ATOM      2  HN  UNK N   1       0.230  -0.724  -0.573  1.00  0.00     0.186 HD
HETATM    3  C   UNK N   1       0.863   1.135  -0.301  0.00  0.00     0.144 C 
ENDROOT
BRANCH   1   4
HETATM    4  N   UNK N   1       2.267  -0.747  -0.229  0.00  0.00    -0.234 N 
HETATM    5  C   UNK N   1       3.417  -0.167   0.181  0.00  0.00     0.344 A 
HETATM    6  N   UNK N   1       4.396  -1.053   0.364  0.00  0.00    -0.276 N 
HETATM    7  O   UNK N   1       3.548   1.027   0.403  0.00  0.00    -0.245 OA
HETATM    8  C   UNK N   1       3.880  -2.260   0.072  0.00  0.00     0.245 A 
HETATM    9  H   UNK N   1       5.317  -0.861   0.655  0.00  0.00     0.173 HD
HETATM   10  C   UNK N   1       2.436  -2.178  -0.350  0.00  0.00     0.257 A 
HETATM   11  O   UNK N   1       4.515  -3.297   0.170  0.00  0.00    -0.271 OA
ENDBRANCH   1   4
BRANCH   3  12
HETATM   12  C   UNK N   1      -0.509   1.632  -0.242  0.00  0.00     0.095 A 
HETATM   13  O   UNK N   1      -1.540   0.837  -0.127  0.00  0.00    -0.287 OA
HETATM   14  C   UNK N   1      -2.614   1.564   0.004  0.00  0.00     0.215 A 
HETATM   15  C   UNK N   1      -2.293   2.910  -0.023  0.00  0.00     0.065 A 
HETATM   16  C   UNK N   1      -0.913   2.954  -0.178  0.00  0.00     0.043 A 
BRANCH  14  17
HETATM   17  N   UNK N   1      -3.905   1.016   0.191  0.00  0.00    -0.090 N 
HETATM   18  O   UNK N   1      -4.942   1.803   0.371  0.00  0.00    -0.530 OA
HETATM   19  O   UNK N   1      -4.048  -0.169   0.225  0.00  0.00    -0.530 OA
ENDBRANCH  14  17
ENDBRANCH   3  12
TORSDOF 3
