REMARK  7 active torsions:
REMARK  status: ('A' for Active; 'I' for Inactive)
REMARK    1  A    between atoms: C_9  and  C_1 
REMARK    2  A    between atoms: O_10  and  C_9 
REMARK    3  A    between atoms: N_11  and  O_10 
REMARK    4  A    between atoms: C_13  and  N_11 
REMARK    5  A    between atoms: C_14  and  C_13 
REMARK    6  A    between atoms: C_15  and  C_13 
REMARK    7  A    between atoms: N_16  and  C_15 
ROOT
HETATM    1  C   UNK N   1       1.271  -0.108  -0.397  0.00  0.00     0.062 C 
ENDROOT
BRANCH   1   2
HETATM    2  N   UNK N   1       1.152  -1.292   0.105  0.00  0.00    -0.268 N 
ATOM      3  HN  UNK N   1       1.978  -1.749   0.491  1.00  0.00     0.194 HD
BRANCH   2   4
HETATM    4  O   UNK N   1       0.000  -1.929   0.133  0.00  0.00    -0.276 OA
BRANCH   4   5
HETATM    5  C   UNK N   1      -1.006  -1.545   0.995  0.00  0.00     0.241 C 
BRANCH   5   6
HETATM    6  C   UNK N   1      -2.294  -2.114   0.510  0.00  0.00    -0.010 A 
HETATM    7  C   UNK N   1      -2.406  -3.501   0.364  0.00  0.00     0.013 A 
HETATM    8  C   UNK N   1      -3.581  -4.064  -0.134  0.00  0.00     0.024 A 
HETATM    9  C   UNK N   1      -4.652  -3.241  -0.488  0.00  0.00     0.035 A 
HETATM   10  C   UNK N   1      -4.555  -1.857  -0.331  0.00  0.00     0.048 A 
HETATM   11 Cl   UNK N   1      -6.111  -3.947  -1.143  0.00  0.00    -0.084 Cl
HETATM   12  C   UNK N   1      -3.381  -1.286   0.170  0.00  0.00     0.044 A 
HETATM   13 Cl   UNK N   1      -3.304   0.460   0.344  0.00  0.00    -0.084 Cl
ENDBRANCH   5   6
ENDBRANCH   4   5
ENDBRANCH   2   4
ENDBRANCH   1   2
BRANCH   1  14
HETATM   14  C   UNK N   1       2.586   0.602  -0.333  0.00  0.00     0.012 A 
HETATM   15  C   UNK N   1       3.803  -0.039   0.040  0.00  0.00     0.048 A 
HETATM   16  C   UNK N   1       4.975   0.714   0.157  0.00  0.00     0.048 A 
HETATM   17 Cl   UNK N   1       3.938  -1.766   0.356  0.00  0.00    -0.083 Cl
HETATM   18  C   UNK N   1       4.967   2.086  -0.088  0.00  0.00     0.035 A 
HETATM   19  C   UNK N   1       3.791   2.716  -0.484  0.00  0.00     0.025 A 
HETATM   20 Cl   UNK N   1       6.432   3.018   0.121  0.00  0.00    -0.084 Cl
HETATM   21  C   UNK N   1       2.616   1.979  -0.611  0.00  0.00     0.017 A 
ENDBRANCH   1  14
BRANCH   1  22
HETATM   22  C   UNK N   1       0.050   0.559  -0.996  0.00  0.00     0.189 C 
BRANCH  22  23
HETATM   23  N   UNK N   1      -0.297   1.804  -0.322  0.00  0.00    -0.346 N 
HETATM   24  C   UNK N   1      -0.641   2.946  -0.935  0.00  0.00     0.182 A 
HETATM   25  N   UNK N   1      -0.922   3.905  -0.032  0.00  0.00    -0.361 N 
HETATM   26  C   UNK N   1      -0.747   3.337   1.180  0.00  0.00     0.106 A 
ATOM     27  HN  UNK N   1      -1.209   4.865  -0.224  1.00  0.00     0.166 HD
HETATM   28  C   UNK N   1      -0.363   2.023   0.999  0.00  0.00     0.109 A 
ENDBRANCH  22  23
ENDBRANCH   1  22
TORSDOF 7
