REMARK  9 active torsions:
REMARK  status: ('A' for Active; 'I' for Inactive)
REMARK    1  A    between atoms: C_7  and  C_4 
REMARK    2  A    between atoms: C_7  and  C_8 
REMARK    3  A    between atoms: C_7  and  C_15 
REMARK    4  A    between atoms: C_7  and  O_16 
REMARK    5  A    between atoms: C_8  and  C_9 
REMARK    6  A    between atoms: C_15  and  C_20 
REMARK    7  A    between atoms: O_16  and  C_17 
REMARK    8  A    between atoms: C_17  and  C_18 
REMARK    9  A    between atoms: C_20  and  N_21 
ROOT
HETATM    1  C   UNK N   1      -1.258   0.389  -0.289  0.00  0.00     0.106 C 
ENDROOT
BRANCH   1   2
HETATM    2  C   UNK N   1      -1.312   1.869   0.111  0.00  0.00    -0.022 A 
HETATM    3  C   UNK N   1      -1.625   2.282   1.417  0.00  0.00     0.010 A 
HETATM    4  C   UNK N   1      -1.726   3.640   1.729  0.00  0.00     0.001 A 
HETATM    5  C   UNK N   1      -1.496   4.603   0.744  0.00  0.00     0.000 A 
HETATM    6  C   UNK N   1      -1.166   4.209  -0.553  0.00  0.00     0.001 A 
HETATM    7  C   UNK N   1      -1.085   2.852  -0.871  0.00  0.00     0.010 A 
ENDBRANCH   1   2
BRANCH   1   8
HETATM    8  C   UNK N   1      -2.415   0.105  -1.286  0.00  0.00     0.082 C 
BRANCH   8   9
HETATM    9  C   UNK N   1      -3.755   0.676  -0.905  0.00  0.00    -0.055 A 
HETATM   10  C   UNK N   1      -4.658  -0.058  -0.127  0.00  0.00     0.007 A 
HETATM   11  C   UNK N   1      -5.886   0.502   0.241  0.00  0.00     0.001 A 
HETATM   12  C   UNK N   1      -6.220   1.794  -0.178  0.00  0.00     0.000 A 
HETATM   13  C   UNK N   1      -5.331   2.521  -0.973  0.00  0.00     0.001 A 
HETATM   14  C   UNK N   1      -4.104   1.963  -1.337  0.00  0.00     0.007 A 
ENDBRANCH   8   9
ENDBRANCH   1   8
BRANCH   1  15
HETATM   15  C   UNK N   1      -1.303  -0.628   0.910  0.00  0.00     0.050 C 
HETATM   16  C   UNK N   1      -2.477  -0.470   1.862  0.00  0.00     0.015 C 
BRANCH  15  17
HETATM   17  C   UNK N   1      -1.275  -2.096   0.460  0.00  0.00     0.279 C 
BRANCH  17  18
HETATM   18  N   UNK N   1      -0.005  -2.458  -0.149  0.00  0.00     0.080 N 
HETATM   19  C   UNK N   1      -0.262  -3.564  -1.052  0.00  0.00     0.309 C 
HETATM   20  C   UNK N   1       0.865  -2.960   0.901  0.00  0.00     0.309 C 
ENDBRANCH  17  18
ENDBRANCH  15  17
ENDBRANCH   1  15
BRANCH   1  21
HETATM   21  O   UNK N   1      -0.073   0.179  -0.989  0.00  0.00    -0.304 OA
BRANCH  21  22
HETATM   22  C   UNK N   1       1.185   0.371  -0.497  0.00  0.00     0.259 C 
HETATM   23  O   UNK N   1       1.363   0.753   0.648  0.00  0.00    -0.265 OA
BRANCH  22  24
HETATM   24  C   UNK N   1       2.358   0.133  -1.391  0.00  0.00     0.106 C 
HETATM   25  C   UNK N   1       3.246  -0.960  -0.825  0.00  0.00     0.015 C 
ENDBRANCH  22  24
ENDBRANCH  21  22
ENDBRANCH   1  21
TORSDOF 9
