REMARK  10 active torsions:
REMARK  status: ('A' for Active; 'I' for Inactive)
REMARK    1  A    between atoms: C_1  and  O_37 
REMARK    2  A    between atoms: C_3  and  O_21 
REMARK    3  A    between atoms: C_4  and  O_38 
REMARK    4  A    between atoms: C_6  and  N_29 
REMARK    5  A    between atoms: C_7  and  C_16 
REMARK    6  A    between atoms: C_12  and  O_40 
REMARK    7  A    between atoms: C_13  and  O_41 
REMARK    8  A    between atoms: O_42  and  C_16 
REMARK    9  A    between atoms: C_25  and  O_21 
REMARK   10  A    between atoms: C_26  and  O_44 
ROOT
HETATM    1  C   UNK N   1       0.795  -1.581  -0.489  0.00  0.00     0.166 C 
HETATM    2  O   UNK N   1       5.903  -2.358  -0.746  0.00  0.00    -0.371 OA
HETATM    3  C   UNK N   1       5.177  -1.920   0.374  0.00  0.00     0.157 A 
HETATM    4  C   UNK N   1      -1.471  -2.972   0.650  0.00  0.00     0.141 C 
HETATM    5  C   UNK N   1       6.255  -1.090  -0.236  0.00  0.00     0.174 A 
HETATM    6  C   UNK N   1      -1.512  -1.543   0.052  0.00  0.00     0.144 C 
HETATM    7  O   UNK N   1      -0.520  -1.286  -0.942  0.00  0.00    -0.349 OA
HETATM    8  C   UNK N   1      -0.028  -3.373   0.991  0.00  0.00     0.140 C 
HETATM    9  C   UNK N   1       0.900  -3.074  -0.171  0.00  0.00     0.101 C 
HETATM   10  C   UNK N   1       1.791  -1.191  -1.593  0.00  0.00     0.100 C 
HETATM   11  C   UNK N   1       5.850  -0.040  -1.232  0.00  0.00     0.013 C 
HETATM   12  C   UNK N   1       6.638   1.852   0.189  0.00  0.00     0.283 C 
HETATM   13  C   UNK N   1       3.718  -1.538   0.074  0.00  0.00     0.067 C 
HETATM   14  C   UNK N   1      -1.547  -0.448   1.125  0.00  0.00     0.069 C 
HETATM   15  O   UNK N   1       6.172   2.975   0.786  0.00  0.00    -0.313 OA
HETATM   16  C   UNK N   1       5.952   1.275  -0.993  0.00  0.00     0.081 C 
HETATM   17  C   UNK N   1      -2.290   0.757   0.564  0.00  0.00     0.150 C 
HETATM   18  C   UNK N   1       3.250  -1.647  -1.388  0.00  0.00     0.125 C 
HETATM   19  O   UNK N   1       7.622   1.304   0.652  0.00  0.00    -0.260 OA
HETATM   20  C   UNK N   1      -0.074   5.123  -0.505  0.00  0.00     0.000 C 
HETATM   21  C   UNK N   1       0.047   4.301  -1.728  0.00  0.00     0.000 C 
HETATM   22  C   UNK N   1      -0.247   2.996  -1.740  0.00  0.00    -0.000 C 
HETATM   23  C   UNK N   1       0.756   5.005   0.537  0.00  0.00    -0.000 C 
HETATM   24  C   UNK N   1      -0.693   2.297  -0.527  0.00  0.00    -0.002 C 
HETATM   25  C   UNK N   1       1.911   4.096   0.534  0.00  0.00    -0.004 C 
HETATM   26  C   UNK N   1      -1.756   1.515  -0.607  0.00  0.00     0.005 C 
HETATM   27  C   UNK N   1       2.754   4.130   1.559  0.00  0.00    -0.024 C 
HETATM   28  C   UNK N   1       4.977   3.569   0.460  0.00  0.00     0.131 C 
HETATM   29  C   UNK N   1       3.992   3.290   1.600  0.00  0.00     0.059 C 
HETATM   30  C   UNK N   1       5.217   5.058   0.258  0.00  0.00     0.040 C 
ENDROOT
BRANCH  17  31
HETATM   31  O   UNK N   1      -3.130   1.440   1.456  0.00  0.00    -0.349 OA
BRANCH  31  32
HETATM   32  C   UNK N   1      -4.507   1.172   1.180  0.00  0.00     0.291 C 
HETATM   33  C   UNK N   1      -4.822  -0.195   0.492  0.00  0.00     0.198 C 
HETATM   34  C   UNK N   1      -6.319  -0.456   0.580  0.00  0.00     0.139 C 
HETATM   35  C   UNK N   1      -7.126   0.842   0.408  0.00  0.00     0.171 C 
HETATM   36  C   UNK N   1      -6.303   2.007  -0.183  0.00  0.00     0.151 C 
HETATM   37  O   UNK N   1      -5.053   2.269   0.457  0.00  0.00    -0.351 OA
HETATM   38  C   UNK N   1      -7.136   3.273  -0.121  0.00  0.00     0.042 C 
BRANCH  33  39
HETATM   39  O   UNK N   1      -4.448  -0.137  -0.859  0.00  0.00    -0.388 OA
HETATM   40  H   UNK N   1      -4.284  -0.341  -1.793  0.00  0.00     0.210 HD
ENDBRANCH  33  39
BRANCH  34  41
HETATM   41  N   UNK N   1      -6.709  -1.508  -0.351  0.00  0.00    -0.421 N 
HETATM   42  H   UNK N   1      -7.483  -1.639  -1.003  0.00  0.00     0.150 HD
HETATM   43  H   UNK N   1      -6.059  -2.293  -0.351  0.00  0.00     0.150 HD
ENDBRANCH  34  41
BRANCH  35  44
HETATM   44  O   UNK N   1      -8.299   0.624  -0.322  0.00  0.00    -0.391 OA
HETATM   45  H   UNK N   1      -8.836   1.253  -0.829  0.00  0.00     0.210 HD
ENDBRANCH  35  44
ENDBRANCH  31  32
ENDBRANCH  17  31
BRANCH   4  46
HETATM   46  C   UNK N   1      -2.205  -4.003  -0.188  0.00  0.00     0.148 C 
HETATM   47  O   UNK N   1      -2.399  -5.119   0.265  0.00  0.00    -0.650 OA
BRANCH  46  48
HETATM   48  O   UNK N   1      -2.728  -3.681  -1.388  0.00  0.00    -0.776 OA
HETATM   49  H   UNK N   1      -2.716  -3.254  -2.222  0.00  0.00     0.167 HD
ENDBRANCH  46  48
ENDBRANCH   4  46
BRANCH   1  50
HETATM   50  O   UNK N   1       1.111  -0.816   0.643  0.00  0.00    -0.365 OA
HETATM   51  H   UNK N   1       1.679  -0.741   1.426  0.00  0.00     0.213 HD
ENDBRANCH   1  50
BRANCH   8  52
HETATM   52  O   UNK N   1       0.074  -4.716   1.358  0.00  0.00    -0.394 OA
HETATM   53  H   UNK N   1      -0.699  -5.244   1.614  0.00  0.00     0.210 HD
ENDBRANCH   8  52
BRANCH  18  54
HETATM   54  O   UNK N   1       3.398  -2.953  -1.852  0.00  0.00    -0.395 OA
HETATM   55  H   UNK N   1       2.663  -3.497  -2.176  0.00  0.00     0.210 HD
ENDBRANCH  18  54
TORSDOF 10
