REMARK  3 active torsions:
REMARK  status: ('A' for Active; 'I' for Inactive)
REMARK    1  A    between atoms: C_5  and  O_12 
REMARK    2  A    between atoms: O_12  and  C_13 
REMARK    3  A    between atoms: C_13  and  C_14 
ROOT
HETATM    1  O   UNK N   1      -0.260   0.105  -0.073  0.00  0.00    -0.312 OA
ENDROOT
BRANCH   1   2
HETATM    2  C   UNK N   1       0.148  -0.848   0.839  0.00  0.00     0.136 C 
HETATM    3  C   UNK N   1       1.290  -0.223   1.724  0.00  0.00     0.068 C 
HETATM    4  C   UNK N   1       2.692  -0.509   1.154  0.00  0.00     0.227 C 
HETATM    5  N   UNK N   1       2.774  -1.995   1.076  0.00  0.00     0.104 N 
HETATM    6  C   UNK N   1       3.650   0.137   0.109  0.00  0.00     0.048 C 
HETATM    7  C   UNK N   1       2.054  -2.401  -0.143  0.00  0.00     0.227 C 
HETATM    8  C   UNK N   1       4.169  -2.490   1.028  0.00  0.00     0.351 C 
HETATM    9  C   UNK N   1       0.546  -2.159   0.099  0.00  0.00     0.068 C 
HETATM   10  C   UNK N   1       2.682  -1.676  -1.389  0.00  0.00     0.048 C 
HETATM   11  C   UNK N   1       4.000  -0.945  -0.961  0.00  0.00     0.061 C 
HETATM   12  C   UNK N   1       4.822  -1.928  -0.196  0.00  0.00     0.159 C 
HETATM   13  O   UNK N   1       5.960  -2.229  -0.519  0.00  0.00    -0.296 OA
ENDBRANCH   1   2
BRANCH   1  14
HETATM   14  C   UNK N   1      -1.571   0.378  -0.273  0.00  0.00     0.296 C 
HETATM   15  O   UNK N   1      -2.348  -0.524  -0.547  0.00  0.00    -0.259 OA
BRANCH  14  16
HETATM   16  C   UNK N   1      -2.067   1.744  -0.063  0.00  0.00     0.067 A 
HETATM   17  C   UNK N   1      -1.310   2.835   0.353  0.00  0.00     0.107 A 
HETATM   18  N   UNK N   1      -2.114   3.920   0.490  0.00  0.00    -0.364 N 
HETATM   19  C   UNK N   1      -3.353   3.509   0.165  0.00  0.00     0.043 A 
HETATM   20  H   UNK N   1      -1.845   4.825   0.770  0.00  0.00     0.165 HD
HETATM   21  C   UNK N   1      -4.516   4.274   0.166  0.00  0.00     0.030 A 
HETATM   22  C   UNK N   1      -3.361   2.188  -0.178  0.00  0.00     0.008 A 
HETATM   23  C   UNK N   1      -5.717   3.641  -0.206  0.00  0.00     0.002 A 
HETATM   24  C   UNK N   1      -5.725   2.273  -0.561  0.00  0.00     0.001 A 
HETATM   25  C   UNK N   1      -4.531   1.528  -0.546  0.00  0.00     0.015 A 
ENDBRANCH  14  16
ENDBRANCH   1  14
TORSDOF 3
