REMARK  10 active torsions:
REMARK  status: ('A' for Active; 'I' for Inactive)
REMARK    1  A    between atoms: C_1  and  S_2 
REMARK    2  A    between atoms: C_1  and  C_7 
REMARK    3  A    between atoms: S_2  and  C_3 
REMARK    4  A    between atoms: C_3  and  C_4 
REMARK    5  A    between atoms: C_4  and  N_5 
REMARK    6  A    between atoms: N_5  and  C_6 
REMARK    7  A    between atoms: C_6  and  N_21 
REMARK    8  A    between atoms: C_10  and  C_13 
REMARK    9  A    between atoms: C_13  and  N_15 
REMARK   10  A    between atoms: C_14  and  N_18 
ROOT
HETATM    1  S   UNK N   1      -0.956  -2.513  -1.117  0.00  0.00    -0.161 SA
ENDROOT
BRANCH   1   2
HETATM    2  C   UNK N   1      -2.192  -2.787   0.184  0.00  0.00     0.131 C 
BRANCH   2   3
HETATM    3  C   UNK N   1      -3.284  -1.783   0.075  0.00  0.00     0.025 A 
HETATM    4  N   UNK N   1      -3.075  -0.435   0.289  0.00  0.00    -0.355 N 
HETATM    5  C   UNK N   1      -4.210   0.287   0.125  0.00  0.00     0.079 A 
ATOM      6  HN  UNK N   1      -2.173  -0.031   0.540  1.00  0.00     0.166 HD
HETATM    7  S   UNK N   1      -5.446  -0.736  -0.271  0.00  0.00    -0.085 SA
HETATM    8  C   UNK N   1      -4.598  -2.157  -0.254  0.00  0.00     0.077 A 
BRANCH   5   9
HETATM    9  C   UNK N   1      -4.282   1.775   0.316  0.00  0.00     0.335 C 
BRANCH   9  10
HETATM   10  N   UNK N   1      -5.461   2.370  -0.308  0.00  0.00     0.086 N 
HETATM   11  C   UNK N   1      -6.616   2.152   0.549  0.00  0.00     0.309 C 
HETATM   12  C   UNK N   1      -5.238   3.804  -0.331  0.00  0.00     0.309 C 
ENDBRANCH   9  10
ENDBRANCH   5   9
ENDBRANCH   2   3
ENDBRANCH   1   2
BRANCH   1  13
HETATM   13  C   UNK N   1       0.346  -3.306  -0.139  0.00  0.00     0.093 C 
BRANCH  13  14
HETATM   14  C   UNK N   1       1.166  -2.244   0.554  0.00  0.00     0.131 C 
BRANCH  14  15
HETATM   15  N   UNK N   1       2.558  -2.447   0.258  0.00  0.00    -0.374 N 
HETATM   16  H   UNK N   1       2.872  -3.373   0.144  0.00  0.00     0.161 HD
BRANCH  15  17
HETATM   17  C   UNK N   1       3.516  -1.400   0.118  0.00  0.00     0.118 C 
HETATM   18  C   UNK N   1       4.809  -1.758   0.026  0.00  0.00     0.215 C 
BRANCH  18  19
HETATM   19  N   UNK N   1       5.905  -0.852  -0.080  0.00  0.00    -0.124 N 
HETATM   20  O   UNK N   1       5.741   0.329  -0.042  0.00  0.00    -0.532 OA
HETATM   21  O   UNK N   1       7.126  -1.334  -0.148  0.00  0.00    -0.532 OA
ENDBRANCH  18  19
BRANCH  17  22
HETATM   22  N   UNK N   1       3.149  -0.018   0.099  0.00  0.00    -0.380 N 
HETATM   23  C   UNK N   1       1.796   0.474   0.098  0.00  0.00     0.147 C 
HETATM   24  H   UNK N   1       3.876   0.646   0.087  0.00  0.00     0.160 HD
ENDBRANCH  17  22
ENDBRANCH  15  17
ENDBRANCH  14  15
ENDBRANCH  13  14
ENDBRANCH   1  13
TORSDOF 10
