REMARK  0 active torsions:
REMARK  status: ('A' for Active; 'I' for Inactive)
ROOT
HETATM    1  C   UNK N   1       1.320   0.215   2.347  0.00  0.00     0.303 C 
HETATM    2  C   UNK N   1      -1.485  -2.042   1.093  0.00  0.00     0.179 C 
HETATM    3  C   UNK N   1      -1.891  -0.737   1.627  0.00  0.00     0.359 C 
HETATM    4  C   UNK N   1       3.103   0.470   0.782  0.00  0.00     0.386 C 
HETATM    5  C   UNK N   1      -1.066   2.459   0.646  0.00  0.00     0.303 C 
HETATM    6  C   UNK N   1      -2.210   1.487   0.921  0.00  0.00     0.303 C 
HETATM    7  C   UNK N   1       0.480   1.484   2.187  0.00  0.00     0.303 C 
HETATM    8  N   UNK N   1       0.241   1.825   0.787  0.00  0.00     0.101 N 
HETATM    9  C   UNK N   1       1.248   2.781   0.334  0.00  0.00     0.385 C 
HETATM   10  C   UNK N   1       1.317   2.771  -1.166  0.00  0.00     0.317 C 
HETATM   11  O   UNK N   1       1.950   3.632  -1.754  0.00  0.00    -0.261 OA
HETATM   12 Gd   UNK N   1       0.238  -0.060  -0.649  0.00  0.00     0.000 Gd
HETATM   13  O   UNK N   1       0.664   1.800  -1.850  0.00  0.00    -0.148 OA
HETATM   14  O   UNK N   1      -0.675  -2.047   0.182  0.00  0.00    -0.175 OA
HETATM   15  N   UNK N   1       1.863  -0.254   1.081  0.00  0.00     0.107 N 
HETATM   16  N   UNK N   1      -1.919   0.128   0.470  0.00  0.00     0.107 N 
HETATM   17  C   UNK N   1       3.396   0.326  -0.664  0.00  0.00     0.317 C 
HETATM   18  O   UNK N   1       2.404  -0.069  -1.469  0.00  0.00    -0.148 OA
HETATM   19  O   UNK N   1       4.519   0.507  -1.105  0.00  0.00    -0.261 OA
HETATM   20  C   UNK N   1       2.198  -1.676   1.210  0.00  0.00     0.359 C 
HETATM   21  C   UNK N   1       2.092  -2.452  -0.106  0.00  0.00     0.179 C 
HETATM   22  O   UNK N   1       1.330  -2.066  -0.993  0.00  0.00    -0.175 OA
HETATM   23  N   UNK N   1       2.800  -3.590  -0.293  0.00  0.00    -0.375 N 
HETATM   24  C   UNK N   1       3.713  -4.095   0.702  0.00  0.00     0.148 C 
HETATM   25  N   UNK N   1      -2.065  -3.182   1.532  0.00  0.00    -0.375 N 
HETATM   26  C   UNK N   1      -1.750  -4.463   0.954  0.00  0.00     0.148 C 
HETATM   27  C   UNK N   1      -3.033  -0.287  -0.391  0.00  0.00     0.386 C 
HETATM   28  C   UNK N   1      -2.636  -0.298  -1.830  0.00  0.00     0.317 C 
HETATM   29  O   UNK N   1      -1.383   0.043  -2.193  0.00  0.00    -0.148 OA
HETATM   30  O   UNK N   1      -3.452  -0.626  -2.676  0.00  0.00    -0.261 OA
HETATM   31  H   UNK N   1       2.689  -4.089  -1.134  0.00  0.00     0.160 HD
HETATM   32  H   UNK N   1      -2.720  -3.135   2.265  0.00  0.00     0.160 HD
ENDROOT
TORSDOF 0
