REMARK  20 active torsions:
REMARK  status: ('A' for Active; 'I' for Inactive)
REMARK    1  A    between atoms: C_22  and  C_16 
REMARK    2  A    between atoms: C_25  and  C_16 
REMARK    3  A    between atoms: C_23  and  C_17 
REMARK    4  A    between atoms: C_27  and  C_17 
REMARK    5  A    between atoms: C_26  and  C_18 
REMARK    6  A    between atoms: C_28  and  C_18 
REMARK    7  A    between atoms: C_25  and  C_20 
REMARK    8  A    between atoms: S_47  and  C_20 
REMARK    9  A    between atoms: C_29  and  C_24 
REMARK   10  A    between atoms: C_25  and  C_31 
REMARK   11  A    between atoms: C_30  and  C_27 
REMARK   12  A    between atoms: C_27  and  N_37 
REMARK   13  A    between atoms: C_32  and  C_28 
REMARK   14  A    between atoms: C_28  and  N_39 
REMARK   15  A    between atoms: C_30  and  C_29 
REMARK   16  A    between atoms: C_29  and  O_41 
REMARK   17  A    between atoms: C_30  and  O_42 
REMARK   18  A    between atoms: C_31  and  O_43 
REMARK   19  A    between atoms: C_32  and  O_44 
REMARK   20  A    between atoms: S_47  and  C_33 
ROOT
HETATM    1  C   UNK N   1       7.822  -0.736   0.496  0.00  0.00     0.163 C 
ENDROOT
BRANCH   1   2
HETATM    2  C   UNK N   1       8.928  -1.136  -0.496  0.00  0.00     0.092 C 
BRANCH   2   3
HETATM    3  C   UNK N   1      10.269  -0.526  -0.247  0.00  0.00     0.028 A 
HETATM    4  C   UNK N   1      11.065  -0.728   0.854  0.00  0.00     0.114 A 
HETATM    5  N   UNK N   1      12.208  -0.043   0.663  0.00  0.00    -0.360 N 
HETATM    6  C   UNK N   1      12.086   0.552  -0.544  0.00  0.00     0.180 A 
ATOM      7  HN  UNK N   1      13.003   0.015   1.299  1.00  0.00     0.166 HD
HETATM    8  N   UNK N   1      10.904   0.266  -1.124  0.00  0.00    -0.354 N 
HETATM    9  H   UNK N   1      10.577   0.572  -2.001  0.00  0.00     0.166 HD
ENDBRANCH   2   3
ENDBRANCH   1   2
BRANCH   1  10
HETATM   10  C   UNK N   1       7.485   0.753   0.421  0.00  0.00     0.135 C 
HETATM   11  N   UNK N   1       6.325   1.204   0.038  0.00  0.00    -0.365 N 
ATOM     12  HN  UNK N   1       5.614   0.538  -0.262  1.00  0.00     0.161 HD
BRANCH  11  13
HETATM   13  C   UNK N   1       6.003   2.637   0.024  0.00  0.00     0.115 C 
BRANCH  13  14
HETATM   14  C   UNK N   1       7.065   3.378  -0.825  0.00  0.00     0.032 C 
BRANCH  14  15
HETATM   15  C   UNK N   1       7.660   4.588  -0.100  0.00  0.00    -0.013 C 
HETATM   16  C   UNK N   1       6.807   5.842  -0.293  0.00  0.00     0.005 C 
HETATM   17  C   UNK N   1       7.412   7.018   0.468  0.00  0.00     0.000 C 
HETATM   18  C   UNK N   1       8.837   7.275  -0.013  0.00  0.00     0.000 C 
HETATM   19  C   UNK N   1       9.690   6.021   0.165  0.00  0.00     0.000 C 
HETATM   20  C   UNK N   1       9.076   4.851  -0.601  0.00  0.00     0.005 C 
ENDBRANCH  14  15
ENDBRANCH  13  14
BRANCH  13  21
HETATM   21  C   UNK N   1       4.583   2.968  -0.552  0.00  0.00     0.169 C 
BRANCH  21  22
HETATM   22  C   UNK N   1       3.331   2.569   0.298  0.00  0.00     0.153 C 
BRANCH  22  23
HETATM   23  C   UNK N   1       2.897   1.104   0.413  0.00  0.00     0.017 A 
HETATM   24  C   UNK N   1       3.632   0.229  -0.557  0.00  0.00     0.007 A 
HETATM   25  C   UNK N   1       3.940   0.155   0.936  0.00  0.00     0.007 A 
ENDBRANCH  22  23
BRANCH  22  26
HETATM   26  O   UNK N   1       2.223   3.223  -0.250  0.00  0.00    -0.393 OA
HETATM   27  H   UNK N   1       2.231   4.116  -0.629  0.00  0.00     0.210 HD
ENDBRANCH  22  26
ENDBRANCH  21  22
BRANCH  21  28
HETATM   28  O   UNK N   1       4.500   4.356  -0.704  0.00  0.00    -0.391 OA
HETATM   29  H   UNK N   1       5.305   4.887  -0.810  0.00  0.00     0.210 HD
ENDBRANCH  21  28
ENDBRANCH  13  21
ENDBRANCH  11  13
BRANCH  10  30
HETATM   30  O   UNK N   1       8.452   1.619   0.795  0.00  0.00    -0.348 OA
HETATM   31  H   UNK N   1       9.308   1.339   1.054  0.00  0.00     0.219 HD
ENDBRANCH  10  30
ENDBRANCH   1  10
BRANCH   1  32
HETATM   32  N   UNK N   1       6.716  -1.678   0.373  0.00  0.00    -0.362 N 
HETATM   33  C   UNK N   1       6.050  -1.959  -0.703  0.00  0.00     0.117 C 
ATOM     34  HN  UNK N   1       6.437  -2.166   1.224  1.00  0.00     0.162 HD
BRANCH  33  35
HETATM   35  C   UNK N   1       5.021  -3.084  -0.689  0.00  0.00     0.078 C 
BRANCH  35  36
HETATM   36  C   UNK N   1       3.648  -2.554  -1.125  0.00  0.00     0.052 C 
BRANCH  36  37
HETATM   37  C   UNK N   1       2.416  -3.063  -0.432  0.00  0.00    -0.057 A 
HETATM   38  C   UNK N   1       2.103  -4.428  -0.400  0.00  0.00     0.007 A 
HETATM   39  C   UNK N   1       0.927  -4.860   0.226  0.00  0.00     0.001 A 
HETATM   40  C   UNK N   1       0.056  -3.930   0.804  0.00  0.00     0.000 A 
HETATM   41  C   UNK N   1       0.362  -2.568   0.762  0.00  0.00     0.001 A 
HETATM   42  C   UNK N   1       1.539  -2.138   0.146  0.00  0.00     0.007 A 
ENDBRANCH  36  37
ENDBRANCH  35  36
BRANCH  35  43
HETATM   43  C   UNK N   1       4.993  -3.815   0.664  0.00  0.00     0.154 C 
BRANCH  43  44
HETATM   44  S   UNK N   1       6.180  -5.208   0.692  0.00  0.00     0.152 S 
HETATM   45  O   UNK N   1       7.406  -4.814  -0.151  0.00  0.00    -0.227 OA
HETATM   46  O   UNK N   1       6.853  -5.212   2.073  0.00  0.00    -0.227 OA
BRANCH  44  47
HETATM   47  C   UNK N   1       5.719  -6.922   0.254  0.00  0.00     0.053 C 
HETATM   48  C   UNK N   1       5.935  -7.160  -1.227  0.00  0.00     0.031 C 
HETATM   49  C   UNK N   1       6.538  -7.921   1.047  0.00  0.00     0.031 C 
HETATM   50  C   UNK N   1       4.253  -7.132   0.575  0.00  0.00     0.031 C 
ENDBRANCH  44  47
ENDBRANCH  43  44
ENDBRANCH  35  43
ENDBRANCH  33  35
BRANCH  33  51
HETATM   51  O   UNK N   1       6.300  -1.301  -1.854  0.00  0.00    -0.349 OA
HETATM   52  H   UNK N   1       6.783  -1.222  -2.653  0.00  0.00     0.219 HD
ENDBRANCH  33  51
ENDBRANCH   1  32
TORSDOF 20
