REMARK  21 active torsions:
REMARK  status: ('A' for Active; 'I' for Inactive)
REMARK       I    between atoms: C_2  and  N_1 
REMARK    1  A    between atoms: C_3  and  C_2 
REMARK    2  A    between atoms: N_4  and  C_3 
REMARK       I    between atoms: C_5  and  N_4 
REMARK    3  A    between atoms: C_6  and  C_5 
REMARK    4  A    between atoms: N_7  and  C_6 
REMARK    5  A    between atoms: C_6  and  C_12 
REMARK       I    between atoms: C_8  and  N_7 
REMARK    6  A    between atoms: C_16  and  C_8 
REMARK    7  A    between atoms: C_13  and  C_12 
REMARK    8  A    between atoms: C_14  and  C_13 
REMARK    9  A    between atoms: C_15  and  C_14 
REMARK   10  A    between atoms: N_72  and  C_15 
REMARK       I    between atoms: C_21  and  N_18 
REMARK   11  A    between atoms: C_22  and  C_21 
REMARK   12  A    between atoms: C_25  and  C_32 
REMARK   13  A    between atoms: C_33  and  C_32 
REMARK       I    between atoms: N_35  and  C_33 
REMARK   14  A    between atoms: C_37  and  C_39 
REMARK   15  A    between atoms: C_40  and  C_39 
REMARK   16  A    between atoms: C_41  and  C_40 
REMARK       I    between atoms: N_42  and  C_41 
REMARK   17  A    between atoms: C_47  and  C_45 
REMARK   18  A    between atoms: C_48  and  C_47 
REMARK   19  A    between atoms: C_56  and  N_70 
REMARK   20  A    between atoms: C_60  and  C_63 
REMARK   21  A    between atoms: C_65  and  C_63 
ROOT
HETATM    1  C   UNK N   1       6.755  -7.208   1.003  0.00  0.00     0.186 C 
HETATM    2  N   UNK N   1       6.810  -6.940  -0.418  0.00  0.00    -0.345 N 
HETATM    3  C   UNK N   1       6.062  -7.470  -1.414  0.00  0.00     0.241 C 
HETATM    4  C   UNK N   1       4.923  -8.418  -1.193  0.00  0.00     0.185 C 
HETATM    5  N   UNK N   1       3.703  -7.647  -1.194  0.00  0.00    -0.346 N 
HETATM    6  C   UNK N   1       7.181  -5.944   1.773  0.00  0.00     0.120 C 
HETATM    7  S   UNK N   1       6.677  -4.329   1.118  0.00  0.00    -0.095 SA
HETATM    8  S   UNK N   1       8.067  -4.318  -0.511  0.00  0.00    -0.095 SA
HETATM    9  O   UNK N   1       6.274  -7.093  -2.555  0.00  0.00    -0.271 OA
HETATM   10  C   UNK N   1       3.347  -6.844  -0.163  0.00  0.00     0.241 C 
HETATM   11  C   UNK N   1       2.186  -5.933  -0.290  0.00  0.00     0.177 C 
HETATM   12  O   UNK N   1       3.968  -6.858   0.886  0.00  0.00    -0.271 OA
HETATM   13  N   UNK N   1       2.471  -4.690  -0.969  0.00  0.00    -0.346 N 
HETATM   14  C   UNK N   1       3.091  -2.309  -0.816  0.00  0.00     0.180 C 
HETATM   15  C   UNK N   1       3.202  -3.731  -0.344  0.00  0.00     0.241 C 
HETATM   16  N   UNK N   1       7.649  -1.356  -0.565  0.00  0.00    -0.346 N 
HETATM   17  C   UNK N   1       8.879  -1.188  -0.018  0.00  0.00     0.241 C 
HETATM   18  C   UNK N   1       9.900  -2.273  -0.227  0.00  0.00     0.177 C 
HETATM   19  C   UNK N   1       9.437  -3.572   0.426  0.00  0.00     0.120 C 
HETATM   20  C   UNK N   1       5.293  -1.374  -0.106  0.00  0.00     0.241 C 
HETATM   21  O   UNK N   1       5.152  -1.767   1.043  0.00  0.00    -0.271 OA
HETATM   22  C   UNK N   1       6.474  -0.517  -0.460  0.00  0.00     0.180 C 
HETATM   23  N   UNK N   1       4.356  -1.636  -1.055  0.00  0.00    -0.346 N 
HETATM   24  O   UNK N   1       3.742  -3.973   0.725  0.00  0.00    -0.271 OA
HETATM   25  O   UNK N   1       9.159  -0.185   0.622  0.00  0.00    -0.271 OA
HETATM   26  H   UNK N   1       7.486  -6.282  -0.699  0.00  0.00     0.163 HD
HETATM   27  H   UNK N   1       3.106  -7.707  -1.975  0.00  0.00     0.163 HD
HETATM   28  H   UNK N   1       2.136  -4.539  -1.883  0.00  0.00     0.163 HD
HETATM   29  H   UNK N   1       7.539  -2.166  -1.113  0.00  0.00     0.163 HD
HETATM   30  H   UNK N   1       4.550  -1.347  -1.976  0.00  0.00     0.163 HD
ENDROOT
BRANCH   1  31
HETATM   31  C   UNK N   1       7.857  -8.136   1.445  0.00  0.00     0.244 C 
HETATM   32  N   UNK N   1       9.051  -8.204   0.790  0.00  0.00    -0.337 N 
HETATM   33  C   UNK N   1       9.301  -7.570  -0.475  0.00  0.00     0.179 C 
HETATM   34  C   UNK N   1      10.244  -8.348   1.547  0.00  0.00     0.127 C 
HETATM   35  C   UNK N   1      10.453  -6.635  -0.174  0.00  0.00     0.037 C 
HETATM   36  C   UNK N   1      10.964  -7.044   1.215  0.00  0.00     0.022 C 
HETATM   37  O   UNK N   1       7.771  -8.622   2.574  0.00  0.00    -0.271 OA
BRANCH  33  38
HETATM   38  C   UNK N   1       9.450  -8.615  -1.585  0.00  0.00     0.241 C 
HETATM   39  N   UNK N   1      10.648  -9.036  -2.067  0.00  0.00    -0.346 N 
HETATM   40  H   UNK N   1      10.656  -9.671  -2.819  0.00  0.00     0.163 HD
HETATM   41  O   UNK N   1       8.437  -9.109  -2.051  0.00  0.00    -0.271 OA
BRANCH  39  42
HETATM   42  C   UNK N   1      11.905  -8.594  -1.527  0.00  0.00     0.176 C 
BRANCH  42  43
HETATM   43  C   UNK N   1      12.372  -9.469  -0.352  0.00  0.00     0.240 C 
HETATM   44  N   UNK N   1      13.255  -9.092   0.608  0.00  0.00    -0.351 N 
HETATM   45  H   UNK N   1      13.477  -9.767   1.290  0.00  0.00     0.163 HD
HETATM   46  O   UNK N   1      11.838 -10.560  -0.220  0.00  0.00    -0.271 OA
BRANCH  44  47
HETATM   47  C   UNK N   1      13.899  -7.818   0.737  0.00  0.00     0.225 C 
BRANCH  47  48
HETATM   48  C   UNK N   1      15.359  -7.966   0.494  0.00  0.00     0.233 C 
HETATM   49  N   UNK N   1      16.069  -8.880   1.182  0.00  0.00    -0.369 N 
HETATM   50  H   UNK N   1      15.751  -9.663   1.686  0.00  0.00     0.159 HD
HETATM   51  H   UNK N   1      17.045  -8.745   1.182  0.00  0.00     0.159 HD
HETATM   52  O   UNK N   1      15.914  -7.261  -0.331  0.00  0.00    -0.272 OA
ENDBRANCH  47  48
ENDBRANCH  44  47
ENDBRANCH  42  43
BRANCH  42  53
HETATM   53  C   UNK N   1      12.451  -7.380  -2.314  0.00  0.00     0.035 C 
BRANCH  53  54
HETATM   54  C   UNK N   1      13.452  -6.462  -1.648  0.00  0.00     0.004 C 
BRANCH  54  55
HETATM   55  C   UNK N   1      12.889  -5.078  -1.381  0.00  0.00     0.019 C 
BRANCH  55  56
HETATM   56  C   UNK N   1      13.144  -4.707   0.069  0.00  0.00     0.111 C 
BRANCH  56  57
HETATM   57  N   UNK N   1      13.901  -3.472   0.144  0.00  0.00    -0.430 N 
HETATM   58  H   UNK N   1      14.919  -3.498   0.196  0.00  0.00     0.149 HD
HETATM   59  H   UNK N   1      13.414  -2.575   0.144  0.00  0.00     0.149 HD
ENDBRANCH  56  57
ENDBRANCH  55  56
ENDBRANCH  54  55
ENDBRANCH  53  54
ENDBRANCH  42  53
ENDBRANCH  39  42
ENDBRANCH  33  38
ENDBRANCH   1  31
BRANCH   4  60
HETATM   60  C   UNK N   1       5.071  -9.393  -0.018  0.00  0.00     0.137 C 
BRANCH  60  61
HETATM   61  C   UNK N   1       3.960 -10.393   0.044  0.00  0.00     0.217 C 
HETATM   62  O   UNK N   1       4.204 -11.578  -0.107  0.00  0.00    -0.274 OA
HETATM   63  N   UNK N   1       2.700  -9.997   0.308  0.00  0.00    -0.370 N 
HETATM   64  H   UNK N   1       2.490  -9.054   0.501  0.00  0.00     0.159 HD
HETATM   65  H   UNK N   1       1.974 -10.662   0.308  0.00  0.00     0.159 HD
ENDBRANCH  60  61
ENDBRANCH   4  60
BRANCH  18  66
HETATM   66  N   UNK N   1      11.192  -1.895   0.318  0.00  0.00    -0.418 N 
HETATM   67  H   UNK N   1      11.876  -2.548   0.701  0.00  0.00     0.150 HD
HETATM   68  H   UNK N   1      11.434  -0.904   0.318  0.00  0.00     0.150 HD
ENDBRANCH  18  66
BRANCH  11  69
HETATM   69  C   UNK N   1       0.896  -6.591  -0.718  0.00  0.00     0.044 C 
BRANCH  69  70
HETATM   70  C   UNK N   1       0.357  -7.313   0.502  0.00  0.00     0.105 C 
BRANCH  70  71
HETATM   71  C   UNK N   1      -0.864  -8.093   0.177  0.00  0.00     0.215 C 
HETATM   72  N   UNK N   1      -2.034  -7.772   0.758  0.00  0.00    -0.370 N 
HETATM   73  H   UNK N   1      -2.259  -6.913   1.183  0.00  0.00     0.159 HD
HETATM   74  H   UNK N   1      -2.734  -8.464   0.758  0.00  0.00     0.159 HD
HETATM   75  O   UNK N   1      -0.800  -9.043  -0.585  0.00  0.00    -0.274 OA
ENDBRANCH  70  71
ENDBRANCH  69  70
ENDBRANCH  11  69
BRANCH  22  76
HETATM   76  C   UNK N   1       6.577   0.673   0.511  0.00  0.00     0.073 C 
BRANCH  76  77
HETATM   77  C   UNK N   1       5.304   1.451   0.456  0.00  0.00    -0.056 A 
HETATM   78  C   UNK N   1       4.308   1.222   1.414  0.00  0.00     0.007 A 
HETATM   79  C   UNK N   1       3.061   1.840   1.288  0.00  0.00     0.001 A 
HETATM   80  C   UNK N   1       2.809   2.686   0.204  0.00  0.00     0.000 A 
HETATM   81  C   UNK N   1       3.806   2.920  -0.749  0.00  0.00     0.001 A 
HETATM   82  C   UNK N   1       5.048   2.294  -0.629  0.00  0.00     0.007 A 
ENDBRANCH  76  77
ENDBRANCH  22  76
BRANCH  14  83
HETATM   83  C   UNK N   1       2.211  -1.498   0.146  0.00  0.00     0.073 C 
BRANCH  83  84
HETATM   84  C   UNK N   1       0.835  -2.084   0.217  0.00  0.00    -0.056 A 
HETATM   85  C   UNK N   1      -0.189  -1.528  -0.553  0.00  0.00     0.007 A 
HETATM   86  C   UNK N   1      -1.457  -2.114  -0.558  0.00  0.00     0.001 A 
HETATM   87  C   UNK N   1      -1.704  -3.263   0.201  0.00  0.00     0.000 A 
HETATM   88  C   UNK N   1      -0.685  -3.817   0.981  0.00  0.00     0.001 A 
HETATM   89  C   UNK N   1       0.581  -3.227   0.991  0.00  0.00     0.007 A 
ENDBRANCH  83  84
ENDBRANCH  14  83
TORSDOF 21
