REMARK  3 active torsions:
REMARK  status: ('A' for Active; 'I' for Inactive)
REMARK    1  A    between atoms: C_16  and  C_4 
REMARK    2  A    between atoms: C_9  and  O_22 
REMARK    3  A    between atoms: C_26  and  C_16 
ROOT
HETATM    1  C   UNK N   1       1.546   0.968  -0.112  0.00  0.00    -0.023 C 
HETATM    2  C   UNK N   1       1.375  -0.506   0.341  0.00  0.00    -0.000 C 
HETATM    3  C   UNK N   1      -2.166  -1.215   0.735  0.00  0.00     0.004 A 
HETATM    4  C   UNK N   1       2.864   1.355   0.597  0.00  0.00     0.028 C 
HETATM    5  C   UNK N   1       0.212  -1.145  -0.438  0.00  0.00    -0.002 C 
HETATM    6  C   UNK N   1      -1.156  -0.402  -0.149  0.00  0.00     0.035 C 
HETATM    7  C   UNK N   1      -2.122  -2.668   0.303  0.00  0.00    -0.064 A 
HETATM    8  C   UNK N   1       0.315   1.825   0.197  0.00  0.00     0.042 C 
HETATM    9  C   UNK N   1      -0.943   1.008   0.509  0.00  0.00     0.124 C 
HETATM   10  C   UNK N   1       3.758   0.102   0.305  0.00  0.00    -0.002 C 
HETATM   11  C   UNK N   1      -3.553  -0.594   0.611  0.00  0.00    -0.009 A 
HETATM   12  C   UNK N   1       2.776  -1.085   0.152  0.00  0.00     0.011 C 
HETATM   13  C   UNK N   1      -3.179  -3.315  -0.211  0.00  0.00     0.058 A 
HETATM   14  C   UNK N   1       0.184  -2.689  -0.472  0.00  0.00     0.010 C 
HETATM   15  C   UNK N   1      -4.606  -1.240   0.094  0.00  0.00     0.052 A 
HETATM   16  C   UNK N   1      -4.466  -2.626  -0.370  0.00  0.00     0.171 A 
HETATM   17  C   UNK N   1      -0.818  -3.369   0.442  0.00  0.00     0.036 C 
HETATM   18  O   UNK N   1      -5.413  -3.201  -0.880  0.00  0.00    -0.289 OA
HETATM   19  C   UNK N   1       1.746   1.103  -1.635  0.00  0.00     0.017 C 
HETATM   20  C   UNK N   1      -1.779  -1.179   2.213  0.00  0.00     0.025 C 
HETATM   21  C   UNK N   1       2.662   1.406   2.116  0.00  0.00     0.025 C 
HETATM   22  C   UNK N   1       4.537   0.143  -1.005  0.00  0.00     0.011 C 
ENDROOT
BRANCH   4  23
HETATM   23  C   UNK N   1       3.387   2.738   0.200  0.00  0.00     0.136 C 
HETATM   24  O   UNK N   1       2.676   3.717   0.384  0.00  0.00    -0.297 OA
BRANCH  23  25
HETATM   25  C   UNK N   1       4.742   2.947  -0.403  0.00  0.00     0.074 C 
HETATM   26  C   UNK N   1       5.589   3.840   0.483  0.00  0.00     0.013 C 
ENDBRANCH  23  25
ENDBRANCH   4  23
BRANCH   9  27
HETATM   27  O   UNK N   1      -2.080   1.814   0.455  0.00  0.00    -0.395 OA
HETATM   28  H   UNK N   1      -1.990   2.779   0.418  0.00  0.00     0.210 HD
ENDBRANCH   9  27
TORSDOF 3
