REMARK  6 active torsions:
REMARK  status: ('A' for Active; 'I' for Inactive)
REMARK    1  A    between atoms: C_2  and  C_15 
REMARK    2  A    between atoms: C_8  and  C_7 
REMARK    3  A    between atoms: O_16  and  C_7 
REMARK    4  A    between atoms: C_10  and  C_9 
REMARK    5  A    between atoms: C_12  and  C_11 
REMARK    6  A    between atoms: C_14  and  C_13 
ROOT
HETATM    1  C   UNK N   1       3.886   0.880   0.029  0.00  0.00     0.007 C 
HETATM    2  C   UNK N   1       2.942   1.840   0.038  0.00  0.00    -0.062 C 
HETATM    3  C   UNK N   1       3.320   3.288   0.074  0.00  0.00     0.048 C 
ENDROOT
BRANCH   2   4
HETATM    4  C   UNK N   1       1.503   1.515   0.028  0.00  0.00     0.007 C 
HETATM    5  C   UNK N   1       1.028   0.266   0.006  0.00  0.00     0.009 C 
BRANCH   5   6
HETATM    6  C   UNK N   1      -0.434  -0.043   0.048  0.00  0.00    -0.048 C 
HETATM    7  C   UNK N   1      -1.472   1.092   0.138  0.00  0.00    -0.020 C 
HETATM    8  C   UNK N   1      -1.177   1.994   1.325  0.00  0.00     0.020 C 
HETATM    9  C   UNK N   1      -1.426   1.928  -1.131  0.00  0.00     0.020 C 
HETATM   10  C   UNK N   1      -2.903   0.589   0.344  0.00  0.00     0.014 C 
HETATM   11  C   UNK N   1      -3.183  -0.631  -0.503  0.00  0.00     0.005 C 
HETATM   12  C   UNK N   1      -2.276  -1.750  -0.018  0.00  0.00     0.034 C 
HETATM   13  C   UNK N   1      -0.824  -1.347  -0.011  0.00  0.00    -0.077 C 
HETATM   14  C   UNK N   1       0.186  -2.450  -0.091  0.00  0.00     0.044 C 
ENDBRANCH   5   6
ENDBRANCH   2   4
BRANCH   1  15
HETATM   15  C   UNK N   1       5.315   1.230   0.068  0.00  0.00     0.001 C 
HETATM   16  C   UNK N   1       6.282   0.325  -0.075  0.00  0.00     0.006 C 
BRANCH  16  17
HETATM   17  C   UNK N   1       7.699   0.743  -0.033  0.00  0.00    -0.064 C 
HETATM   18  C   UNK N   1       8.654  -0.152  -0.312  0.00  0.00     0.005 C 
HETATM   19  C   UNK N   1       8.055   2.171   0.277  0.00  0.00     0.048 C 
BRANCH  18  20
HETATM   20  C   UNK N   1      10.107   0.212  -0.329  0.00  0.00     0.192 C 
BRANCH  20  21
HETATM   21  O   UNK N   1      10.869  -0.851   0.151  0.00  0.00    -0.397 OA
HETATM   22  H   UNK N   1      10.493  -1.680   0.485  0.00  0.00     0.209 HD
ENDBRANCH  20  21
ENDBRANCH  18  20
ENDBRANCH  16  17
ENDBRANCH   1  15
TORSDOF 6
