REMARK  19 active torsions:
REMARK  status: ('A' for Active; 'I' for Inactive)
REMARK    1  A    between atoms: C_5  and  C_6 
REMARK    2  A    between atoms: C_6  and  C_7 
REMARK    3  A    between atoms: C_7  and  C_8 
REMARK       I    between atoms: C_8  and  N_41 
REMARK    4  A    between atoms: C_17  and  C_18 
REMARK    5  A    between atoms: C_18  and  C_19 
REMARK    6  A    between atoms: C_19  and  C_20 
REMARK       I    between atoms: C_20  and  N_42 
REMARK    7  A    between atoms: C_56  and  C_57 
REMARK    8  A    between atoms: C_57  and  O_58 
REMARK    9  A    between atoms: C_59  and  O_60 
REMARK   10  A    between atoms: Co_63  and  O_64 
REMARK   11  A    between atoms: C_66  and  C_67 
REMARK   12  A    between atoms: C_67  and  C_68 
REMARK   13  A    between atoms: C_68  and  C_69 
REMARK       I    between atoms: C_69  and  N_71 
REMARK   14  A    between atoms: C_72  and  C_73 
REMARK   15  A    between atoms: C_73  and  C_74 
REMARK       I    between atoms: C_74  and  N_76 
REMARK   16  A    between atoms: C_77  and  C_78 
REMARK   17  A    between atoms: C_78  and  C_79 
REMARK       I    between atoms: C_79  and  N_80 
REMARK   18  A    between atoms: C_83  and  C_85 
REMARK   19  A    between atoms: C_85  and  C_86 
REMARK       I    between atoms: C_86  and  N_88 
ROOT
HETATM    1  C   UNK N   1      -1.527  -2.884  -1.374  0.00  0.00     0.025 C 
HETATM    2  N   UNK N   1      -1.198  -1.771  -0.995  0.00  0.00    -0.289 N 
HETATM    3  N   UNK N   1      -0.420   0.041  -0.160  0.00  0.00    -0.280 N 
HETATM    4  C   UNK N   1      -0.134   1.238  -0.484  0.00  0.00     0.038 C 
HETATM    5  C   UNK N   1      -1.273   2.250  -0.644  0.00  0.00     0.049 C 
HETATM    6  C   UNK N   1       1.316   1.318   0.951  0.00  0.00     0.114 C 
HETATM    7  N   UNK N   1       1.467  -0.252   0.960  0.00  0.00    -0.234 NA
HETATM    8  C   UNK N   1       2.755   0.013   0.668  0.00  0.00     0.082 C 
HETATM    9  C   UNK N   1       3.072   0.062  -0.700  0.00  0.00     0.049 C 
HETATM   10  C   UNK N   1       2.455  -0.708  -1.426  0.00  0.00     0.118 C 
HETATM   11  N   UNK N   1       1.145  -1.325  -0.948  0.00  0.00    -0.291 N 
HETATM   12  C   UNK N   1       1.166  -2.536  -1.399  0.00  0.00     0.021 C 
HETATM   13  C   UNK N   1       2.864  -2.721  -1.203  0.00  0.00     0.044 C 
HETATM   14  C   UNK N   1       3.552  -1.664  -1.924  0.00  0.00    -0.016 C 
HETATM   15  C   UNK N   1       5.085  -1.395  -1.460  0.00  0.00     0.018 C 
HETATM   16  C   UNK N   1       3.766  -2.103  -3.325  0.00  0.00     0.018 C 
HETATM   17  C   UNK N   1       0.944   1.730  -0.290  0.00  0.00    -0.039 C 
HETATM   18  C   UNK N   1       1.298   2.817  -1.314  0.00  0.00     0.047 C 
HETATM   19  C   UNK N   1      -0.431  -3.528  -1.111  0.00  0.00     0.077 C 
HETATM   20  C   UNK N   1      -1.294  -4.019   0.024  0.00  0.00     0.022 C 
HETATM   21  C   UNK N   1      -2.188  -0.822  -1.357  0.00  0.00     0.144 C 
HETATM   22  C   UNK N   1      -1.954   0.090  -0.258  0.00  0.00     0.081 C 
HETATM   23  C   UNK N   1      -2.671  -0.198   1.067  0.00  0.00     0.043 C 
HETATM   24  C   UNK N   1      -3.707  -3.529   1.607  0.00  0.00     0.104 C 
HETATM   25  C   UNK N   1      -4.616  -4.659   1.427  0.00  0.00     0.217 C 
HETATM   26  O   UNK N   1      -5.705  -4.487   0.899  0.00  0.00    -0.274 OA
HETATM   27  N   UNK N   1      -4.225  -5.878   1.850  0.00  0.00    -0.359 N 
HETATM   28  C   UNK N   1      -5.079  -7.033   1.778  0.00  0.00     0.154 C 
HETATM   29  C   UNK N   1      -5.702  -7.167   0.399  0.00  0.00     0.148 C 
HETATM   30  C   UNK N   1      -3.720  -2.672   0.369  0.00  0.00     0.025 C 
HETATM   31  C   UNK N   1      -3.206  -2.893  -1.118  0.00  0.00     0.004 C 
HETATM   32  C   UNK N   1      -4.033  -3.960  -1.814  0.00  0.00     0.022 C 
HETATM   33  C   UNK N   1       3.360  -4.732   0.020  0.00  0.00     0.040 A 
HETATM   34  C   UNK N   1       2.147  -6.811   0.998  0.00  0.00     0.033 A 
HETATM   35  C   UNK N   1       2.047  -4.230   0.666  0.00  0.00     0.080 A 
HETATM   36  C   UNK N   1       0.282  -3.807   1.716  0.00  0.00     0.186 C 
HETATM   37  C   UNK N   1       1.551  -5.461   1.121  0.00  0.00     0.047 A 
HETATM   38  N   UNK N   1       1.038  -2.880   0.865  0.00  0.00    -0.247 N 
HETATM   39  N   UNK N   1       0.344  -5.310   1.447  0.00  0.00    -0.211 NA
HETATM   40  C   UNK N   1       4.018  -5.988  -0.072  0.00  0.00    -0.054 A 
HETATM   41  C   UNK N   1       5.370  -6.128  -0.714  0.00  0.00     0.049 C 
HETATM   42  C   UNK N   1       3.371  -7.072   0.419  0.00  0.00    -0.054 A 
HETATM   43  C   UNK N   1       3.921  -8.474   0.289  0.00  0.00     0.049 C 
HETATM   44  C   UNK N   1      -0.483  -6.402   0.485  0.00  0.00     0.238 C 
HETATM   45  O   UNK N   1       0.052  -7.717   0.128  0.00  0.00    -0.358 OA
HETATM   46  C   UNK N   1      -0.988  -8.650   0.407  0.00  0.00     0.179 C 
HETATM   47  C   UNK N   1      -1.998  -6.519   0.065  0.00  0.00     0.194 C 
HETATM   48  C   UNK N   1      -2.185  -7.999  -0.162  0.00  0.00     0.198 C 
HETATM   49  O   UNK N   1      -3.426  -8.576   0.162  0.00  0.00    -0.279 OA
HETATM   50 Co   UNK N   1       0.420  -1.225   0.275  0.00  0.00     0.000 Co
HETATM   51  C   UNK N   1       3.495   1.249   1.320  0.00  0.00     0.016 C 
HETATM   52  C   UNK N   1      -3.542  -1.520  -1.647  0.00  0.00     0.036 C 
HETATM   53  C   UNK N   1      -2.540   1.529  -0.714  0.00  0.00     0.002 C 
HETATM   54  C   UNK N   1      -2.868   1.791  -2.188  0.00  0.00     0.019 C 
HETATM   55  C   UNK N   1       2.404   2.248   1.500  0.00  0.00    -0.009 C 
HETATM   56  C   UNK N   1       2.140   2.561   2.941  0.00  0.00     0.018 C 
HETATM   57  P   UNK N   1      -4.350  -8.436  -1.322  0.00  0.00     0.409 P 
HETATM   58  O   UNK N   1      -5.536  -8.479  -0.039  0.00  0.00    -0.283 OA
HETATM   59  O   UNK N   1      -3.979  -9.940  -1.434  0.00  0.00    -0.624 OA
HETATM   60  C   UNK N   1      -7.178  -6.829   0.497  0.00  0.00     0.042 C 
HETATM   61  O   UNK N   1      -5.853  -9.060  -1.923  0.00  0.00    -0.624 OA
HETATM   62  H   UNK N   1      -3.319  -5.981   2.223  0.00  0.00     0.162 HD
ENDROOT
BRANCH   5  63
HETATM   63  C   UNK N   1      -1.236   3.574   0.175  0.00  0.00     0.021 C 
BRANCH  63  64
HETATM   64  C   UNK N   1      -0.884   4.680  -0.810  0.00  0.00     0.103 C 
BRANCH  64  65
HETATM   65  C   UNK N   1      -1.865   5.800  -0.889  0.00  0.00     0.215 C 
HETATM   66  N   UNK N   1      -1.418   7.069  -0.848  0.00  0.00    -0.370 N 
HETATM   67  H   UNK N   1      -0.451   7.251  -0.818  0.00  0.00     0.159 HD
HETATM   68  H   UNK N   1      -2.059   7.817  -0.848  0.00  0.00     0.159 HD
HETATM   69  O   UNK N   1      -3.048   5.578  -1.092  0.00  0.00    -0.274 OA
ENDBRANCH  64  65
ENDBRANCH  63  64
ENDBRANCH   5  63
BRANCH  53  70
HETATM   70  C   UNK N   1      -3.645   2.302   0.119  0.00  0.00     0.115 C 
BRANCH  70  71
HETATM   71  C   UNK N   1      -5.145   2.060   0.156  0.00  0.00     0.216 C 
HETATM   72  O   UNK N   1      -5.735   2.239   1.210  0.00  0.00    -0.274 OA
HETATM   73  N   UNK N   1      -5.865   1.882  -0.972  0.00  0.00    -0.370 N 
HETATM   74  H   UNK N   1      -6.240   2.271  -1.795  0.00  0.00     0.159 HD
HETATM   75  H   UNK N   1      -6.138   0.936  -0.972  0.00  0.00     0.159 HD
ENDBRANCH  70  71
ENDBRANCH  53  70
BRANCH  50  76
HETATM   76  O   UNK N   1      -0.579  -1.184   1.841  0.00  0.00    -0.253 OA
HETATM   77  H   UNK N   1      -0.129  -0.641   2.532  0.00  0.00     0.253 HD
ENDBRANCH  50  76
BRANCH  55  78
HETATM   78  C   UNK N   1       2.409   3.712   0.807  0.00  0.00     0.114 C 
BRANCH  78  79
HETATM   79  C   UNK N   1       3.246   4.906   0.348  0.00  0.00     0.216 C 
HETATM   80  N   UNK N   1       4.574   4.951   0.530  0.00  0.00    -0.370 N 
HETATM   81  H   UNK N   1       5.090   4.123   0.663  0.00  0.00     0.159 HD
HETATM   82  H   UNK N   1       5.038   5.819   0.530  0.00  0.00     0.159 HD
HETATM   83  O   UNK N   1       2.694   5.833  -0.238  0.00  0.00    -0.274 OA
ENDBRANCH  78  79
ENDBRANCH  55  78
BRANCH  52  84
HETATM   84  C   UNK N   1      -4.804  -0.717  -1.127  0.00  0.00     0.110 C 
BRANCH  84  85
HETATM   85  C   UNK N   1      -6.071  -1.473  -0.773  0.00  0.00     0.215 C 
HETATM   86  N   UNK N   1      -6.493  -1.538   0.512  0.00  0.00    -0.370 N 
HETATM   87  H   UNK N   1      -6.688  -1.296   1.446  0.00  0.00     0.159 HD
HETATM   88  H   UNK N   1      -6.850  -2.456   0.512  0.00  0.00     0.159 HD
HETATM   89  O   UNK N   1      -6.723  -2.015  -1.646  0.00  0.00    -0.274 OA
ENDBRANCH  84  85
ENDBRANCH  52  84
BRANCH  51  90
HETATM   90  C   UNK N   1       4.595   1.893   0.433  0.00  0.00     0.016 C 
BRANCH  90  91
HETATM   91  C   UNK N   1       5.779   2.347   1.235  0.00  0.00     0.103 C 
BRANCH  91  92
HETATM   92  C   UNK N   1       6.984   1.821   0.547  0.00  0.00     0.215 C 
HETATM   93  N   UNK N   1       7.509   0.648   0.942  0.00  0.00    -0.370 N 
HETATM   94  H   UNK N   1       6.957  -0.115   1.232  0.00  0.00     0.159 HD
HETATM   95  H   UNK N   1       8.488   0.547   0.942  0.00  0.00     0.159 HD
HETATM   96  O   UNK N   1       7.452   2.408  -0.416  0.00  0.00    -0.274 OA
ENDBRANCH  91  92
ENDBRANCH  90  91
ENDBRANCH  51  90
BRANCH  13  97
HETATM   97  C   UNK N   1       3.615  -2.311   0.392  0.00  0.00     0.020 C 
BRANCH  97  98
HETATM   98  C   UNK N   1       4.229  -2.887   1.757  0.00  0.00     0.103 C 
BRANCH  98  99
HETATM   99  C   UNK N   1       5.560  -3.592   1.595  0.00  0.00     0.215 C 
HETATM  100  N   UNK N   1       6.198  -3.557   0.412  0.00  0.00    -0.370 N 
HETATM  101  H   UNK N   1       6.453  -3.948  -0.455  0.00  0.00     0.159 HD
HETATM  102  H   UNK N   1       6.642  -2.678   0.412  0.00  0.00     0.159 HD
HETATM  103  O   UNK N   1       6.040  -4.238   2.516  0.00  0.00    -0.274 OA
ENDBRANCH  98  99
ENDBRANCH  97  98
ENDBRANCH  13  97
BRANCH  47 104
HETATM  104  O   UNK N   1      -2.194  -6.011  -1.232  0.00  0.00    -0.389 OA
HETATM  105  H   UNK N   1      -1.958  -5.719  -2.126  0.00  0.00     0.210 HD
ENDBRANCH  47 104
BRANCH  46 106
HETATM  106  C   UNK N   1      -0.844 -10.049  -0.243  0.00  0.00     0.198 C 
BRANCH 106 107
HETATM  107  O   UNK N   1      -1.791 -10.942   0.297  0.00  0.00    -0.398 OA
HETATM  108  H   UNK N   1      -2.649 -10.685   0.669  0.00  0.00     0.209 HD
ENDBRANCH 106 107
ENDBRANCH  46 106
TORSDOF 19
