REMARK  4 active torsions:
REMARK  status: ('A' for Active; 'I' for Inactive)
REMARK    1  A    between atoms: P_1  and  O_2 
REMARK    2  A    between atoms: P_1  and  O_3 
REMARK    3  A    between atoms: P_1  and  C_7 
REMARK    4  A    between atoms: O_5  and  C_7 
ROOT
HETATM    1  P   UNK N   1       2.483  -0.699   0.154  0.00  0.00     0.335 P 
HETATM    2  O   UNK N   1       2.804  -2.079   0.787  0.00  0.00    -0.646 OA
ENDROOT
BRANCH   1   3
HETATM    3  O   UNK N   1       1.408  -1.064  -1.161  0.00  0.00    -0.322 OA
HETATM    4  H   UNK N   1       0.932  -0.647  -1.895  0.00  0.00     0.220 HD
ENDBRANCH   1   3
BRANCH   1   5
HETATM    5  O   UNK N   1       1.553   0.120   1.366  0.00  0.00    -0.322 OA
HETATM    6  H   UNK N   1       1.690   0.800   2.044  0.00  0.00     0.220 HD
ENDBRANCH   1   5
BRANCH   1   7
HETATM    7  C   UNK N   1       4.037   0.167  -0.294  0.00  0.00     0.255 C 
HETATM    8  O   UNK N   1       3.994   1.290  -0.769  0.00  0.00    -0.641 OA
BRANCH   7   9
HETATM    9  O   UNK N   1       5.225  -0.428  -0.082  0.00  0.00    -0.768 OA
HETATM   10  H   UNK N   1       5.280  -1.351   0.065  0.00  0.00     0.168 HD
ENDBRANCH   7   9
ENDBRANCH   1   7
TORSDOF 4
