REMARK  15 active torsions:
REMARK  status: ('A' for Active; 'I' for Inactive)
REMARK    1  A    between atoms: C_1  and  C_4 
REMARK    2  A    between atoms: C_4  and  C_7 
REMARK    3  A    between atoms: C_4  and  O_8 
REMARK    4  A    between atoms: C_7  and  C_10 
REMARK    5  A    between atoms: C_9  and  N_11 
REMARK    6  A    between atoms: C_10  and  C_12 
REMARK    7  A    between atoms: N_11  and  S_13 
REMARK    8  A    between atoms: C_12  and  N_14 
REMARK    9  A    between atoms: N_14  and  C_18 
REMARK   10  A    between atoms: N_14  and  C_20 
REMARK   11  A    between atoms: C_20  and  C_21 
REMARK   12  A    between atoms: C_21  and  C_22 
REMARK   13  A    between atoms: C_22  and  C_23 
REMARK   14  A    between atoms: C_23  and  C_24 
REMARK   15  A    between atoms: C_24  and  C_25 
ROOT
HETATM    1  C   UNK N   1      17.963  -9.768   0.410  0.00  0.00     0.151 C 
ENDROOT
BRANCH   1   2
HETATM    2  C   UNK N   1      19.091 -10.762   0.286  0.00  0.00    -0.029 A 
HETATM    3  C   UNK N   1      18.846 -12.132   0.460  0.00  0.00     0.012 A 
HETATM    4  C   UNK N   1      19.891 -13.054   0.377  0.00  0.00     0.031 A 
HETATM    5  C   UNK N   1      21.198 -12.620   0.133  0.00  0.00     0.042 A 
HETATM    6  C   UNK N   1      21.446 -11.250  -0.041  0.00  0.00     0.031 A 
HETATM    7  C   UNK N   1      20.402 -10.329   0.034  0.00  0.00     0.012 A 
BRANCH   5   8
HETATM    8  N   UNK N   1      22.247 -13.568   0.083  0.00  0.00    -0.285 N 
HETATM    9  H   UNK N   1      22.021 -14.523   0.161  0.00  0.00     0.178 HD
BRANCH   8  10
HETATM   10  S   UNK N   1      23.938 -13.121  -0.110  0.00  0.00     0.227 S 
HETATM   11  C   UNK N   1      25.155 -14.460  -0.007  0.00  0.00     0.186 C 
HETATM   12  O   UNK N   1      24.178 -12.018   0.933  0.00  0.00    -0.206 OA
HETATM   13  O   UNK N   1      23.997 -12.346  -1.435  0.00  0.00    -0.206 OA
ENDBRANCH   8  10
ENDBRANCH   5   8
ENDBRANCH   1   2
BRANCH   1  14
HETATM   14  C   UNK N   1      16.846 -10.028  -0.587  0.00  0.00     0.038 C 
BRANCH  14  15
HETATM   15  C   UNK N   1      15.967 -11.173  -0.116  0.00  0.00     0.033 C 
BRANCH  15  16
HETATM   16  C   UNK N   1      14.626 -11.128  -0.824  0.00  0.00     0.272 C 
BRANCH  16  17
HETATM   17  N   UNK N   1      13.717 -10.219  -0.138  0.00  0.00     0.088 N 
BRANCH  17  18
HETATM   18  C   UNK N   1      13.836  -8.905  -0.751  0.00  0.00     0.268 C 
HETATM   19  C   UNK N   1      14.423  -7.926   0.246  0.00  0.00     0.037 C 
ENDBRANCH  17  18
BRANCH  17  20
HETATM   20  C   UNK N   1      12.377 -10.695  -0.420  0.00  0.00     0.272 C 
BRANCH  20  21
HETATM   21  C   UNK N   1      11.674 -11.032   0.881  0.00  0.00     0.030 C 
BRANCH  21  22
HETATM   22  C   UNK N   1      10.432 -11.860   0.609  0.00  0.00     0.002 C 
BRANCH  22  23
HETATM   23  C   UNK N   1       9.344 -11.007  -0.012  0.00  0.00     0.000 C 
BRANCH  23  24
HETATM   24  C   UNK N   1       8.060 -11.803  -0.056  0.00  0.00    -0.000 C 
BRANCH  24  25
HETATM   25  C   UNK N   1       6.891 -10.856  -0.207  0.00  0.00    -0.005 C 
HETATM   26  C   UNK N   1       5.599 -11.619  -0.007  0.00  0.00     0.005 C 
ENDBRANCH  24  25
ENDBRANCH  23  24
ENDBRANCH  22  23
ENDBRANCH  21  22
ENDBRANCH  20  21
ENDBRANCH  17  20
ENDBRANCH  16  17
ENDBRANCH  15  16
ENDBRANCH  14  15
ENDBRANCH   1  14
BRANCH   1  27
HETATM   27  O   UNK N   1      18.422  -8.459   0.240  0.00  0.00    -0.391 OA
HETATM   28  H   UNK N   1      19.368  -8.281   0.121  0.00  0.00     0.210 HD
ENDBRANCH   1  27
TORSDOF 15
