REMARK  14 active torsions:
REMARK  status: ('A' for Active; 'I' for Inactive)
REMARK    1  A    between atoms: C_1  and  C_3 
REMARK    2  A    between atoms: C_2  and  C_4 
REMARK    3  A    between atoms: C_3  and  C_5 
REMARK    4  A    between atoms: C_4  and  C_6 
REMARK    5  A    between atoms: C_7  and  C_9 
REMARK    6  A    between atoms: C_8  and  C_10 
REMARK    7  A    between atoms: C_9  and  C_11 
REMARK    8  A    between atoms: C_10  and  C_12 
REMARK    9  A    between atoms: C_11  and  C_13 
REMARK   10  A    between atoms: C_13  and  C_15 
REMARK   11  A    between atoms: C_14  and  C_16 
REMARK   12  A    between atoms: C_15  and  O_17 
REMARK   13  A    between atoms: C_16  and  C_19 
REMARK   14  A    between atoms: C_20  and  C_21 
ROOT
HETATM    1  C   UNK N   1      12.793 -10.377   1.215  0.00  0.00    -0.027 C 
HETATM    2  C   UNK N   1      13.926 -10.322   0.507  0.00  0.00    -0.027 C 
ENDROOT
BRANCH   2   3
HETATM    3  C   UNK N   1      14.076 -11.025  -0.810  0.00  0.00     0.053 C 
BRANCH   3   4
HETATM    4  C   UNK N   1      15.402 -10.726  -1.443  0.00  0.00    -0.027 C 
HETATM    5  C   UNK N   1      16.572 -11.079  -0.898  0.00  0.00    -0.027 C 
BRANCH   5   6
HETATM    6  C   UNK N   1      16.672 -11.789   0.418  0.00  0.00     0.053 C 
BRANCH   6   7
HETATM    7  C   UNK N   1      17.464 -10.964   1.387  0.00  0.00    -0.027 C 
HETATM    8  C   UNK N   1      18.788 -10.796   1.277  0.00  0.00    -0.027 C 
BRANCH   8   9
HETATM    9  C   UNK N   1      19.582 -11.455   0.194  0.00  0.00     0.053 C 
BRANCH   9  10
HETATM   10  C   UNK N   1      20.185 -10.418  -0.699  0.00  0.00    -0.027 C 
HETATM   11  C   UNK N   1      21.505 -10.323  -0.887  0.00  0.00    -0.031 C 
BRANCH  11  12
HETATM   12  C   UNK N   1      22.473 -11.245  -0.218  0.00  0.00     0.022 C 
HETATM   13  C   UNK N   1      23.884 -10.876  -0.619  0.00  0.00     0.009 C 
ENDBRANCH  11  12
ENDBRANCH   9  10
ENDBRANCH   8   9
ENDBRANCH   6   7
ENDBRANCH   5   6
ENDBRANCH   3   4
ENDBRANCH   2   3
BRANCH   1  14
HETATM   14  C   UNK N   1      11.577 -11.103   0.729  0.00  0.00     0.053 C 
BRANCH  14  15
HETATM   15  C   UNK N   1      10.946 -10.354  -0.407  0.00  0.00    -0.027 C 
HETATM   16  C   UNK N   1       9.881 -10.817  -1.073  0.00  0.00    -0.030 C 
BRANCH  16  17
HETATM   17  C   UNK N   1       9.222 -12.128  -0.757  0.00  0.00     0.027 C 
BRANCH  17  18
HETATM   18  C   UNK N   1       8.623 -12.099   0.643  0.00  0.00     0.014 C 
BRANCH  18  19
HETATM   19  C   UNK N   1       7.100 -12.121   0.623  0.00  0.00     0.110 C 
BRANCH  19  20
HETATM   20  C   UNK N   1       6.519 -10.940  -0.088  0.00  0.00     0.139 C 
HETATM   21  O   UNK N   1       6.804  -9.805   0.265  0.00  0.00    -0.650 OA
BRANCH  20  22
HETATM   22  O   UNK N   1       5.666 -11.130  -1.110  0.00  0.00    -0.776 OA
HETATM   23  H   UNK N   1       5.254 -10.682  -1.822  0.00  0.00     0.167 HD
ENDBRANCH  20  22
ENDBRANCH  19  20
ENDBRANCH  18  19
ENDBRANCH  17  18
ENDBRANCH  16  17
ENDBRANCH  14  15
ENDBRANCH   1  14
TORSDOF 14
