REMARK  5 active torsions:
REMARK  status: ('A' for Active; 'I' for Inactive)
REMARK    1  A    between atoms: C_16  and  C_13 
REMARK    2  A    between atoms: C_17  and  C_15 
REMARK    3  A    between atoms: C_18  and  C_15 
REMARK    4  A    between atoms: C_18  and  C_16 
REMARK    5  A    between atoms: N_19  and  C_17 
ROOT
HETATM    1  C   UNK N   1      -0.720   1.208   0.000  0.00  0.00     0.143 A 
HETATM    2  C   UNK N   1       4.829  -0.206   0.000  0.00  0.00     0.210 A 
HETATM    3  C   UNK N   1       2.676   0.626   0.000  0.00  0.00     0.001 A 
HETATM    4  C   UNK N   1       2.757  -0.195   0.000  0.00  0.00     0.001 A 
HETATM    5  C   UNK N   1       1.846   1.053   0.000  0.00  0.00     0.008 A 
HETATM    6  C   UNK N   1       2.749   1.135   0.000  0.00  0.00     0.010 A 
HETATM    7  C   UNK N   1       3.442   0.688   0.000  0.00  0.00     0.037 A 
HETATM    8  C   UNK N   1       2.087  -0.676   0.000  0.00  0.00     0.015 A 
HETATM    9  C   UNK N   1       0.540  -0.580   0.000  0.00  0.00     0.034 A 
HETATM   10  C   UNK N   1      -0.014   0.031   0.000  0.00  0.00     0.118 A 
HETATM   11  C   UNK N   1       1.461   1.369   0.000  0.00  0.00     0.064 A 
HETATM   12  C   UNK N   1       2.668  -0.513   0.000  0.00  0.00     0.045 A 
HETATM   13  C   UNK N   1       2.015   0.758   0.000  0.00  0.00    -0.049 A 
HETATM   14  C   UNK N   1       3.402  -0.136   0.000  0.00  0.00     0.068 A 
HETATM   15  C   UNK N   1       1.254   0.485   0.000  0.00  0.00     0.021 A 
HETATM   16  C   UNK N   1       1.975  -0.066   0.000  0.00  0.00    -0.040 A 
HETATM   17  C   UNK N   1       0.637   1.409   0.000  0.00  0.00     0.088 A 
HETATM   18  C   UNK N   1       1.335  -0.336   0.000  0.00  0.00    -0.006 A 
HETATM   19  N   UNK N   1       0.026   0.855   0.000  0.00  0.00    -0.412 N 
HETATM   20  O   UNK N   1       4.096  -0.583   0.000  0.00  0.00    -0.356 OA
ENDROOT
TORSDOF 5
