REMARK  3 active torsions:
REMARK  status: ('A' for Active; 'I' for Inactive)
REMARK    1  A    between atoms: C_1  and  N_2 
REMARK    2  A    between atoms: C_8  and  N_13 
REMARK       I    between atoms: C_9  and  N_14 
REMARK    3  A    between atoms: N_12  and  O_16 
ROOT
HETATM    1  C   UNK N   1      15.370 -10.137  -0.005  0.00  0.00     0.122 A 
HETATM    2  C   UNK N   1      15.418 -11.535  -0.003  0.00  0.00     0.099 A 
HETATM    3  N   UNK N   1      14.154  -9.519  -0.004  0.00  0.00    -0.175 N 
ATOM      4  HN  UNK N   1      14.112  -8.500  -0.007  1.00  0.00     0.186 HD
HETATM    5  C   UNK N   1      14.229 -12.256   0.000  0.00  0.00     0.148 A 
HETATM    6  C   UNK N   1      12.997 -10.236  -0.001  0.00  0.00     0.705 A 
HETATM    7  N   UNK N   1      13.034 -11.601   0.000  0.00  0.00    -0.036 N 
HETATM    8  N   UNK N   1      11.758  -9.561  -0.001  0.00  0.00    -0.232 N 
HETATM    9  H   UNK N   1      11.733  -8.576  -0.000  0.00  0.00     0.174 HD
HETATM   10  H   UNK N   1      10.917 -10.074  -0.001  0.00  0.00     0.174 HD
ENDROOT
BRANCH   1  11
HETATM   11  N   UNK N   1      16.577  -9.370  -0.013  0.00  0.00    -0.367 N 
HETATM   12  C   UNK N   1      17.852 -10.071   0.123  0.00  0.00     0.124 C 
HETATM   13  C   UNK N   1      19.065  -9.243  -0.282  0.00  0.00     0.020 C 
HETATM   14  C   UNK N   1      18.986  -7.869   0.340  0.00  0.00     0.003 C 
HETATM   15  C   UNK N   1      17.778  -7.176  -0.254  0.00  0.00     0.020 C 
HETATM   16  C   UNK N   1      16.486  -7.917   0.097  0.00  0.00     0.124 C 
ENDBRANCH   1  11
BRANCH   5  17
HETATM   17  N   UNK N   1      14.271 -13.666   0.001  0.00  0.00    -0.383 N 
HETATM   18  H   UNK N   1      13.434 -14.183   0.001  0.00  0.00     0.157 HD
HETATM   19  H   UNK N   1      15.138 -14.133   0.001  0.00  0.00     0.157 HD
ENDBRANCH   5  17
BRANCH   7  20
HETATM   20  O   UNK N   1      11.899 -12.296   0.001  0.00  0.00    -0.268 OA
ATOM     21  HO  UNK N   1      11.066 -11.840   0.001  1.00  0.00     0.246 HD
ENDBRANCH   7  20
TORSDOF 3
