REMARK  5 active torsions:
REMARK  status: ('A' for Active; 'I' for Inactive)
REMARK    1  A    between atoms: C_2  and  C_3 
REMARK    2  A    between atoms: C_3  and  C_4 
REMARK    3  A    between atoms: C_4  and  C_6 
REMARK    4  A    between atoms: C_6  and  C_7 
REMARK    5  A    between atoms: C_7  and  C_8 
ROOT
HETATM    1  C   UNK N   1       3.186  -2.056  -0.041  0.00  0.00     0.129 A 
HETATM    2  C   UNK N   1       3.300  -0.704  -0.744  0.00  0.00     0.244 A 
HETATM    3  O   UNK N   1       2.360  -0.280  -1.400  0.00  0.00    -0.272 OA
HETATM    4  N   UNK N   1       4.431   0.041  -0.670  0.00  0.00    -0.278 N 
HETATM    5  C   UNK N   1       5.524  -0.355   0.022  0.00  0.00     0.329 A 
HETATM    6  O   UNK N   1       6.515   0.357   0.038  0.00  0.00    -0.247 OA
HETATM    7  N   UNK N   1       5.537  -1.528   0.695  0.00  0.00    -0.278 N 
HETATM    8  C   UNK N   1       4.479  -2.375   0.713  0.00  0.00     0.244 A 
HETATM    9  O   UNK N   1       4.570  -3.414   1.350  0.00  0.00    -0.272 OA
HETATM   10  H   UNK N   1       4.457   0.906  -1.140  0.00  0.00     0.173 HD
HETATM   11  H   UNK N   1       6.350  -1.777   1.192  0.00  0.00     0.173 HD
ENDROOT
BRANCH   1  12
HETATM   12  C   UNK N   1       1.982  -2.050   0.961  0.00  0.00     0.009 C 
HETATM   13  C   UNK N   1       2.192  -1.049   2.090  0.00  0.00     0.011 C 
BRANCH  12  14
HETATM   14  C   UNK N   1       0.604  -1.767   0.339  0.00  0.00     0.005 C 
BRANCH  14  15
HETATM   15  C   UNK N   1       0.049  -2.913  -0.496  0.00  0.00    -0.004 C 
HETATM   16  C   UNK N   1      -0.502  -4.008   0.395  0.00  0.00     0.005 C 
ENDBRANCH  14  15
ENDBRANCH  12  14
ENDBRANCH   1  12
BRANCH   1  17
HETATM   17  C   UNK N   1       2.983  -3.129  -1.131  0.00  0.00     0.056 C 
BRANCH  17  18
HETATM   18  C   UNK N   1       2.793  -4.513  -0.581  0.00  0.00    -0.035 C 
HETATM   19  C   UNK N   1       2.532  -5.529  -1.394  0.00  0.00     0.007 C 
ENDBRANCH  17  18
ENDBRANCH   1  17
TORSDOF 5
