REMARK  23 active torsions:
REMARK  status: ('A' for Active; 'I' for Inactive)
REMARK    1  A    between atoms: C_7  and  C_6 
REMARK    2  A    between atoms: N_23  and  C_6 
REMARK    3  A    between atoms: N_24  and  C_7 
REMARK    4  A    between atoms: C_9  and  C_8 
REMARK    5  A    between atoms: N_23  and  C_8 
REMARK    6  A    between atoms: N_25  and  C_9 
REMARK    7  A    between atoms: C_18  and  C_10 
REMARK    8  A    between atoms: N_23  and  C_10 
REMARK    9  A    between atoms: C_19  and  C_11 
REMARK   10  A    between atoms: N_24  and  C_11 
REMARK   11  A    between atoms: C_20  and  C_12 
REMARK   12  A    between atoms: N_24  and  C_12 
REMARK   13  A    between atoms: C_21  and  C_13 
REMARK   14  A    between atoms: N_25  and  C_13 
REMARK   15  A    between atoms: C_16  and  C_14 
REMARK   16  A    between atoms: O_36  and  C_14 
REMARK   17  A    between atoms: C_17  and  C_15 
REMARK   18  A    between atoms: O_36  and  C_15 
REMARK   19  A    between atoms: C_22  and  C_17 
REMARK   20  A    between atoms: N_25  and  C_17 
REMARK   21  A    between atoms: O_33  and  C_21 
REMARK   22  A    between atoms: O_35  and  C_22 
REMARK   23  A    between atoms: Gd_37  and  Gd_37 
ROOT
HETATM    1 Gd   UNK N   1       1.196  -5.658  -0.985  0.00  0.00     0.000 Gd
ENDROOT
TORSDOF 23
