REMARK  5 active torsions:
REMARK  status: ('A' for Active; 'I' for Inactive)
REMARK    1  A    between atoms: C_3  and  O_7 
REMARK    2  A    between atoms: C_6  and  C_8 
REMARK    3  A    between atoms: C_8  and  C_9 
REMARK    4  A    between atoms: C_9  and  C_10 
REMARK    5  A    between atoms: C_17  and  O_20 
ROOT
HETATM    1  C   UNK N   1      -1.415  -0.952   0.007  0.00  0.00    -0.019 C 
HETATM    2  C   UNK N   1      -1.819   0.352   0.039  0.00  0.00    -0.018 C 
HETATM    3  C   UNK N   1      -1.250   1.724   0.090  0.00  0.00     0.037 C 
ENDROOT
BRANCH   1   4
HETATM    4  C   UNK N   1      -2.636  -1.877  -0.024  0.00  0.00    -0.025 A 
HETATM    5  C   UNK N   1      -3.940  -1.315   0.037  0.00  0.00     0.015 A 
HETATM    6  C   UNK N   1      -5.087  -2.111   0.017  0.00  0.00     0.037 A 
HETATM    7  C   UNK N   1      -4.966  -3.495  -0.064  0.00  0.00     0.065 A 
HETATM    8  C   UNK N   1      -3.702  -4.073  -0.131  0.00  0.00     0.037 A 
HETATM    9  C   UNK N   1      -2.563  -3.264  -0.115  0.00  0.00     0.015 A 
BRANCH   7  10
HETATM   10  O   UNK N   1      -6.062  -4.269  -0.078  0.00  0.00    -0.361 OA
HETATM   11  H   UNK N   1      -6.913  -3.876  -0.088  0.00  0.00     0.217 HD
ENDBRANCH   7  10
ENDBRANCH   1   4
BRANCH   1  12
HETATM   12  C   UNK N   1       0.096  -1.427   0.013  0.00  0.00    -0.019 C 
HETATM   13  C   UNK N   1       0.499  -2.731   0.052  0.00  0.00    -0.018 C 
HETATM   14  C   UNK N   1      -0.071  -4.103   0.103  0.00  0.00     0.037 C 
BRANCH  12  15
HETATM   15  C   UNK N   1       1.318  -0.503  -0.005  0.00  0.00    -0.025 A 
HETATM   16  C   UNK N   1       1.247   0.885  -0.081  0.00  0.00     0.015 A 
HETATM   17  C   UNK N   1       2.387   1.693  -0.087  0.00  0.00     0.037 A 
HETATM   18  C   UNK N   1       3.650   1.112  -0.023  0.00  0.00     0.065 A 
HETATM   19  C   UNK N   1       3.769  -0.273   0.044  0.00  0.00     0.037 A 
HETATM   20  C   UNK N   1       2.620  -1.067   0.053  0.00  0.00     0.015 A 
BRANCH  18  21
HETATM   21  O   UNK N   1       4.748   1.884  -0.027  0.00  0.00    -0.361 OA
HETATM   22  H   UNK N   1       5.598   1.490  -0.030  0.00  0.00     0.217 HD
ENDBRANCH  18  21
ENDBRANCH  12  15
ENDBRANCH   1  12
TORSDOF 5
