REMARK  5 active torsions:
REMARK  status: ('A' for Active; 'I' for Inactive)
REMARK    1  A    between atoms: C_8  and  C_2 
REMARK    2  A    between atoms: C_12  and  C_5 
REMARK    3  A    between atoms: O_11  and  C_6 
REMARK    4  A    between atoms: O_9  and  C_8 
REMARK    5  A    between atoms: C_12  and  O_13 
ROOT
HETATM    1  C   UNK N   1       0.956  -1.414   0.107  0.00  0.00     0.098 A 
HETATM    2  C   UNK N   1       1.258  -0.067  -0.103  0.00  0.00    -0.008 A 
HETATM    3  N   UNK N   1      -0.332  -1.833   0.211  0.00  0.00    -0.367 N 
ATOM      4  HN  UNK N   1      -0.521  -2.824   0.362  1.00  0.00     0.165 HD
HETATM    5  C   UNK N   1       0.190   0.861  -0.209  0.00  0.00     0.010 A 
HETATM    6  C   UNK N   1      -1.135   0.398  -0.090  0.00  0.00     0.096 A 
HETATM    7  C   UNK N   1      -1.372  -0.969   0.120  0.00  0.00     0.039 A 
HETATM    8  C   UNK N   1      -2.765  -1.492   0.229  0.00  0.00     0.071 C 
ENDROOT
BRANCH   2   9
HETATM    9  C   UNK N   1       2.721   0.287  -0.213  0.00  0.00     0.205 C 
BRANCH   9  10
HETATM   10  O   UNK N   1       2.992   1.643  -0.023  0.00  0.00    -0.396 OA
HETATM   11  H   UNK N   1       3.902   1.950   0.109  0.00  0.00     0.209 HD
ENDBRANCH   9  10
ENDBRANCH   2   9
BRANCH   5  12
HETATM   12  C   UNK N   1       0.440   2.317  -0.481  0.00  0.00     0.206 C 
BRANCH  12  13
HETATM   13  O   UNK N   1       0.124   3.087   0.638  0.00  0.00    -0.396 OA
HETATM   14  H   UNK N   1       0.477   3.545   1.417  0.00  0.00     0.209 HD
ENDBRANCH  12  13
ENDBRANCH   5  12
BRANCH   6  15
HETATM   15  O   UNK N   1      -2.169   1.255  -0.188  0.00  0.00    -0.358 OA
HETATM   16  H   UNK N   1      -2.012   2.176  -0.256  0.00  0.00     0.217 HD
ENDBRANCH   6  15
TORSDOF 5
