REMARK  0 active torsions:
REMARK  status: ('A' for Active; 'I' for Inactive)
ROOT
HETATM    1  C   UNK N   1      -1.322  -0.764  -0.000  0.00  0.00     0.122 A 
HETATM    2  C   UNK N   1      -0.000  -1.526  -0.000  0.00  0.00     0.122 A 
HETATM    3  C   UNK N   1       1.322  -0.764   0.000  0.00  0.00     0.122 A 
HETATM    4  C   UNK N   1      -1.322   0.764   0.000  0.00  0.00     0.122 A 
HETATM    5  C   UNK N   1       1.322   0.764  -0.000  0.00  0.00     0.122 A 
HETATM    6  C   UNK N   1       0.000   1.526   0.000  0.00  0.00     0.122 A 
HETATM    7 Cl   UNK N   1       2.863  -1.666  -0.000  0.00  0.00    -0.122 Cl
HETATM    8 Cl   UNK N   1       0.000   3.312  -0.000  0.00  0.00    -0.122 Cl
HETATM    9 Cl   UNK N   1      -2.863  -1.666   0.000  0.00  0.00    -0.122 Cl
HETATM   10 Cl   UNK N   1      -0.000  -3.312   0.000  0.00  0.00    -0.122 Cl
HETATM   11 Cl   UNK N   1      -2.863   1.666  -0.000  0.00  0.00    -0.122 Cl
HETATM   12 Cl   UNK N   1       2.863   1.666   0.000  0.00  0.00    -0.122 Cl
ENDROOT
TORSDOF 0
