REMARK  9 active torsions:
REMARK  status: ('A' for Active; 'I' for Inactive)
REMARK    1  A    between atoms: C_12  and  O_21 
REMARK    2  A    between atoms: C_15  and  C_22 
REMARK    3  A    between atoms: C_22  and  C_24 
REMARK    4  A    between atoms: C_24  and  O_25 
REMARK    5  A    between atoms: O_25  and  C_26 
REMARK    6  A    between atoms: C_26  and  C_28 
REMARK    7  A    between atoms: C_28  and  N_29 
REMARK    8  A    between atoms: N_29  and  C_30 
REMARK    9  A    between atoms: N_29  and  C_32 
ROOT
HETATM    1  C   UNK N   1       7.773 -12.943   0.901  0.00  0.00     0.022 C 
HETATM    2  C   UNK N   1       6.462 -13.326   0.199  0.00  0.00     0.084 C 
HETATM    3  C   UNK N   1       6.609 -14.585  -0.614  0.00  0.00     0.149 C 
HETATM    4  C   UNK N   1       7.936 -15.215  -0.805  0.00  0.00     0.053 C 
HETATM    5  C   UNK N   1       9.064 -14.565  -0.475  0.00  0.00    -0.068 C 
HETATM    6  C   UNK N   1       8.986 -13.100  -0.029  0.00  0.00    -0.014 C 
HETATM    7  C   UNK N   1      10.291 -12.699   0.691  0.00  0.00     0.031 C 
HETATM    8  C   UNK N   1      10.384 -15.318  -0.610  0.00  0.00     0.035 C 
HETATM    9  C   UNK N   1      11.660 -14.587  -0.141  0.00  0.00     0.010 C 
HETATM   10  C   UNK N   1      11.498 -13.076  -0.228  0.00  0.00    -0.002 C 
HETATM   11  C   UNK N   1      11.092 -10.213   0.414  0.00  0.00     0.045 C 
HETATM   12  C   UNK N   1      10.387 -11.250   1.265  0.00  0.00     0.124 C 
HETATM   13  C   UNK N   1      12.705 -12.235   0.201  0.00  0.00     0.002 C 
HETATM   14  C   UNK N   1      12.418 -10.751  -0.145  0.00  0.00     0.001 C 
HETATM   15  C   UNK N   1      13.700 -10.108   0.388  0.00  0.00     0.128 C 
HETATM   16  C   UNK N   1      14.089 -12.435  -0.403  0.00  0.00     0.009 C 
HETATM   17  C   UNK N   1      14.774 -11.055  -0.206  0.00  0.00     0.047 C 
HETATM   18  O   UNK N   1       5.618 -15.107  -1.097  0.00  0.00    -0.293 OA
HETATM   19  C   UNK N   1       8.773 -12.209  -1.258  0.00  0.00     0.020 C 
HETATM   20  C   UNK N   1      12.319 -10.531  -1.671  0.00  0.00     0.019 C 
HETATM   21  O   UNK N   1      13.757 -10.219   1.784  0.00  0.00    -0.381 OA
HETATM   22  H   UNK N   1      13.710 -10.291   2.750  0.00  0.00     0.211 HD
ENDROOT
BRANCH  15  23
HETATM   23  C   UNK N   1      13.801  -8.629   0.053  0.00  0.00     0.185 C 
HETATM   24  O   UNK N   1      12.983  -7.859   0.533  0.00  0.00    -0.292 OA
BRANCH  23  25
HETATM   25  C   UNK N   1      14.865  -8.059  -0.837  0.00  0.00     0.260 C 
BRANCH  25  26
HETATM   26  O   UNK N   1      16.112  -8.582  -0.576  0.00  0.00    -0.312 OA
BRANCH  26  27
HETATM   27  C   UNK N   1      16.767  -8.528   0.610  0.00  0.00     0.287 C 
HETATM   28  O   UNK N   1      16.264  -7.981   1.586  0.00  0.00    -0.263 OA
BRANCH  27  29
HETATM   29  C   UNK N   1      18.118  -9.163   0.727  0.00  0.00     0.382 C 
BRANCH  29  30
HETATM   30  N   UNK N   1      18.539  -9.659  -0.588  0.00  0.00     0.097 N 
BRANCH  30  31
HETATM   31  C   UNK N   1      19.460  -8.737  -1.267  0.00  0.00     0.268 C 
HETATM   32  C   UNK N   1      18.996  -7.286  -1.239  0.00  0.00     0.037 C 
ENDBRANCH  30  31
BRANCH  30  33
HETATM   33  C   UNK N   1      19.177 -10.970  -0.440  0.00  0.00     0.268 C 
HETATM   34  C   UNK N   1      20.517 -10.902   0.293  0.00  0.00     0.037 C 
ENDBRANCH  30  33
ENDBRANCH  29  30
ENDBRANCH  27  29
ENDBRANCH  26  27
ENDBRANCH  25  26
ENDBRANCH  23  25
ENDBRANCH  15  23
BRANCH  12  35
HETATM   35  O   UNK N   1       9.212 -10.762   1.836  0.00  0.00    -0.395 OA
HETATM   36  H   UNK N   1       9.097  -9.884   2.234  0.00  0.00     0.210 HD
ENDBRANCH  12  35
TORSDOF 9
