REMARK  1 active torsions:
REMARK  status: ('A' for Active; 'I' for Inactive)
REMARK    1  A    between atoms: O_1  and  N_3 
REMARK       I    between atoms: N_3  and  C_4 
ROOT
HETATM    1  O   UNK N   1       3.944   1.021   0.000  0.00  0.00    -0.272 OA
HETATM    2  N   UNK N   1       2.751  -0.866   0.000  0.00  0.00    -0.238 N 
HETATM    3  C   UNK N   1       3.925  -0.199   0.000  0.00  0.00     0.236 C 
HETATM    4  C   UNK N   1       5.204  -0.960  -0.000  0.00  0.00     0.119 C 
HETATM    5  H   UNK N   1       2.750  -1.851   0.000  0.00  0.00     0.197 HD
ENDROOT
BRANCH   2   6
HETATM    6  O   UNK N   1       1.587  -0.201   0.000  0.00  0.00    -0.287 OA
HETATM    7  H   UNK N   1       1.583   0.769  -0.000  0.00  0.00     0.244 HD
ENDBRANCH   2   6
TORSDOF 1
