REMARK  4 active torsions:
REMARK  status: ('A' for Active; 'I' for Inactive)
REMARK    1  A    between atoms: C_4  and  C_1 
REMARK    2  A    between atoms: O_9  and  C_2 
REMARK    3  A    between atoms: C_4  and  C_14 
REMARK    4  A    between atoms: O_21  and  C_15 
ROOT
HETATM    1  C   UNK N   1       4.685  -3.628  -0.000  0.00  0.00     0.095 C 
ENDROOT
BRANCH   1   2
HETATM    2  C   UNK N   1       3.221  -4.101   0.000  0.00  0.00     0.056 A 
HETATM    3  C   UNK N   1       2.238  -3.086  -0.000  0.00  0.00     0.091 A 
HETATM    4  C   UNK N   1       0.878  -3.426  -0.000  0.00  0.00     0.032 A 
HETATM    5  C   UNK N   1      -0.127  -2.447  -0.000  0.00  0.00     0.017 A 
HETATM    6  C   UNK N   1       0.520  -4.784   0.000  0.00  0.00     0.092 A 
HETATM    7  C   UNK N   1      -1.475  -2.825  -0.000  0.00  0.00     0.001 A 
HETATM    8  C   UNK N   1      -1.823  -4.179  -0.000  0.00  0.00     0.003 A 
HETATM    9  C   UNK N   1      -0.827  -5.157   0.000  0.00  0.00     0.038 A 
HETATM   10  O   UNK N   1       1.455  -5.717   0.000  0.00  0.00    -0.274 OA
HETATM   11  C   UNK N   1       2.756  -5.444   0.000  0.00  0.00     0.297 A 
HETATM   12  O   UNK N   1       3.521  -6.374   0.000  0.00  0.00    -0.259 OA
BRANCH   3  13
HETATM   13  O   UNK N   1       2.603  -1.788  -0.000  0.00  0.00    -0.359 OA
HETATM   14  H   UNK N   1       3.511  -1.557  -0.000  0.00  0.00     0.217 HD
ENDBRANCH   3  13
ENDBRANCH   1   2
BRANCH   1  15
HETATM   15  C   UNK N   1       6.154  -4.089  -0.000  0.00  0.00     0.056 A 
HETATM   16  C   UNK N   1       7.128  -3.066   0.000  0.00  0.00     0.091 A 
HETATM   17  C   UNK N   1       8.491  -3.394   0.000  0.00  0.00     0.032 A 
HETATM   18  C   UNK N   1       9.487  -2.406   0.000  0.00  0.00     0.017 A 
HETATM   19  C   UNK N   1       8.860  -4.749  -0.000  0.00  0.00     0.092 A 
HETATM   20  C   UNK N   1      10.838  -2.773   0.000  0.00  0.00     0.001 A 
HETATM   21  C   UNK N   1      11.198  -4.124   0.000  0.00  0.00     0.003 A 
HETATM   22  C   UNK N   1      10.210  -5.110  -0.000  0.00  0.00     0.038 A 
HETATM   23  O   UNK N   1       7.933  -5.690  -0.000  0.00  0.00    -0.274 OA
HETATM   24  C   UNK N   1       6.630  -5.428  -0.000  0.00  0.00     0.297 A 
HETATM   25  O   UNK N   1       5.873  -6.365  -0.000  0.00  0.00    -0.259 OA
BRANCH  16  26
HETATM   26  O   UNK N   1       6.751  -1.771   0.000  0.00  0.00    -0.359 OA
HETATM   27  H   UNK N   1       7.400  -1.095   0.000  0.00  0.00     0.217 HD
ENDBRANCH  16  26
ENDBRANCH   1  15
TORSDOF 4
