REMARK  4 active torsions:
REMARK  status: ('A' for Active; 'I' for Inactive)
REMARK    1  A    between atoms: C_14  and  O_20 
REMARK    2  A    between atoms: C_17  and  C_26 
REMARK    3  A    between atoms: C_26  and  C_27 
REMARK    4  A    between atoms: C_27  and  O_29 
ROOT
HETATM    1  C   UNK N   1      -4.420  -0.652   0.308  0.00  0.00     0.052 C 
HETATM    2  C   UNK N   1      -4.311  -2.019   0.836  0.00  0.00     0.172 C 
HETATM    3  C   UNK N   1      -3.024  -2.716   0.774  0.00  0.00     0.061 C 
HETATM    4  C   UNK N   1      -1.979  -2.166   0.133  0.00  0.00    -0.027 C 
HETATM    5  C   UNK N   1      -2.073  -0.825  -0.588  0.00  0.00     0.039 C 
HETATM    6  C   UNK N   1      -3.388  -0.097  -0.348  0.00  0.00    -0.006 C 
HETATM    7  C   UNK N   1      -0.705  -2.938  -0.024  0.00  0.00     0.201 C 
HETATM    8  C   UNK N   1       0.434  -2.068   0.446  0.00  0.00     0.050 C 
HETATM    9  C   UNK N   1       0.537  -0.763  -0.366  0.00  0.00     0.037 C 
HETATM   10  C   UNK N   1      -0.804   0.101  -0.338  0.00  0.00     0.147 C 
HETATM   11  C   UNK N   1       1.739  -0.008   0.261  0.00  0.00     0.005 C 
HETATM   12  C   UNK N   1       1.723   1.479  -0.020  0.00  0.00     0.001 C 
HETATM   13  C   UNK N   1       0.485   2.056   0.743  0.00  0.00     0.048 C 
HETATM   14  C   UNK N   1      -0.723   1.042   0.904  0.00  0.00     0.160 C 
HETATM   15  C   UNK N   1       3.136  -0.506  -0.085  0.00  0.00     0.013 C 
HETATM   16  C   UNK N   1       4.035   0.741  -0.064  0.00  0.00     0.025 C 
HETATM   17  C   UNK N   1       3.128   1.895   0.483  0.00  0.00     0.131 C 
HETATM   18  O   UNK N   1      -5.293  -2.584   1.294  0.00  0.00    -0.289 OA
HETATM   19  C   UNK N   1      -2.090  -1.195  -2.071  0.00  0.00     0.028 C 
HETATM   20  C   UNK N   1       1.632   1.783  -1.525  0.00  0.00     0.019 C 
HETATM   21  F   UNK N   1      -0.827   0.995  -1.402  0.00  0.00    -0.238 F 
HETATM   22  F   UNK N   1      -0.716  -4.132   0.676  0.00  0.00    -0.245 F 
HETATM   23  O   UNK N   1       3.158   1.810   1.882  0.00  0.00    -0.381 OA
HETATM   24  C   UNK N   1       4.516   0.898  -1.502  0.00  0.00     0.013 C 
HETATM   25  H   UNK N   1       3.118   1.763   2.850  0.00  0.00     0.211 HD
ENDROOT
BRANCH  17  26
HETATM   26  C   UNK N   1       3.514   3.330   0.115  0.00  0.00     0.185 C 
HETATM   27  O   UNK N   1       2.809   4.248   0.500  0.00  0.00    -0.292 OA
BRANCH  26  28
HETATM   28  C   UNK N   1       4.723   3.668  -0.707  0.00  0.00     0.245 C 
BRANCH  28  29
HETATM   29  O   UNK N   1       5.887   3.284  -0.041  0.00  0.00    -0.393 OA
HETATM   30  H   UNK N   1       6.060   2.449   0.423  0.00  0.00     0.209 HD
ENDBRANCH  28  29
ENDBRANCH  26  28
ENDBRANCH  17  26
BRANCH  14  31
HETATM   31  O   UNK N   1      -1.887   1.793   1.067  0.00  0.00    -0.392 OA
HETATM   32  H   UNK N   1      -1.840   2.755   1.180  0.00  0.00     0.210 HD
ENDBRANCH  14  31
TORSDOF 4
