REMARK  21 active torsions:
REMARK  status: ('A' for Active; 'I' for Inactive)
REMARK    1  A    between atoms: C_3  and  O_2 
REMARK    2  A    between atoms: C_5  and  O_11 
REMARK    3  A    between atoms: C_9  and  O_10 
REMARK    4  A    between atoms: C_12  and  O_11 
REMARK    5  A    between atoms: C_16  and  O_21 
REMARK    6  A    between atoms: C_18  and  O_19 
REMARK    7  A    between atoms: C_22  and  O_21 
REMARK    8  A    between atoms: C_32  and  O_33 
REMARK    9  A    between atoms: C_54  and  C_56 
REMARK   10  A    between atoms: C_60  and  O_61 
REMARK   11  A    between atoms: C_63  and  C_64 
REMARK   12  A    between atoms: C_66  and  C_64 
REMARK   13  A    between atoms: C_81  and  O_82 
REMARK   14  A    between atoms: C_83  and  O_82 
REMARK   15  A    between atoms: C_85  and  O_86 
REMARK   16  A    between atoms: C_88  and  O_89 
REMARK   17  A    between atoms: C_90  and  O_89 
REMARK   18  A    between atoms: C_92  and  O_93 
REMARK   19  A    between atoms: C_95  and  O_96 
REMARK   20  A    between atoms: C_112  and  O_113 
REMARK   21  A    between atoms: C_121  and  O_122 
ROOT
HETATM    1  C   UNK N   1      -1.883  -1.581  -0.599  0.00  0.00     0.160 C 
HETATM    2  C   UNK N   1      -2.830  -0.880  -1.595  0.00  0.00     0.037 C 
HETATM    3  C   UNK N   1      -4.285  -1.312  -1.475  0.00  0.00     0.017 C 
HETATM    4  C   UNK N   1      -2.582   0.600  -1.636  0.00  0.00    -0.020 C 
HETATM    5  C   UNK N   1      -3.317   1.615  -1.188  0.00  0.00    -0.003 C 
HETATM    6  C   UNK N   1      -4.668   1.630  -0.611  0.00  0.00     0.008 C 
HETATM    7  C   UNK N   1      -5.081   2.663   0.159  0.00  0.00    -0.019 C 
HETATM    8  C   UNK N   1      -6.516   2.996   0.270  0.00  0.00     0.206 C 
HETATM    9  O   UNK N   1      -6.565   4.411   0.068  0.00  0.00    -0.375 OA
HETATM   10  C   UNK N   1      -5.224   4.789  -0.229  0.00  0.00     0.194 C 
HETATM   11  C   UNK N   1      -4.871   6.268  -0.008  0.00  0.00     0.179 C 
HETATM   12  C   UNK N   1      -3.367   6.505  -0.045  0.00  0.00    -0.056 C 
HETATM   13  C   UNK N   1      -2.854   7.903  -0.101  0.00  0.00     0.046 C 
HETATM   14  C   UNK N   1      -2.469   5.499  -0.006  0.00  0.00    -0.004 C 
HETATM   15  C   UNK N   1      -2.859   4.044   0.098  0.00  0.00     0.150 C 
HETATM   16  C   UNK N   1      -1.881   3.298   0.986  0.00  0.00     0.270 C 
HETATM   17  O   UNK N   1      -2.256   2.790   2.036  0.00  0.00    -0.264 OA
HETATM   18  O   UNK N   1      -0.590   3.158   0.642  0.00  0.00    -0.315 OA
HETATM   19  C   UNK N   1      -0.090   3.350  -0.629  0.00  0.00     0.139 C 
HETATM   20  C   UNK N   1       0.517   2.032  -1.067  0.00  0.00     0.065 C 
HETATM   21  C   UNK N   1       1.566   1.584  -0.019  0.00  0.00     0.131 C 
HETATM   22  C   UNK N   1       1.115   0.424   0.865  0.00  0.00     0.059 C 
HETATM   23  C   UNK N   1      -0.227  -0.188   0.580  0.00  0.00    -0.019 C 
HETATM   24  C   UNK N   1      -0.515  -0.940  -0.497  0.00  0.00    -0.058 C 
HETATM   25  C   UNK N   1       0.505  -1.223  -1.553  0.00  0.00     0.046 C 
HETATM   26  O   UNK N   1       1.983   2.642   0.841  0.00  0.00    -0.349 OA
HETATM   27  C   UNK N   1       2.312   3.798   0.084  0.00  0.00     0.167 C 
HETATM   28  C   UNK N   1       2.829   4.908   1.041  0.00  0.00     0.069 C 
HETATM   29  C   UNK N   1       4.109   5.555   0.483  0.00  0.00     0.012 C 
HETATM   30  C   UNK N   1       5.173   4.488   0.172  0.00  0.00     0.011 C 
HETATM   31  C   UNK N   1       6.059   4.314   1.390  0.00  0.00     0.012 C 
HETATM   32  C   UNK N   1       4.455   3.174  -0.173  0.00  0.00     0.132 C 
HETATM   33  O   UNK N   1       3.287   3.465  -0.900  0.00  0.00    -0.349 OA
HETATM   34  C   UNK N   1       1.045   4.375  -0.581  0.00  0.00     0.101 C 
HETATM   35  C   UNK N   1      -4.325   3.874   0.534  0.00  0.00     0.128 C 
ENDROOT
BRANCH   1  36
HETATM   36  O   UNK N   1      -2.465  -1.788   0.671  0.00  0.00    -0.351 OA
BRANCH  36  37
HETATM   37  C   UNK N   1      -1.994  -3.016   1.213  0.00  0.00     0.263 C 
HETATM   38  O   UNK N   1      -1.805  -4.026   0.214  0.00  0.00    -0.354 OA
HETATM   39  C   UNK N   1      -0.846  -4.992   0.595  0.00  0.00     0.152 C 
HETATM   40  C   UNK N   1       0.555  -4.399   0.812  0.00  0.00     0.182 C 
HETATM   41  C   UNK N   1      -1.308  -5.821   1.788  0.00  0.00     0.042 C 
HETATM   42  C   UNK N   1       0.512  -3.040   1.507  0.00  0.00     0.157 C 
HETATM   43  C   UNK N   1      -0.821  -2.800   2.205  0.00  0.00     0.095 C 
BRANCH  40  44
HETATM   44  O   UNK N   1       1.261  -4.252  -0.397  0.00  0.00    -0.351 OA
BRANCH  44  45
HETATM   45  C   UNK N   1       2.087  -5.379  -0.630  0.00  0.00     0.263 C 
HETATM   46  C   UNK N   1       2.781  -6.023   0.609  0.00  0.00     0.095 C 
HETATM   47  C   UNK N   1       2.953  -7.530   0.389  0.00  0.00     0.156 C 
HETATM   48  C   UNK N   1       1.624  -8.185  -0.028  0.00  0.00     0.175 C 
HETATM   49  C   UNK N   1       0.733  -7.191  -0.780  0.00  0.00     0.151 C 
HETATM   50  O   UNK N   1       1.500  -6.295  -1.538  0.00  0.00    -0.354 OA
HETATM   51  C   UNK N   1      -0.308  -7.884  -1.636  0.00  0.00     0.042 C 
BRANCH  47  52
HETATM   52  O   UNK N   1       3.919  -7.752  -0.595  0.00  0.00    -0.388 OA
HETATM   53  C   UNK N   1       4.895  -8.525   0.037  0.00  0.00     0.202 C 
ENDBRANCH  47  52
BRANCH  48  54
HETATM   54  O   UNK N   1       0.939  -8.631   1.102  0.00  0.00    -0.390 OA
HETATM   55  H   UNK N   1       0.431  -8.374   1.887  0.00  0.00     0.210 HD
ENDBRANCH  48  54
ENDBRANCH  44  45
ENDBRANCH  40  44
BRANCH  42  56
HETATM   56  O   UNK N   1       1.585  -2.903   2.393  0.00  0.00    -0.388 OA
HETATM   57  C   UNK N   1       2.564  -2.190   1.695  0.00  0.00     0.202 C 
ENDBRANCH  42  56
ENDBRANCH  36  37
ENDBRANCH   1  36
BRANCH  35  58
HETATM   58  O   UNK N   1      -4.470   4.127   1.908  0.00  0.00    -0.381 OA
HETATM   59  H   UNK N   1      -4.369   4.302   2.857  0.00  0.00     0.211 HD
ENDBRANCH  35  58
BRANCH  11  60
HETATM   60  O   UNK N   1      -5.384   6.737   1.202  0.00  0.00    -0.389 OA
HETATM   61  H   UNK N   1      -5.280   7.208   2.044  0.00  0.00     0.210 HD
ENDBRANCH  11  60
BRANCH  32  62
HETATM   62  C   UNK N   1       5.279   2.028  -0.745  0.00  0.00     0.007 C 
HETATM   63  C   UNK N   1       4.371   0.899  -1.193  0.00  0.00     0.012 C 
HETATM   64  C   UNK N   1       6.156   1.478   0.358  0.00  0.00     0.012 C 
ENDBRANCH  32  62
TORSDOF 21
