REMARK  2 active torsions:
REMARK  status: ('A' for Active; 'I' for Inactive)
REMARK    1  A    between atoms: C_6  and  C_1 
REMARK       I    between atoms: N_8  and  C_6 
REMARK    2  A    between atoms: C_15  and  N_8 
ROOT
HETATM    1  C   UNK N   1       0.075  -0.263  -0.597  0.00  0.00     0.270 C 
HETATM    2  N   UNK N   1       1.348  -0.025  -1.018  0.00  0.00    -0.351 N 
HETATM    3  O   UNK N   1      -0.788   0.599  -0.666  0.00  0.00    -0.266 OA
HETATM    4  H   UNK N   1       1.995  -0.753  -0.876  0.00  0.00     0.163 HD
ENDROOT
BRANCH   1   5
HETATM    5  C   UNK N   1      -0.277  -1.614  -0.129  0.00  0.00     0.128 A 
HETATM    6  N   UNK N   1       0.623  -2.614   0.042  0.00  0.00    -0.293 N 
HETATM    7  N   UNK N   1      -0.041  -3.706   0.404  0.00  0.00    -0.295 N 
ATOM      8  HN  UNK N   1       1.632  -2.541  -0.084  1.00  0.00     0.187 HD
HETATM    9  C   UNK N   1       0.587  -4.990   0.661  0.00  0.00     0.178 C 
HETATM   10  C   UNK N   1      -1.354  -3.425   0.456  0.00  0.00     0.063 A 
HETATM   11  C   UNK N   1      -1.542  -2.111   0.134  0.00  0.00     0.026 A 
HETATM   12  C   UNK N   1      -2.416  -4.275   0.753  0.00  0.00     0.032 A 
HETATM   13  C   UNK N   1      -2.811  -1.541   0.080  0.00  0.00     0.016 A 
HETATM   14  C   UNK N   1      -3.911  -2.370   0.375  0.00  0.00     0.001 A 
HETATM   15  C   UNK N   1      -3.714  -3.732   0.709  0.00  0.00     0.002 A 
ENDBRANCH   1   5
BRANCH   2  16
HETATM   16  C   UNK N   1       1.866   1.179  -1.653  0.00  0.00     0.088 C 
HETATM   17  C   UNK N   1       0.848   2.290  -1.973  0.00  0.00     0.061 C 
HETATM   18  C   UNK N   1       0.731   3.415  -0.919  0.00  0.00     0.225 C 
HETATM   19  C   UNK N   1       0.923   4.747  -1.654  0.00  0.00     0.036 C 
HETATM   20  N   UNK N   1       1.741   3.338   0.147  0.00  0.00     0.093 N 
HETATM   21  C   UNK N   1       2.388   5.229  -1.637  0.00  0.00     0.004 C 
HETATM   22  C   UNK N   1       3.388   4.066  -1.572  0.00  0.00     0.036 C 
HETATM   23  C   UNK N   1       3.073   3.076  -0.429  0.00  0.00     0.225 C 
HETATM   24  C   UNK N   1       3.163   1.649  -0.982  0.00  0.00     0.061 C 
HETATM   25  C   UNK N   1       1.370   2.372   1.176  0.00  0.00     0.310 C 
ENDBRANCH   2  16
TORSDOF 2
