REMARK  5 active torsions:
REMARK  status: ('A' for Active; 'I' for Inactive)
REMARK    1  A    between atoms: C_4  and  O_21 
REMARK    2  A    between atoms: C_8  and  O_19 
REMARK    3  A    between atoms: N_12  and  C_22 
REMARK    4  A    between atoms: C_13  and  O_14 
REMARK    5  A    between atoms: C_22  and  C_23 
ROOT
HETATM    1  C   UNK N   1       0.035   1.297  -0.747  0.00  0.00    -0.046 A 
HETATM    2  C   UNK N   1      -0.843   0.548   0.015  0.00  0.00    -0.001 A 
HETATM    3  C   UNK N   1      -1.639   3.076  -0.713  0.00  0.00     0.040 A 
HETATM    4  C   UNK N   1      -2.509   2.247   0.034  0.00  0.00     0.099 A 
HETATM    5  C   UNK N   1      -2.067   0.969   0.370  0.00  0.00     0.110 A 
HETATM    6  C   UNK N   1      -0.369   2.591  -1.123  0.00  0.00     0.011 A 
HETATM    7  C   UNK N   1      -2.079  -1.229   0.822  0.00  0.00     0.174 C 
HETATM    8  C   UNK N   1      -2.741  -1.854  -0.433  0.00  0.00     0.148 C 
HETATM    9  C   UNK N   1      -1.832  -2.682  -1.341  0.00  0.00     0.037 C 
HETATM   10  C   UNK N   1      -0.596  -1.872  -1.739  0.00  0.00     0.044 C 
HETATM   11  C   UNK N   1       1.531  -0.828  -0.711  0.00  0.00     0.262 C 
HETATM   12  N   UNK N   1       2.254  -0.871   0.566  0.00  0.00     0.096 N 
HETATM   13  C   UNK N   1       0.218  -1.625  -0.476  0.00  0.00     0.103 C 
HETATM   14  C   UNK N   1       1.324   0.652  -1.217  0.00  0.00     0.078 C 
HETATM   15  C   UNK N   1      -0.598  -0.796   0.536  0.00  0.00     0.054 C 
HETATM   16  C   UNK N   1       0.194  -0.643   1.862  0.00  0.00     0.050 C 
HETATM   17  C   UNK N   1       1.614  -0.094   1.626  0.00  0.00     0.274 C 
HETATM   18  O   UNK N   1      -2.742  -0.007   0.996  0.00  0.00    -0.339 OA
ENDROOT
BRANCH  12  19
HETATM   19  C   UNK N   1       3.681  -0.642   0.422  0.00  0.00     0.277 C 
BRANCH  19  20
HETATM   20  C   UNK N   1       4.420  -1.845   1.010  0.00  0.00     0.014 A 
HETATM   21  C   UNK N   1       3.983  -3.139   0.340  0.00  0.00     0.006 A 
HETATM   22  C   UNK N   1       5.342  -3.268  -0.311  0.00  0.00     0.001 A 
HETATM   23  C   UNK N   1       5.784  -1.985   0.367  0.00  0.00     0.006 A 
ENDBRANCH  19  20
ENDBRANCH  12  19
BRANCH  13  24
HETATM   24  O   UNK N   1       0.541  -2.875   0.074  0.00  0.00    -0.386 OA
HETATM   25  H   UNK N   1      -0.095  -3.501   0.453  0.00  0.00     0.210 HD
ENDBRANCH  13  24
BRANCH   8  26
HETATM   26  O   UNK N   1      -3.864  -2.594  -0.064  0.00  0.00    -0.393 OA
HETATM   27  H   UNK N   1      -4.700  -2.175   0.193  0.00  0.00     0.210 HD
ENDBRANCH   8  26
BRANCH   4  28
HETATM   28  O   UNK N   1      -3.733   2.672   0.385  0.00  0.00    -0.358 OA
HETATM   29  H   UNK N   1      -3.903   3.560   0.630  0.00  0.00     0.217 HD
ENDBRANCH   4  28
TORSDOF 5
