REMARK  5 active torsions:
REMARK  status: ('A' for Active; 'I' for Inactive)
REMARK    1  A    between atoms: C_6  and  O_13 
REMARK    2  A    between atoms: C_16  and  C_17 
REMARK    3  A    between atoms: C_17  and  C_18 
REMARK    4  A    between atoms: C_18  and  C_19 
REMARK    5  A    between atoms: C_19  and  C_20 
ROOT
HETATM    1  C   UNK N   1       7.256  -5.558   0.421  0.00  0.00     0.054 C 
HETATM    2  C   UNK N   1       8.569  -6.271   0.108  0.00  0.00     0.017 A 
HETATM    3  C   UNK N   1       6.126  -6.375  -0.221  0.00  0.00     0.032 C 
HETATM    4  C   UNK N   1       7.192  -4.097   0.037  0.00  0.00    -0.014 C 
HETATM    5  C   UNK N   1       8.554  -7.685   0.164  0.00  0.00     0.080 A 
HETATM    6  C   UNK N   1       9.782  -5.609  -0.208  0.00  0.00     0.075 A 
HETATM    7  C   UNK N   1       6.128  -7.812   0.384  0.00  0.00     0.065 C 
HETATM    8  C   UNK N   1       4.783  -5.667  -0.028  0.00  0.00     0.013 C 
HETATM    9  C   UNK N   1       6.088  -3.519  -0.463  0.00  0.00    -0.087 C 
HETATM   10  O   UNK N   1       7.405  -8.367   0.397  0.00  0.00    -0.340 OA
HETATM   11  C   UNK N   1       9.732  -8.408  -0.037  0.00  0.00     0.044 A 
HETATM   12  C   UNK N   1      10.949  -6.355  -0.407  0.00  0.00     0.044 A 
HETATM   13  C   UNK N   1       4.796  -4.274  -0.662  0.00  0.00     0.034 C 
HETATM   14  C   UNK N   1       6.136  -2.077  -0.831  0.00  0.00     0.043 C 
HETATM   15  C   UNK N   1      10.926  -7.748  -0.306  0.00  0.00    -0.053 A 
HETATM   16  C   UNK N   1       5.609  -7.829   1.817  0.00  0.00     0.046 C 
HETATM   17  C   UNK N   1       5.223  -8.707  -0.446  0.00  0.00     0.046 C 
ENDROOT
BRANCH  15  18
HETATM   18  C   UNK N   1      12.179  -8.534  -0.459  0.00  0.00     0.039 C 
BRANCH  18  19
HETATM   19  C   UNK N   1      13.028  -8.376   0.793  0.00  0.00     0.005 C 
BRANCH  19  20
HETATM   20  C   UNK N   1      14.495  -8.315   0.425  0.00  0.00    -0.000 C 
BRANCH  20  21
HETATM   21  C   UNK N   1      14.821  -6.933  -0.107  0.00  0.00    -0.005 C 
HETATM   22  C   UNK N   1      16.152  -6.970  -0.823  0.00  0.00     0.005 C 
ENDBRANCH  20  21
ENDBRANCH  19  20
ENDBRANCH  18  19
ENDBRANCH  15  18
BRANCH   6  23
HETATM   23  O   UNK N   1       9.856  -4.271  -0.297  0.00  0.00    -0.360 OA
HETATM   24  H   UNK N   1      10.690  -3.849  -0.359  0.00  0.00     0.217 HD
ENDBRANCH   6  23
TORSDOF 5
