REMARK  11 active torsions:
REMARK  status: ('A' for Active; 'I' for Inactive)
REMARK       I    between atoms: C_2  and  N_1 
REMARK    1  A    between atoms: C_5  and  C_2 
REMARK    2  A    between atoms: C_3  and  C_6 
REMARK    3  A    between atoms: C_5  and  N_4 
REMARK    4  A    between atoms: C_8  and  N_4 
REMARK    5  A    between atoms: O_14  and  C_6 
REMARK    6  A    between atoms: C_8  and  C_7 
REMARK    7  A    between atoms: O_15  and  C_7 
REMARK    8  A    between atoms: C_12  and  C_8 
REMARK    9  A    between atoms: C_16  and  C_12 
REMARK   10  A    between atoms: C_21  and  O_15 
REMARK   11  A    between atoms: C_18  and  C_16 
ROOT
HETATM    1  N   UNK N   1       7.181  -4.488  -0.621  0.00  0.00    -0.397 N 
HETATM    2  H   UNK N   1       7.129  -4.909  -1.549  0.00  0.00     0.154 HD
ENDROOT
BRANCH   1   3
HETATM    3  C   UNK N   1       8.440  -4.076   0.007  0.00  0.00     0.166 C 
HETATM    4  C   UNK N   1       8.802  -2.718  -0.578  0.00  0.00     0.042 C 
BRANCH   3   5
HETATM    5  C   UNK N   1       9.542  -5.072  -0.338  0.00  0.00     0.242 C 
HETATM    6  N   UNK N   1      10.859  -4.833  -0.033  0.00  0.00    -0.336 N 
HETATM    7  C   UNK N   1      11.940  -5.652  -0.534  0.00  0.00     0.185 C 
HETATM    8  C   UNK N   1      11.291  -3.628   0.620  0.00  0.00     0.127 C 
HETATM    9  C   UNK N   1      13.204  -4.840  -0.278  0.00  0.00     0.038 C 
HETATM   10  C   UNK N   1      12.755  -3.484   0.253  0.00  0.00     0.022 C 
HETATM   11  O   UNK N   1       9.243  -6.085  -0.960  0.00  0.00    -0.271 OA
BRANCH   7  12
HETATM   12  C   UNK N   1      12.033  -7.009   0.129  0.00  0.00     0.163 C 
HETATM   13  O   UNK N   1      11.105  -7.796   0.050  0.00  0.00    -0.648 OA
BRANCH  12  14
HETATM   14  O   UNK N   1      13.163  -7.383   0.765  0.00  0.00    -0.775 OA
HETATM   15  H   UNK N   1      13.330  -8.192   1.207  0.00  0.00     0.167 HD
ENDBRANCH  12  14
ENDBRANCH   7  12
ENDBRANCH   3   5
ENDBRANCH   1   3
BRANCH   1  16
HETATM   16  C   UNK N   1       6.007  -4.236   0.215  0.00  0.00     0.178 C 
BRANCH  16  17
HETATM   17  C   UNK N   1       5.642  -2.762   0.282  0.00  0.00     0.281 C 
HETATM   18  O   UNK N   1       6.426  -1.968   0.783  0.00  0.00    -0.263 OA
BRANCH  17  19
HETATM   19  O   UNK N   1       4.427  -2.334  -0.153  0.00  0.00    -0.320 OA
BRANCH  19  20
HETATM   20  C   UNK N   1       4.040  -1.015  -0.080  0.00  0.00     0.174 C 
HETATM   21  C   UNK N   1       2.540  -0.914  -0.267  0.00  0.00     0.034 C 
ENDBRANCH  19  20
ENDBRANCH  17  19
ENDBRANCH  16  17
BRANCH  16  22
HETATM   22  C   UNK N   1       4.850  -5.030  -0.378  0.00  0.00     0.039 C 
BRANCH  22  23
HETATM   23  C   UNK N   1       4.272  -5.984   0.649  0.00  0.00     0.041 C 
BRANCH  23  24
HETATM   24  C   UNK N   1       2.846  -6.295   0.336  0.00  0.00    -0.058 A 
HETATM   25  C   UNK N   1       1.889  -5.271   0.331  0.00  0.00     0.007 A 
HETATM   26  C   UNK N   1       0.548  -5.565   0.069  0.00  0.00     0.001 A 
HETATM   27  C   UNK N   1       0.157  -6.883  -0.181  0.00  0.00     0.000 A 
HETATM   28  C   UNK N   1       1.109  -7.908  -0.174  0.00  0.00     0.001 A 
HETATM   29  C   UNK N   1       2.453  -7.615   0.085  0.00  0.00     0.007 A 
ENDBRANCH  23  24
ENDBRANCH  22  23
ENDBRANCH  16  22
ENDBRANCH   1  16
TORSDOF 11
