REMARK  3 active torsions:
REMARK  status: ('A' for Active; 'I' for Inactive)
REMARK    1  A    between atoms: O_1  and  C_5 
REMARK    2  A    between atoms: O_3  and  C_6 
REMARK    3  A    between atoms: C_4  and  C_6 
ROOT
HETATM    1  C   UNK N   1      14.712  -9.897  -0.000  0.00  0.00     0.070 A 
HETATM    2  C   UNK N   1      15.927 -10.625   0.000  0.00  0.00     0.082 A 
HETATM    3  C   UNK N   1      13.499 -10.602  -0.000  0.00  0.00     0.021 A 
HETATM    4  C   UNK N   1      15.899 -12.025   0.000  0.00  0.00     0.037 A 
HETATM    5  C   UNK N   1      13.483 -11.997  -0.000  0.00  0.00     0.001 A 
HETATM    6  C   UNK N   1      14.682 -12.708  -0.000  0.00  0.00     0.003 A 
ENDROOT
BRANCH   1   7
HETATM    7  C   UNK N   1      14.667  -8.411  -0.000  0.00  0.00     0.178 C 
HETATM    8  O   UNK N   1      13.587  -7.837  -0.000  0.00  0.00    -0.646 OA
BRANCH   7   9
HETATM    9  O   UNK N   1      15.797  -7.680   0.000  0.00  0.00    -0.773 OA
HETATM   10  H   UNK N   1      16.631  -8.107   0.000  0.00  0.00     0.167 HD
ENDBRANCH   7   9
ENDBRANCH   1   7
BRANCH   2  11
HETATM   11  O   UNK N   1      17.117  -9.998   0.000  0.00  0.00    -0.360 OA
HETATM   12  H   UNK N   1      17.909 -10.498   0.000  0.00  0.00     0.217 HD
ENDBRANCH   2  11
TORSDOF 3
