REMARK  1 active torsions:
REMARK  status: ('A' for Active; 'I' for Inactive)
REMARK    1  A    between atoms: O_2  and  C_3 
ROOT
HETATM    1  C   UNK N   1       2.878  -0.897   0.000  0.00  0.00     0.138 A 
HETATM    2  C   UNK N   1       4.207  -1.422   0.000  0.00  0.00     0.126 A 
HETATM    3  O   UNK N   1       5.271  -0.617  -0.000  0.00  0.00    -0.272 OA
HETATM    4  C   UNK N   1       6.522  -1.082  -0.000  0.00  0.00     0.288 A 
HETATM    5  O   UNK N   1       7.456  -0.302  -0.000  0.00  0.00    -0.260 OA
HETATM    6  C   UNK N   1       6.772  -2.456  -0.000  0.00  0.00     0.083 A 
HETATM    7  C   UNK N   1       5.699  -3.342  -0.000  0.00  0.00     0.020 A 
HETATM    8  C   UNK N   1       4.404  -2.839   0.000  0.00  0.00     0.002 A 
HETATM    9  C   UNK N   1       3.309  -3.718   0.000  0.00  0.00     0.028 A 
HETATM   10  C   UNK N   1       2.037  -3.164   0.000  0.00  0.00     0.003 A 
HETATM   11  C   UNK N   1       1.832  -1.818   0.000  0.00  0.00     0.121 A 
HETATM   12  O   UNK N   1       0.549  -1.566   0.000  0.00  0.00    -0.319 OA
HETATM   13  C   UNK N   1      -0.109  -2.713   0.000  0.00  0.00     0.143 A 
HETATM   14  C   UNK N   1       0.804  -3.770   0.000  0.00  0.00     0.039 A 
ENDROOT
BRANCH   1  15
HETATM   15  O   UNK N   1       2.573   0.427   0.000  0.00  0.00    -0.351 OA
HETATM   16  C   UNK N   1       3.487   1.454   0.000  0.00  0.00     0.210 C 
ENDBRANCH   1  15
TORSDOF 1
