MODEL 1
REMARK VINA RESULT:      -5.6      0.000      0.000
REMARK  8 active torsions:
REMARK  status: ('A' for Active; 'I' for Inactive)
REMARK    1  A    between atoms: N_2  and  C_9 
REMARK    2  A    between atoms: N_2  and  C_11 
REMARK    3  A    between atoms: N_2  and  C_12 
REMARK    4  A    between atoms: N_3  and  C_8 
REMARK    5  A    between atoms: N_3  and  C_13 
REMARK    6  A    between atoms: C_6  and  C_7 
REMARK    7  A    between atoms: C_6  and  C_8 
REMARK    8  A    between atoms: C_7  and  C_9 
ROOT
HETATM    1 Cl   UNK N   1      27.052  31.061  -2.832  0.00  0.00    -0.084 Cl
HETATM    2  N   UNK N   1      28.021  28.586  -7.201  0.00  0.00    -0.365 N 
ATOM      3  HN  UNK N   1      28.677  29.336  -7.417  1.00  0.00     0.165 HD
HETATM    4  C   UNK N   1      26.238  26.547  -6.618  0.00  0.00     0.042 A 
HETATM    5  C   UNK N   1      26.403  27.607  -5.718  0.00  0.00     0.017 A 
HETATM    6  C   UNK N   1      26.981  26.520  -7.801  0.00  0.00     0.047 A 
HETATM    7  C   UNK N   1      27.320  28.632  -6.037  0.00  0.00     0.046 A 
HETATM    8  C   UNK N   1      25.704  27.651  -4.505  0.00  0.00     0.018 A 
HETATM    9  C   UNK N   1      27.866  27.560  -8.083  0.00  0.00     0.090 A 
HETATM   10  C   UNK N   1      27.518  29.688  -5.143  0.00  0.00     0.054 A 
HETATM   11  C   UNK N   1      25.907  28.712  -3.619  0.00  0.00     0.025 A 
HETATM   12  C   UNK N   1      26.811  29.729  -3.939  0.00  0.00     0.036 A 
ENDROOT
BRANCH   4  13
HETATM   13  N   UNK N   1      25.411  25.454  -6.293  0.00  0.00    -0.385 N 
HETATM   14  H   UNK N   1      24.434  25.498  -6.405  0.00  0.00     0.160 HD
BRANCH  13  15
HETATM   15  C   UNK N   1      26.055  24.275  -5.792  0.00  0.00     0.077 C 
HETATM   16  C   UNK N   1      25.834  23.035  -6.642  0.00  0.00     0.032 C 
BRANCH  15  17
HETATM   17  C   UNK N   1      26.047  24.190  -4.267  0.00  0.00     0.026 C 
BRANCH  17  18
HETATM   18  C   UNK N   1      27.418  24.101  -3.627  0.00  0.00     0.032 C 
BRANCH  18  19
HETATM   19  C   UNK N   1      28.530  24.730  -4.477  0.00  0.00     0.272 C 
BRANCH  19  20
HETATM   20  N   UNK N   1      29.654  23.806  -4.682  0.00  0.00     0.087 N 
BRANCH  20  21
HETATM   21  C   UNK N   1      29.544  23.190  -6.011  0.00  0.00     0.268 C 
HETATM   22  C   UNK N   1      29.655  21.680  -5.915  0.00  0.00     0.037 C 
ENDBRANCH  20  21
BRANCH  20  23
HETATM   23  C   UNK N   1      29.618  22.842  -3.571  0.00  0.00     0.268 C 
HETATM   24  C   UNK N   1      30.736  22.979  -2.544  0.00  0.00     0.037 C 
ENDBRANCH  20  23
ENDBRANCH  19  20
ENDBRANCH  18  19
ENDBRANCH  17  18
ENDBRANCH  15  17
ENDBRANCH  13  15
ENDBRANCH   4  13
TORSDOF 8
ENDMDL
MODEL 2
REMARK VINA RESULT:      -5.1      1.748      2.702
REMARK  8 active torsions:
REMARK  status: ('A' for Active; 'I' for Inactive)
REMARK    1  A    between atoms: N_2  and  C_9 
REMARK    2  A    between atoms: N_2  and  C_11 
REMARK    3  A    between atoms: N_2  and  C_12 
REMARK    4  A    between atoms: N_3  and  C_8 
REMARK    5  A    between atoms: N_3  and  C_13 
REMARK    6  A    between atoms: C_6  and  C_7 
REMARK    7  A    between atoms: C_6  and  C_8 
REMARK    8  A    between atoms: C_7  and  C_9 
ROOT
HETATM    1 Cl   UNK N   1      30.148  30.046  -8.543  0.00  0.00    -0.084 Cl
HETATM    2  N   UNK N   1      27.047  29.632  -4.499  0.00  0.00    -0.365 N 
ATOM      3  HN  UNK N   1      27.453  30.506  -4.165  1.00  0.00     0.165 HD
HETATM    4  C   UNK N   1      25.940  27.257  -5.398  0.00  0.00     0.042 A 
HETATM    5  C   UNK N   1      26.940  27.888  -6.148  0.00  0.00     0.017 A 
HETATM    6  C   UNK N   1      25.501  27.834  -4.204  0.00  0.00     0.047 A 
HETATM    7  C   UNK N   1      27.485  29.100  -5.670  0.00  0.00     0.046 A 
HETATM    8  C   UNK N   1      27.381  27.360  -7.369  0.00  0.00     0.018 A 
HETATM    9  C   UNK N   1      26.076  29.025  -3.761  0.00  0.00     0.090 A 
HETATM   10  C   UNK N   1      28.467  29.760  -6.413  0.00  0.00     0.054 A 
HETATM   11  C   UNK N   1      28.365  28.026  -8.104  0.00  0.00     0.025 A 
HETATM   12  C   UNK N   1      28.908  29.223  -7.626  0.00  0.00     0.036 A 
ENDROOT
BRANCH   4  13
HETATM   13  N   UNK N   1      25.298  26.103  -5.888  0.00  0.00    -0.385 N 
HETATM   14  H   UNK N   1      24.411  26.150  -6.313  0.00  0.00     0.160 HD
BRANCH  13  15
HETATM   15  C   UNK N   1      25.994  24.858  -5.744  0.00  0.00     0.077 C 
HETATM   16  C   UNK N   1      25.703  23.850  -6.844  0.00  0.00     0.032 C 
BRANCH  15  17
HETATM   17  C   UNK N   1      26.128  24.412  -4.290  0.00  0.00     0.026 C 
BRANCH  17  18
HETATM   18  C   UNK N   1      27.532  24.495  -3.725  0.00  0.00     0.032 C 
BRANCH  18  19
HETATM   19  C   UNK N   1      28.616  24.621  -4.804  0.00  0.00     0.272 C 
BRANCH  19  20
HETATM   20  N   UNK N   1      29.915  24.113  -4.340  0.00  0.00     0.087 N 
BRANCH  20  21
HETATM   21  C   UNK N   1      30.412  23.107  -5.288  0.00  0.00     0.268 C 
HETATM   22  C   UNK N   1      29.284  22.578  -6.152  0.00  0.00     0.037 C 
ENDBRANCH  20  21
BRANCH  20  23
HETATM   23  C   UNK N   1      29.706  23.598  -2.977  0.00  0.00     0.268 C 
HETATM   24  C   UNK N   1      30.751  22.606  -2.480  0.00  0.00     0.037 C 
ENDBRANCH  20  23
ENDBRANCH  19  20
ENDBRANCH  18  19
ENDBRANCH  17  18
ENDBRANCH  15  17
ENDBRANCH  13  15
ENDBRANCH   4  13
TORSDOF 8
ENDMDL
MODEL 3
REMARK VINA RESULT:      -5.0      2.016      3.297
REMARK  8 active torsions:
REMARK  status: ('A' for Active; 'I' for Inactive)
REMARK    1  A    between atoms: N_2  and  C_9 
REMARK    2  A    between atoms: N_2  and  C_11 
REMARK    3  A    between atoms: N_2  and  C_12 
REMARK    4  A    between atoms: N_3  and  C_8 
REMARK    5  A    between atoms: N_3  and  C_13 
REMARK    6  A    between atoms: C_6  and  C_7 
REMARK    7  A    between atoms: C_6  and  C_8 
REMARK    8  A    between atoms: C_7  and  C_9 
ROOT
HETATM    1 Cl   UNK N   1      25.728  28.010  -3.414  0.00  0.00    -0.084 Cl
HETATM    2  N   UNK N   1      25.750  26.251  -8.216  0.00  0.00    -0.365 N 
ATOM      3  HN  UNK N   1      25.501  27.196  -8.506  1.00  0.00     0.165 HD
HETATM    4  C   UNK N   1      26.423  23.680  -7.434  0.00  0.00     0.042 A 
HETATM    5  C   UNK N   1      26.251  24.680  -6.468  0.00  0.00     0.017 A 
HETATM    6  C   UNK N   1      26.263  23.989  -8.786  0.00  0.00     0.047 A 
HETATM    7  C   UNK N   1      25.911  25.984  -6.893  0.00  0.00     0.046 A 
HETATM    8  C   UNK N   1      26.439  24.420  -5.105  0.00  0.00     0.018 A 
HETATM    9  C   UNK N   1      25.913  25.285  -9.162  0.00  0.00     0.090 A 
HETATM   10  C   UNK N   1      25.756  27.003  -5.950  0.00  0.00     0.054 A 
HETATM   11  C   UNK N   1      26.280  25.445  -4.168  0.00  0.00     0.025 A 
HETATM   12  C   UNK N   1      25.938  26.733  -4.591  0.00  0.00     0.036 A 
ENDROOT
BRANCH   4  13
HETATM   13  N   UNK N   1      26.862  22.395  -7.061  0.00  0.00    -0.385 N 
HETATM   14  H   UNK N   1      26.438  21.902  -6.322  0.00  0.00     0.160 HD
BRANCH  13  15
HETATM   15  C   UNK N   1      27.952  21.836  -7.806  0.00  0.00     0.077 C 
HETATM   16  C   UNK N   1      27.693  20.434  -8.332  0.00  0.00     0.032 C 
BRANCH  15  17
HETATM   17  C   UNK N   1      29.319  22.222  -7.247  0.00  0.00     0.026 C 
BRANCH  17  18
HETATM   18  C   UNK N   1      29.616  21.682  -5.862  0.00  0.00     0.032 C 
BRANCH  18  19
HETATM   19  C   UNK N   1      29.767  22.778  -4.799  0.00  0.00     0.272 C 
BRANCH  19  20
HETATM   20  N   UNK N   1      30.024  22.219  -3.465  0.00  0.00     0.087 N 
BRANCH  20  21
HETATM   21  C   UNK N   1      30.430  23.297  -2.553  0.00  0.00     0.268 C 
HETATM   22  C   UNK N   1      30.490  24.624  -3.284  0.00  0.00     0.037 C 
ENDBRANCH  20  21
BRANCH  20  23
HETATM   23  C   UNK N   1      31.038  21.166  -3.635  0.00  0.00     0.268 C 
HETATM   24  C   UNK N   1      32.385  21.437  -2.976  0.00  0.00     0.037 C 
ENDBRANCH  20  23
ENDBRANCH  19  20
ENDBRANCH  18  19
ENDBRANCH  17  18
ENDBRANCH  15  17
ENDBRANCH  13  15
ENDBRANCH   4  13
TORSDOF 8
ENDMDL
MODEL 4
REMARK VINA RESULT:      -5.0      2.659      4.502
REMARK  8 active torsions:
REMARK  status: ('A' for Active; 'I' for Inactive)
REMARK    1  A    between atoms: N_2  and  C_9 
REMARK    2  A    between atoms: N_2  and  C_11 
REMARK    3  A    between atoms: N_2  and  C_12 
REMARK    4  A    between atoms: N_3  and  C_8 
REMARK    5  A    between atoms: N_3  and  C_13 
REMARK    6  A    between atoms: C_6  and  C_7 
REMARK    7  A    between atoms: C_6  and  C_8 
REMARK    8  A    between atoms: C_7  and  C_9 
ROOT
HETATM    1 Cl   UNK N   1      25.709  25.666  -9.414  0.00  0.00    -0.084 Cl
HETATM    2  N   UNK N   1      25.345  27.327  -4.591  0.00  0.00    -0.365 N 
ATOM      3  HN  UNK N   1      24.377  27.009  -4.611  1.00  0.00     0.165 HD
HETATM    4  C   UNK N   1      27.975  28.197  -4.531  0.00  0.00     0.042 A 
HETATM    5  C   UNK N   1      27.459  27.617  -5.697  0.00  0.00     0.017 A 
HETATM    6  C   UNK N   1      27.161  28.325  -3.403  0.00  0.00     0.047 A 
HETATM    7  C   UNK N   1      26.116  27.178  -5.701  0.00  0.00     0.046 A 
HETATM    8  C   UNK N   1      28.253  27.437  -6.837  0.00  0.00     0.018 A 
HETATM    9  C   UNK N   1      25.837  27.892  -3.454  0.00  0.00     0.090 A 
HETATM   10  C   UNK N   1      25.586  26.576  -6.844  0.00  0.00     0.054 A 
HETATM   11  C   UNK N   1      27.713  26.835  -7.977  0.00  0.00     0.025 A 
HETATM   12  C   UNK N   1      26.383  26.407  -7.980  0.00  0.00     0.036 A 
ENDROOT
BRANCH   4  13
HETATM   13  N   UNK N   1      29.335  28.554  -4.451  0.00  0.00    -0.385 N 
HETATM   14  H   UNK N   1      29.731  29.209  -5.070  0.00  0.00     0.160 HD
BRANCH  13  15
HETATM   15  C   UNK N   1      30.117  27.920  -3.430  0.00  0.00     0.077 C 
HETATM   16  C   UNK N   1      30.656  28.874  -2.377  0.00  0.00     0.032 C 
BRANCH  15  17
HETATM   17  C   UNK N   1      30.973  26.771  -3.957  0.00  0.00     0.026 C 
BRANCH  17  18
HETATM   18  C   UNK N   1      30.393  25.389  -3.731  0.00  0.00     0.032 C 
BRANCH  18  19
HETATM   19  C   UNK N   1      29.912  24.712  -5.020  0.00  0.00     0.272 C 
BRANCH  19  20
HETATM   20  N   UNK N   1      28.885  23.693  -4.756  0.00  0.00     0.087 N 
BRANCH  20  21
HETATM   21  C   UNK N   1      27.863  23.745  -5.810  0.00  0.00     0.268 C 
HETATM   22  C   UNK N   1      28.230  22.827  -6.960  0.00  0.00     0.037 C 
ENDBRANCH  20  21
BRANCH  20  23
HETATM   23  C   UNK N   1      28.365  23.957  -3.405  0.00  0.00     0.268 C 
HETATM   24  C   UNK N   1      26.888  24.329  -3.329  0.00  0.00     0.037 C 
ENDBRANCH  20  23
ENDBRANCH  19  20
ENDBRANCH  18  19
ENDBRANCH  17  18
ENDBRANCH  15  17
ENDBRANCH  13  15
ENDBRANCH   4  13
TORSDOF 8
ENDMDL
MODEL 5
REMARK VINA RESULT:      -4.9     12.405     15.428
REMARK  8 active torsions:
REMARK  status: ('A' for Active; 'I' for Inactive)
REMARK    1  A    between atoms: N_2  and  C_9 
REMARK    2  A    between atoms: N_2  and  C_11 
REMARK    3  A    between atoms: N_2  and  C_12 
REMARK    4  A    between atoms: N_3  and  C_8 
REMARK    5  A    between atoms: N_3  and  C_13 
REMARK    6  A    between atoms: C_6  and  C_7 
REMARK    7  A    between atoms: C_6  and  C_8 
REMARK    8  A    between atoms: C_7  and  C_9 
ROOT
HETATM    1 Cl   UNK N   1      25.148  20.550   3.403  0.00  0.00    -0.084 Cl
HETATM    2  N   UNK N   1      27.668  19.411   7.705  0.00  0.00    -0.365 N 
ATOM      3  HN  UNK N   1      27.169  20.188   8.139  1.00  0.00     0.165 HD
HETATM    4  C   UNK N   1      29.028  17.302   6.532  0.00  0.00     0.042 A 
HETATM    5  C   UNK N   1      28.130  18.062   5.772  0.00  0.00     0.017 A 
HETATM    6  C   UNK N   1      29.225  17.608   7.880  0.00  0.00     0.047 A 
HETATM    7  C   UNK N   1      27.446  19.130   6.394  0.00  0.00     0.046 A 
HETATM    8  C   UNK N   1      27.876  17.764   4.427  0.00  0.00     0.018 A 
HETATM    9  C   UNK N   1      28.540  18.680   8.452  0.00  0.00     0.090 A 
HETATM   10  C   UNK N   1      26.528  19.887   5.662  0.00  0.00     0.054 A 
HETATM   11  C   UNK N   1      26.958  18.528   3.702  0.00  0.00     0.025 A 
HETATM   12  C   UNK N   1      26.287  19.588   4.318  0.00  0.00     0.036 A 
ENDROOT
BRANCH   4  13
HETATM   13  N   UNK N   1      29.651  16.168   5.978  0.00  0.00    -0.385 N 
HETATM   14  H   UNK N   1      29.126  15.407   5.639  0.00  0.00     0.160 HD
BRANCH  13  15
HETATM   15  C   UNK N   1      31.085  16.168   5.931  0.00  0.00     0.077 C 
HETATM   16  C   UNK N   1      31.676  17.196   4.980  0.00  0.00     0.032 C 
BRANCH  15  17
HETATM   17  C   UNK N   1      31.688  14.771   6.046  0.00  0.00     0.026 C 
BRANCH  17  18
HETATM   18  C   UNK N   1      32.493  14.528   7.307  0.00  0.00     0.032 C 
BRANCH  18  19
HETATM   19  C   UNK N   1      32.498  15.724   8.268  0.00  0.00     0.272 C 
BRANCH  19  20
HETATM   20  N   UNK N   1      33.797  15.887   8.936  0.00  0.00     0.087 N 
BRANCH  20  21
HETATM   21  C   UNK N   1      34.114  17.317   9.043  0.00  0.00     0.268 C 
HETATM   22  C   UNK N   1      34.125  17.969   7.675  0.00  0.00     0.037 C 
ENDBRANCH  20  21
BRANCH  20  23
HETATM   23  C   UNK N   1      34.775  15.114   8.155  0.00  0.00     0.268 C 
HETATM   24  C   UNK N   1      35.884  14.447   8.961  0.00  0.00     0.037 C 
ENDBRANCH  20  23
ENDBRANCH  19  20
ENDBRANCH  18  19
ENDBRANCH  17  18
ENDBRANCH  15  17
ENDBRANCH  13  15
ENDBRANCH   4  13
TORSDOF 8
ENDMDL
MODEL 6
REMARK VINA RESULT:      -4.9     12.282     15.031
REMARK  8 active torsions:
REMARK  status: ('A' for Active; 'I' for Inactive)
REMARK    1  A    between atoms: N_2  and  C_9 
REMARK    2  A    between atoms: N_2  and  C_11 
REMARK    3  A    between atoms: N_2  and  C_12 
REMARK    4  A    between atoms: N_3  and  C_8 
REMARK    5  A    between atoms: N_3  and  C_13 
REMARK    6  A    between atoms: C_6  and  C_7 
REMARK    7  A    between atoms: C_6  and  C_8 
REMARK    8  A    between atoms: C_7  and  C_9 
ROOT
HETATM    1 Cl   UNK N   1      27.051  13.732   2.079  0.00  0.00    -0.084 Cl
HETATM    2  N   UNK N   1      31.017  16.901   2.693  0.00  0.00    -0.365 N 
ATOM      3  HN  UNK N   1      30.930  17.115   1.700  1.00  0.00     0.165 HD
HETATM    4  C   UNK N   1      31.257  16.322   5.392  0.00  0.00     0.042 A 
HETATM    5  C   UNK N   1      30.268  15.689   4.628  0.00  0.00     0.017 A 
HETATM    6  C   UNK N   1      32.111  17.249   4.788  0.00  0.00     0.047 A 
HETATM    7  C   UNK N   1      30.164  16.004   3.255  0.00  0.00     0.046 A 
HETATM    8  C   UNK N   1      29.369  14.782   5.204  0.00  0.00     0.018 A 
HETATM    9  C   UNK N   1      31.982  17.520   3.426  0.00  0.00     0.090 A 
HETATM   10  C   UNK N   1      29.170  15.403   2.479  0.00  0.00     0.054 A 
HETATM   11  C   UNK N   1      28.380  14.184   4.419  0.00  0.00     0.025 A 
HETATM   12  C   UNK N   1      28.282  14.493   3.059  0.00  0.00     0.036 A 
ENDROOT
BRANCH   4  13
HETATM   13  N   UNK N   1      31.330  16.115   6.782  0.00  0.00    -0.385 N 
HETATM   14  H   UNK N   1      31.521  15.226   7.160  0.00  0.00     0.160 HD
BRANCH  13  15
HETATM   15  C   UNK N   1      31.111  17.254   7.625  0.00  0.00     0.077 C 
HETATM   16  C   UNK N   1      32.311  17.639   8.475  0.00  0.00     0.032 C 
BRANCH  15  17
HETATM   17  C   UNK N   1      29.696  17.316   8.195  0.00  0.00     0.026 C 
BRANCH  17  18
HETATM   18  C   UNK N   1      28.843  18.449   7.659  0.00  0.00     0.032 C 
BRANCH  18  19
HETATM   19  C   UNK N   1      28.096  18.092   6.368  0.00  0.00     0.272 C 
BRANCH  19  20
HETATM   20  N   UNK N   1      27.899  19.265   5.505  0.00  0.00     0.087 N 
BRANCH  20  21
HETATM   21  C   UNK N   1      26.833  20.108   6.062  0.00  0.00     0.268 C 
HETATM   22  C   UNK N   1      27.327  21.525   6.281  0.00  0.00     0.037 C 
ENDBRANCH  20  21
BRANCH  20  23
HETATM   23  C   UNK N   1      27.614  18.754   4.155  0.00  0.00     0.268 C 
HETATM   24  C   UNK N   1      26.194  18.985   3.650  0.00  0.00     0.037 C 
ENDBRANCH  20  23
ENDBRANCH  19  20
ENDBRANCH  18  19
ENDBRANCH  17  18
ENDBRANCH  15  17
ENDBRANCH  13  15
ENDBRANCH   4  13
TORSDOF 8
ENDMDL
MODEL 7
REMARK VINA RESULT:      -4.9     11.414     13.979
REMARK  8 active torsions:
REMARK  status: ('A' for Active; 'I' for Inactive)
REMARK    1  A    between atoms: N_2  and  C_9 
REMARK    2  A    between atoms: N_2  and  C_11 
REMARK    3  A    between atoms: N_2  and  C_12 
REMARK    4  A    between atoms: N_3  and  C_8 
REMARK    5  A    between atoms: N_3  and  C_13 
REMARK    6  A    between atoms: C_6  and  C_7 
REMARK    7  A    between atoms: C_6  and  C_8 
REMARK    8  A    between atoms: C_7  and  C_9 
ROOT
HETATM    1 Cl   UNK N   1      20.549  20.671   2.562  0.00  0.00    -0.084 Cl
HETATM    2  N   UNK N   1      22.973  16.904   5.028  0.00  0.00    -0.365 N 
ATOM      3  HN  UNK N   1      22.052  16.515   5.229  1.00  0.00     0.165 HD
HETATM    4  C   UNK N   1      25.479  17.956   4.488  0.00  0.00     0.042 A 
HETATM    5  C   UNK N   1      24.331  18.620   4.037  0.00  0.00     0.017 A 
HETATM    6  C   UNK N   1      25.352  16.761   5.201  0.00  0.00     0.047 A 
HETATM    7  C   UNK N   1      23.066  18.061   4.322  0.00  0.00     0.046 A 
HETATM    8  C   UNK N   1      24.418  19.800   3.287  0.00  0.00     0.018 A 
HETATM    9  C   UNK N   1      24.083  16.251   5.473  0.00  0.00     0.090 A 
HETATM   10  C   UNK N   1      21.908  18.694   3.862  0.00  0.00     0.054 A 
HETATM   11  C   UNK N   1      23.254  20.427   2.833  0.00  0.00     0.025 A 
HETATM   12  C   UNK N   1      22.003  19.876   3.121  0.00  0.00     0.036 A 
ENDROOT
BRANCH   4  13
HETATM   13  N   UNK N   1      26.760  18.423   4.138  0.00  0.00    -0.385 N 
HETATM   14  H   UNK N   1      27.014  18.571   3.198  0.00  0.00     0.160 HD
BRANCH  13  15
HETATM   15  C   UNK N   1      27.679  18.674   5.210  0.00  0.00     0.077 C 
HETATM   16  C   UNK N   1      27.402  19.953   5.981  0.00  0.00     0.032 C 
BRANCH  15  17
HETATM   17  C   UNK N   1      29.109  18.250   4.884  0.00  0.00     0.026 C 
BRANCH  17  18
HETATM   18  C   UNK N   1      29.533  16.925   5.486  0.00  0.00     0.032 C 
BRANCH  18  19
HETATM   19  C   UNK N   1      29.183  16.791   6.973  0.00  0.00     0.272 C 
BRANCH  19  20
HETATM   20  N   UNK N   1      30.236  17.342   7.838  0.00  0.00     0.087 N 
BRANCH  20  21
HETATM   21  C   UNK N   1      31.414  16.465   7.792  0.00  0.00     0.268 C 
HETATM   22  C   UNK N   1      32.664  17.261   7.473  0.00  0.00     0.037 C 
ENDBRANCH  20  21
BRANCH  20  23
HETATM   23  C   UNK N   1      29.649  17.486   9.180  0.00  0.00     0.268 C 
HETATM   24  C   UNK N   1      28.195  17.941   9.217  0.00  0.00     0.037 C 
ENDBRANCH  20  23
ENDBRANCH  19  20
ENDBRANCH  18  19
ENDBRANCH  17  18
ENDBRANCH  15  17
ENDBRANCH  13  15
ENDBRANCH   4  13
TORSDOF 8
ENDMDL
MODEL 8
REMARK VINA RESULT:      -4.8     15.234     18.042
REMARK  8 active torsions:
REMARK  status: ('A' for Active; 'I' for Inactive)
REMARK    1  A    between atoms: N_2  and  C_9 
REMARK    2  A    between atoms: N_2  and  C_11 
REMARK    3  A    between atoms: N_2  and  C_12 
REMARK    4  A    between atoms: N_3  and  C_8 
REMARK    5  A    between atoms: N_3  and  C_13 
REMARK    6  A    between atoms: C_6  and  C_7 
REMARK    7  A    between atoms: C_6  and  C_8 
REMARK    8  A    between atoms: C_7  and  C_9 
ROOT
HETATM    1 Cl   UNK N   1      23.148  11.865  12.421  0.00  0.00    -0.084 Cl
HETATM    2  N   UNK N   1      20.877  13.991   8.362  0.00  0.00    -0.365 N 
ATOM      3  HN  UNK N   1      20.008  13.951   8.894  1.00  0.00     0.165 HD
HETATM    4  C   UNK N   1      23.233  14.101   6.909  0.00  0.00     0.042 A 
HETATM    5  C   UNK N   1      23.234  13.557   8.200  0.00  0.00     0.017 A 
HETATM    6  C   UNK N   1      22.043  14.593   6.366  0.00  0.00     0.047 A 
HETATM    7  C   UNK N   1      22.021  13.516   8.921  0.00  0.00     0.046 A 
HETATM    8  C   UNK N   1      24.413  13.088   8.794  0.00  0.00     0.018 A 
HETATM    9  C   UNK N   1      20.865  14.520   7.107  0.00  0.00     0.090 A 
HETATM   10  C   UNK N   1      22.002  12.999  10.219  0.00  0.00     0.054 A 
HETATM   11  C   UNK N   1      24.384  12.571  10.092  0.00  0.00     0.025 A 
HETATM   12  C   UNK N   1      23.181  12.525  10.802  0.00  0.00     0.036 A 
ENDROOT
BRANCH   4  13
HETATM   13  N   UNK N   1      24.438  14.255   6.197  0.00  0.00    -0.385 N 
HETATM   14  H   UNK N   1      24.873  13.492   5.753  0.00  0.00     0.160 HD
BRANCH  13  15
HETATM   15  C   UNK N   1      25.002  15.572   6.146  0.00  0.00     0.077 C 
HETATM   16  C   UNK N   1      24.746  16.309   4.842  0.00  0.00     0.032 C 
BRANCH  15  17
HETATM   17  C   UNK N   1      26.354  15.672   6.849  0.00  0.00     0.026 C 
BRANCH  17  18
HETATM   18  C   UNK N   1      27.407  16.458   6.094  0.00  0.00     0.032 C 
BRANCH  18  19
HETATM   19  C   UNK N   1      28.595  16.881   6.967  0.00  0.00     0.272 C 
BRANCH  19  20
HETATM   20  N   UNK N   1      28.679  18.341   7.111  0.00  0.00     0.087 N 
BRANCH  20  21
HETATM   21  C   UNK N   1      28.187  18.730   8.440  0.00  0.00     0.268 C 
HETATM   22  C   UNK N   1      29.035  18.106   9.531  0.00  0.00     0.037 C 
ENDBRANCH  20  21
BRANCH  20  23
HETATM   23  C   UNK N   1      27.913  18.921   5.997  0.00  0.00     0.268 C 
HETATM   24  C   UNK N   1      27.316  20.300   6.255  0.00  0.00     0.037 C 
ENDBRANCH  20  23
ENDBRANCH  19  20
ENDBRANCH  18  19
ENDBRANCH  17  18
ENDBRANCH  15  17
ENDBRANCH  13  15
ENDBRANCH   4  13
TORSDOF 8
ENDMDL
MODEL 9
REMARK VINA RESULT:      -4.8     21.803     25.568
REMARK  8 active torsions:
REMARK  status: ('A' for Active; 'I' for Inactive)
REMARK    1  A    between atoms: N_2  and  C_9 
REMARK    2  A    between atoms: N_2  and  C_11 
REMARK    3  A    between atoms: N_2  and  C_12 
REMARK    4  A    between atoms: N_3  and  C_8 
REMARK    5  A    between atoms: N_3  and  C_13 
REMARK    6  A    between atoms: C_6  and  C_7 
REMARK    7  A    between atoms: C_6  and  C_8 
REMARK    8  A    between atoms: C_7  and  C_9 
ROOT
HETATM    1 Cl   UNK N   1      34.544   9.495  17.770  0.00  0.00    -0.084 Cl
HETATM    2  N   UNK N   1      36.572  13.724  15.730  0.00  0.00    -0.365 N 
ATOM      3  HN  UNK N   1      37.044  13.863  16.624  1.00  0.00     0.165 HD
HETATM    4  C   UNK N   1      35.292  13.351  13.302  0.00  0.00     0.042 A 
HETATM    5  C   UNK N   1      35.090  12.437  14.345  0.00  0.00     0.017 A 
HETATM    6  C   UNK N   1      36.146  14.439  13.492  0.00  0.00     0.047 A 
HETATM    7  C   UNK N   1      35.757  12.648  15.572  0.00  0.00     0.046 A 
HETATM    8  C   UNK N   1      34.270  11.313  14.182  0.00  0.00     0.018 A 
HETATM    9  C   UNK N   1      36.774  14.618  14.724  0.00  0.00     0.090 A 
HETATM   10  C   UNK N   1      35.588  11.737  16.618  0.00  0.00     0.054 A 
HETATM   11  C   UNK N   1      34.107  10.409  15.236  0.00  0.00     0.025 A 
HETATM   12  C   UNK N   1      34.763  10.623  16.451  0.00  0.00     0.036 A 
ENDROOT
BRANCH   4  13
HETATM   13  N   UNK N   1      34.728  13.122  12.032  0.00  0.00    -0.385 N 
HETATM   14  H   UNK N   1      33.760  12.987  11.917  0.00  0.00     0.160 HD
BRANCH  13  15
HETATM   15  C   UNK N   1      35.626  13.096  10.915  0.00  0.00     0.077 C 
HETATM   16  C   UNK N   1      35.406  14.216   9.912  0.00  0.00     0.032 C 
BRANCH  15  17
HETATM   17  C   UNK N   1      35.958  11.681  10.447  0.00  0.00     0.026 C 
BRANCH  17  18
HETATM   18  C   UNK N   1      36.931  10.929  11.333  0.00  0.00     0.032 C 
BRANCH  18  19
HETATM   19  C   UNK N   1      36.716   9.410  11.324  0.00  0.00     0.272 C 
BRANCH  19  20
HETATM   20  N   UNK N   1      37.313   8.764  12.501  0.00  0.00     0.087 N 
BRANCH  20  21
HETATM   21  C   UNK N   1      36.263   8.079  13.267  0.00  0.00     0.268 C 
HETATM   22  C   UNK N   1      35.063   7.783  12.388  0.00  0.00     0.037 C 
ENDBRANCH  20  21
BRANCH  20  23
HETATM   23  C   UNK N   1      38.012   9.817  13.254  0.00  0.00     0.268 C 
HETATM   24  C   UNK N   1      37.963   9.685  14.772  0.00  0.00     0.037 C 
ENDBRANCH  20  23
ENDBRANCH  19  20
ENDBRANCH  18  19
ENDBRANCH  17  18
ENDBRANCH  15  17
ENDBRANCH  13  15
ENDBRANCH   4  13
TORSDOF 8
ENDMDL
