REMARK  18 active torsions:
REMARK  status: ('A' for Active; 'I' for Inactive)
REMARK    1  A    between atoms: S_1  and  C_14 
REMARK    2  A    between atoms: S_1  and  C_22 
REMARK    3  A    between atoms: O_4  and  C_20 
REMARK    4  A    between atoms: O_4  and  C_31 
REMARK    5  A    between atoms: O_5  and  C_21 
REMARK    6  A    between atoms: O_5  and  C_32 
REMARK    7  A    between atoms: C_11  and  N_8 
REMARK       I    between atoms: N_8  and  C_18 
REMARK       I    between atoms: N_9  and  C_15 
REMARK    8  A    between atoms: C_16  and  N_9 
REMARK    9  A    between atoms: C_17  and  N_10 
REMARK   10  A    between atoms: C_11  and  C_14 
REMARK   11  A    between atoms: C_11  and  C_15 
REMARK   12  A    between atoms: C_12  and  C_13 
REMARK   13  A    between atoms: C_12  and  C_17 
REMARK   14  A    between atoms: C_13  and  C_18 
REMARK   15  A    between atoms: C_16  and  C_19 
REMARK   16  A    between atoms: C_16  and  C_20 
REMARK   17  A    between atoms: C_17  and  C_21 
REMARK   18  A    between atoms: C_22  and  C_25 
ROOT
HETATM    1  C   UNK N   1       4.693  -1.028  -0.080  0.00  0.00     0.185 C 
ENDROOT
BRANCH   1   2
HETATM    2  N   UNK N   1       4.998   0.195   0.620  0.00  0.00    -0.347 N 
HETATM    3  C   UNK N   1       5.484   1.285  -0.012  0.00  0.00     0.218 C 
HETATM    4  O   UNK N   1       5.745   1.249  -1.207  0.00  0.00    -0.274 OA
HETATM    5  H   UNK N   1       4.848   0.237   1.592  0.00  0.00     0.163 HD
BRANCH   3   6
HETATM    6  C   UNK N   1       5.744   2.523   0.771  0.00  0.00     0.105 C 
BRANCH   6   7
HETATM    7  C   UNK N   1       5.057   3.720   0.131  0.00  0.00     0.044 C 
BRANCH   7   8
HETATM    8  C   UNK N   1       5.649   5.037   0.623  0.00  0.00     0.175 C 
BRANCH   8   9
HETATM    9  N   UNK N   1       4.936   6.133  -0.012  0.00  0.00    -0.418 N 
HETATM   10  H   UNK N   1       5.352   6.951  -0.457  0.00  0.00     0.150 HD
HETATM   11  H   UNK N   1       3.917   6.078  -0.012  0.00  0.00     0.150 HD
ENDBRANCH   8   9
BRANCH   8  12
HETATM   12  C   UNK N   1       7.128   5.126   0.331  0.00  0.00     0.281 C 
HETATM   13  O   UNK N   1       7.895   4.335   0.864  0.00  0.00    -0.263 OA
BRANCH  12  14
HETATM   14  O   UNK N   1       7.606   6.083  -0.502  0.00  0.00    -0.320 OA
BRANCH  14  15
HETATM   15  C   UNK N   1       8.938   6.148  -0.845  0.00  0.00     0.174 C 
HETATM   16  C   UNK N   1       9.546   7.418  -0.291  0.00  0.00     0.034 C 
ENDBRANCH  14  15
ENDBRANCH  12  14
ENDBRANCH   8  12
ENDBRANCH   7   8
ENDBRANCH   6   7
ENDBRANCH   3   6
ENDBRANCH   1   2
BRANCH   1  17
HETATM   17  C   UNK N   1       5.661  -2.107   0.374  0.00  0.00     0.109 C 
BRANCH  17  18
HETATM   18  S   UNK N   1       6.716  -2.672  -0.985  0.00  0.00    -0.162 SA
BRANCH  18  19
HETATM   19  C   UNK N   1       8.089  -2.936   0.177  0.00  0.00     0.112 C 
BRANCH  19  20
HETATM   20  C   UNK N   1       9.077  -1.825   0.101  0.00  0.00    -0.049 A 
HETATM   21  C   UNK N   1       8.688  -0.503   0.357  0.00  0.00     0.008 A 
HETATM   22  C   UNK N   1       9.626   0.529   0.286  0.00  0.00     0.001 A 
HETATM   23  C   UNK N   1      10.958   0.242  -0.030  0.00  0.00     0.000 A 
HETATM   24  C   UNK N   1      11.350  -1.078  -0.276  0.00  0.00     0.001 A 
HETATM   25  C   UNK N   1      10.410  -2.110  -0.211  0.00  0.00     0.008 A 
ENDBRANCH  19  20
ENDBRANCH  18  19
ENDBRANCH  17  18
ENDBRANCH   1  17
BRANCH   1  26
HETATM   26  C   UNK N   1       3.328  -1.513   0.295  0.00  0.00     0.242 C 
HETATM   27  O   UNK N   1       2.695  -0.960   1.188  0.00  0.00    -0.271 OA
HETATM   28  N   UNK N   1       2.849  -2.632  -0.292  0.00  0.00    -0.342 N 
HETATM   29  H   UNK N   1       3.288  -2.967  -1.107  0.00  0.00     0.163 HD
BRANCH  28  30
HETATM   30  C   UNK N   1       1.716  -3.351   0.236  0.00  0.00     0.217 C 
BRANCH  30  31
HETATM   31  C   UNK N   1       2.023  -4.831   0.160  0.00  0.00    -0.026 A 
HETATM   32  C   UNK N   1       3.238  -5.285   0.702  0.00  0.00     0.010 A 
HETATM   33  C   UNK N   1       3.587  -6.635   0.635  0.00  0.00     0.001 A 
HETATM   34  C   UNK N   1       2.720  -7.549   0.034  0.00  0.00     0.000 A 
HETATM   35  C   UNK N   1       1.505  -7.112  -0.500  0.00  0.00     0.001 A 
HETATM   36  C   UNK N   1       1.160  -5.758  -0.443  0.00  0.00     0.010 A 
ENDBRANCH  30  31
BRANCH  30  37
HETATM   37  C   UNK N   1       0.418  -2.809  -0.322  0.00  0.00     0.286 C 
HETATM   38  O   UNK N   1      -0.370  -3.533  -0.913  0.00  0.00    -0.263 OA
BRANCH  37  39
HETATM   39  O   UNK N   1       0.131  -1.498  -0.127  0.00  0.00    -0.320 OA
BRANCH  39  40
HETATM   40  C   UNK N   1      -1.039  -0.917  -0.556  0.00  0.00     0.174 C 
HETATM   41  C   UNK N   1      -1.032   0.551  -0.184  0.00  0.00     0.034 C 
ENDBRANCH  39  40
ENDBRANCH  37  39
ENDBRANCH  30  37
ENDBRANCH  28  30
ENDBRANCH   1  26
TORSDOF 18
