REMARK  4 active torsions:
REMARK  status: ('A' for Active; 'I' for Inactive)
REMARK    1  A    between atoms: C_4  and  O_11 
REMARK    2  A    between atoms: N_7  and  O_8 
REMARK    3  A    between atoms: O_11  and  C_12 
REMARK    4  A    between atoms: C_12  and  C_14 
ROOT
HETATM    1  C   UNK N   1      -1.410   6.867   1.112  0.00  0.00     0.034 C 
HETATM    2  C   UNK N   1      -2.448   6.176   0.246  0.00  0.00     0.034 C 
HETATM    3  C   UNK N   1      -2.281   4.674   0.468  0.00  0.00     0.059 C 
HETATM    4  C   UNK N   1      -3.359   3.858  -0.251  0.00  0.00     0.135 C 
HETATM    5  C   UNK N   1      -4.732   4.351   0.199  0.00  0.00     0.059 C 
HETATM    6  C   UNK N   1      -4.920   5.861   0.030  0.00  0.00     0.034 C 
HETATM    7  N   UNK N   1      -3.803   6.596   0.671  0.00  0.00    -0.182 NA
HETATM    8  C   UNK N   1      -5.082   6.210  -1.448  0.00  0.00     0.034 C 
HETATM    9  C   UNK N   1      -6.218   6.221   0.730  0.00  0.00     0.034 C 
HETATM   10  C   UNK N   1      -2.148   6.536  -1.208  0.00  0.00     0.034 C 
ENDROOT
BRANCH   4  11
HETATM   11  O   UNK N   1      -3.259   2.528   0.110  0.00  0.00    -0.316 OA
BRANCH  11  12
HETATM   12  C   UNK N   1      -2.169   1.744  -0.105  0.00  0.00     0.263 C 
HETATM   13  O   UNK N   1      -1.192   2.177  -0.698  0.00  0.00    -0.265 OA
BRANCH  12  14
HETATM   14  C   UNK N   1      -2.148   0.353   0.451  0.00  0.00     0.085 A 
HETATM   15  C   UNK N   1      -1.897  -0.659  -0.652  0.00  0.00     0.015 A 
HETATM   16  C   UNK N   1      -3.299  -0.447  -0.132  0.00  0.00     0.015 A 
ENDBRANCH  12  14
ENDBRANCH  11  12
ENDBRANCH   4  11
BRANCH   7  17
HETATM   17  O   UNK N   1      -3.957   7.933   0.479  0.00  0.00    -0.312 OA
HETATM   18  H   UNK N   1      -3.185   8.505   0.341  0.00  0.00     0.237 HD
ENDBRANCH   7  17
TORSDOF 4
