MODEL 1
REMARK VINA RESULT:      -8.3      0.000      0.000
REMARK  13 active torsions:
REMARK  status: ('A' for Active; 'I' for Inactive)
REMARK    1  A    between atoms: C_2  and  O_3 
REMARK    2  A    between atoms: O_3  and  C_4 
REMARK       I    between atoms: C_4  and  N_6 
REMARK       I    between atoms: N_9  and  C_12 
REMARK    3  A    between atoms: C_12  and  C_14 
REMARK    4  A    between atoms: C_14  and  C_15 
REMARK    5  A    between atoms: C_14  and  N_26 
REMARK    6  A    between atoms: C_15  and  C_16 
REMARK    7  A    between atoms: C_20  and  C_22 
REMARK    8  A    between atoms: C_22  and  N_25 
REMARK    9  A    between atoms: N_26  and  S_27 
REMARK   10  A    between atoms: S_27  and  C_30 
REMARK   11  A    between atoms: C_31  and  C_42 
REMARK   12  A    between atoms: C_33  and  C_39 
REMARK   13  A    between atoms: C_35  and  C_36 
ROOT
HETATM    1  C   UNK N   1      25.305  16.961   4.321  0.00  0.00     0.189 C 
ENDROOT
BRANCH   1   2
HETATM    2  C   UNK N   1      24.639  15.639   4.019  0.00  0.00     0.243 C 
HETATM    3  N   UNK N   1      24.101  14.887   5.022  0.00  0.00    -0.347 N 
HETATM    4  C   UNK N   1      23.985  15.405   6.362  0.00  0.00     0.146 C 
HETATM    5  C   UNK N   1      23.417  13.649   4.737  0.00  0.00     0.146 C 
HETATM    6  C   UNK N   1      22.499  15.705   6.582  0.00  0.00     0.148 C 
HETATM    7  N   UNK N   1      21.677  14.552   6.231  0.00  0.00    -0.325 N 
HETATM    8  C   UNK N   1      20.640  14.119   7.023  0.00  0.00     0.362 C 
HETATM    9  C   UNK N   1      21.927  13.880   4.963  0.00  0.00     0.148 C 
HETATM   10  O   UNK N   1      20.009  13.128   6.682  0.00  0.00    -0.238 OA
HETATM   11  O   UNK N   1      24.515  15.279   2.856  0.00  0.00    -0.271 OA
BRANCH   8  12
HETATM   12  O   UNK N   1      20.257  14.747   8.173  0.00  0.00    -0.304 OA
BRANCH  12  13
HETATM   13  C   UNK N   1      20.303  14.238   9.451  0.00  0.00     0.176 C 
HETATM   14  C   UNK N   1      21.723  13.831   9.789  0.00  0.00     0.034 C 
ENDBRANCH  12  13
ENDBRANCH   8  12
ENDBRANCH   1   2
BRANCH   1  15
HETATM   15  C   UNK N   1      24.406  18.147   4.719  0.00  0.00     0.074 C 
BRANCH  15  16
HETATM   16  C   UNK N   1      23.272  18.716   3.922  0.00  0.00    -0.055 A 
HETATM   17  C   UNK N   1      23.466  19.967   3.329  0.00  0.00     0.007 A 
HETATM   18  C   UNK N   1      22.431  20.586   2.626  0.00  0.00     0.002 A 
HETATM   19  C   UNK N   1      21.185  19.961   2.527  0.00  0.00     0.015 A 
HETATM   20  C   UNK N   1      20.979  18.705   3.115  0.00  0.00     0.007 A 
HETATM   21  C   UNK N   1      22.030  18.088   3.802  0.00  0.00     0.022 A 
BRANCH  20  22
HETATM   22  C   UNK N   1      19.656  18.053   3.042  0.00  0.00     0.102 C 
HETATM   23  N   UNK N   1      18.721  18.563   2.327  0.00  0.00    -0.385 N 
HETATM   24  H   UNK N   1      18.847  19.443   1.904  0.00  0.00     0.157 HD
ATOM     25  HN  UNK N   1      17.845  18.056   2.196  1.00  0.00     0.157 HD
BRANCH  22  26
HETATM   26  N   UNK N   1      19.426  16.835   3.721  0.00  0.00    -0.385 N 
HETATM   27  H   UNK N   1      18.910  16.829   4.559  0.00  0.00     0.157 HD
HETATM   28  H   UNK N   1      19.782  15.993   3.356  0.00  0.00     0.157 HD
ENDBRANCH  22  26
ENDBRANCH  20  22
ENDBRANCH  15  16
ENDBRANCH   1  15
BRANCH   1  29
HETATM   29  N   UNK N   1      26.278  16.791   5.388  0.00  0.00    -0.301 N 
HETATM   30  H   UNK N   1      26.054  16.653   6.373  0.00  0.00     0.173 HD
BRANCH  29  31
HETATM   31  S   UNK N   1      27.913  16.863   4.710  0.00  0.00     0.260 S 
HETATM   32  O   UNK N   1      28.012  15.382   5.106  0.00  0.00    -0.200 OA
HETATM   33  O   UNK N   1      27.850  16.398   3.246  0.00  0.00    -0.200 OA
BRANCH  31  34
HETATM   34  C   UNK N   1      29.526  16.974   5.566  0.00  0.00     0.092 A 
HETATM   35  C   UNK N   1      30.735  16.635   4.894  0.00  0.00    -0.030 A 
HETATM   36  C   UNK N   1      31.941  16.615   5.621  0.00  0.00     0.016 A 
HETATM   37  C   UNK N   1      31.979  16.953   6.979  0.00  0.00    -0.054 A 
HETATM   38  C   UNK N   1      30.806  17.355   7.605  0.00  0.00     0.016 A 
HETATM   39  C   UNK N   1      29.586  17.364   6.925  0.00  0.00    -0.030 A 
BRANCH  35  40
HETATM   40  C   UNK N   1      30.745  16.299   3.416  0.00  0.00     0.012 C 
HETATM   41  C   UNK N   1      30.875  14.814   3.116  0.00  0.00     0.015 C 
HETATM   42  C   UNK N   1      31.909  17.005   2.734  0.00  0.00     0.015 C 
ENDBRANCH  35  40
BRANCH  37  43
HETATM   43  C   UNK N   1      33.248  16.898   7.794  0.00  0.00     0.010 C 
HETATM   44  C   UNK N   1      33.110  16.102   9.081  0.00  0.00     0.015 C 
HETATM   45  C   UNK N   1      33.720  18.300   8.144  0.00  0.00     0.015 C 
ENDBRANCH  37  43
BRANCH  39  46
HETATM   46  C   UNK N   1      28.368  17.793   7.670  0.00  0.00     0.012 C 
HETATM   47  C   UNK N   1      28.105  19.276   7.464  0.00  0.00     0.015 C 
HETATM   48  C   UNK N   1      28.481  17.487   9.152  0.00  0.00     0.015 C 
ENDBRANCH  39  46
ENDBRANCH  31  34
ENDBRANCH  29  31
ENDBRANCH   1  29
TORSDOF 13
ENDMDL
MODEL 2
REMARK VINA RESULT:      -8.3      0.359      2.653
REMARK  13 active torsions:
REMARK  status: ('A' for Active; 'I' for Inactive)
REMARK    1  A    between atoms: C_2  and  O_3 
REMARK    2  A    between atoms: O_3  and  C_4 
REMARK       I    between atoms: C_4  and  N_6 
REMARK       I    between atoms: N_9  and  C_12 
REMARK    3  A    between atoms: C_12  and  C_14 
REMARK    4  A    between atoms: C_14  and  C_15 
REMARK    5  A    between atoms: C_14  and  N_26 
REMARK    6  A    between atoms: C_15  and  C_16 
REMARK    7  A    between atoms: C_20  and  C_22 
REMARK    8  A    between atoms: C_22  and  N_25 
REMARK    9  A    between atoms: N_26  and  S_27 
REMARK   10  A    between atoms: S_27  and  C_30 
REMARK   11  A    between atoms: C_31  and  C_42 
REMARK   12  A    between atoms: C_33  and  C_39 
REMARK   13  A    between atoms: C_35  and  C_36 
ROOT
HETATM    1  C   UNK N   1      25.283  17.230   4.388  0.00  0.00     0.189 C 
ENDROOT
BRANCH   1   2
HETATM    2  C   UNK N   1      24.671  15.886   4.068  0.00  0.00     0.243 C 
HETATM    3  N   UNK N   1      24.130  15.117   5.056  0.00  0.00    -0.347 N 
HETATM    4  C   UNK N   1      23.958  15.631   6.392  0.00  0.00     0.146 C 
HETATM    5  C   UNK N   1      23.495  13.857   4.753  0.00  0.00     0.146 C 
HETATM    6  C   UNK N   1      22.457  15.880   6.569  0.00  0.00     0.148 C 
HETATM    7  N   UNK N   1      21.684  14.701   6.196  0.00  0.00    -0.325 N 
HETATM    8  C   UNK N   1      20.641  14.234   6.957  0.00  0.00     0.362 C 
HETATM    9  C   UNK N   1      21.993  14.037   4.935  0.00  0.00     0.148 C 
HETATM   10  O   UNK N   1      20.052  13.222   6.599  0.00  0.00    -0.238 OA
HETATM   11  O   UNK N   1      24.592  15.522   2.902  0.00  0.00    -0.271 OA
BRANCH   8  12
HETATM   12  O   UNK N   1      20.203  14.848   8.096  0.00  0.00    -0.304 OA
BRANCH  12  13
HETATM   13  C   UNK N   1      20.295  14.371   9.384  0.00  0.00     0.176 C 
HETATM   14  C   UNK N   1      21.697  13.859   9.641  0.00  0.00     0.034 C 
ENDBRANCH  12  13
ENDBRANCH   8  12
ENDBRANCH   1   2
BRANCH   1  15
HETATM   15  C   UNK N   1      24.332  18.394   4.724  0.00  0.00     0.074 C 
BRANCH  15  16
HETATM   16  C   UNK N   1      23.200  18.896   3.881  0.00  0.00    -0.055 A 
HETATM   17  C   UNK N   1      23.375  20.121   3.231  0.00  0.00     0.007 A 
HETATM   18  C   UNK N   1      22.339  20.681   2.481  0.00  0.00     0.002 A 
HETATM   19  C   UNK N   1      21.111  20.021   2.391  0.00  0.00     0.015 A 
HETATM   20  C   UNK N   1      20.923  18.791   3.035  0.00  0.00     0.007 A 
HETATM   21  C   UNK N   1      21.976  18.233   3.770  0.00  0.00     0.022 A 
BRANCH  20  22
HETATM   22  C   UNK N   1      19.618  18.103   2.971  0.00  0.00     0.102 C 
HETATM   23  N   UNK N   1      19.427  17.013   3.619  0.00  0.00    -0.385 N 
HETATM   24  H   UNK N   1      20.178  16.576   4.082  0.00  0.00     0.157 HD
ATOM     25  HN  UNK N   1      18.496  16.598   3.656  1.00  0.00     0.157 HD
BRANCH  22  26
HETATM   26  N   UNK N   1      18.553  18.668   2.232  0.00  0.00    -0.385 N 
HETATM   27  H   UNK N   1      18.446  19.646   2.193  0.00  0.00     0.157 HD
HETATM   28  H   UNK N   1      17.919  18.084   1.758  0.00  0.00     0.157 HD
ENDBRANCH  22  26
ENDBRANCH  20  22
ENDBRANCH  15  16
ENDBRANCH   1  15
BRANCH   1  29
HETATM   29  N   UNK N   1      26.204  17.099   5.506  0.00  0.00    -0.301 N 
HETATM   30  H   UNK N   1      25.934  17.036   6.487  0.00  0.00     0.173 HD
BRANCH  29  31
HETATM   31  S   UNK N   1      27.867  17.068   4.896  0.00  0.00     0.260 S 
HETATM   32  O   UNK N   1      27.816  15.560   5.185  0.00  0.00    -0.200 OA
HETATM   33  O   UNK N   1      27.828  16.715   3.401  0.00  0.00    -0.200 OA
BRANCH  31  34
HETATM   34  C   UNK N   1      29.444  16.969   5.818  0.00  0.00     0.092 A 
HETATM   35  C   UNK N   1      29.513  17.342   7.190  0.00  0.00    -0.030 A 
HETATM   36  C   UNK N   1      30.767  17.370   7.832  0.00  0.00     0.016 A 
HETATM   37  C   UNK N   1      31.939  17.008   7.156  0.00  0.00    -0.054 A 
HETATM   38  C   UNK N   1      31.849  16.575   5.839  0.00  0.00     0.016 A 
HETATM   39  C   UNK N   1      30.628  16.556   5.162  0.00  0.00    -0.030 A 
BRANCH  35  40
HETATM   40  C   UNK N   1      28.265  17.705   7.971  0.00  0.00     0.012 C 
HETATM   41  C   UNK N   1      27.945  19.191   7.977  0.00  0.00     0.015 C 
HETATM   42  C   UNK N   1      28.416  17.265   9.420  0.00  0.00     0.015 C 
ENDBRANCH  35  40
BRANCH  37  43
HETATM   43  C   UNK N   1      33.301  17.071   7.802  0.00  0.00     0.010 C 
HETATM   44  C   UNK N   1      33.775  18.487   8.086  0.00  0.00     0.015 C 
HETATM   45  C   UNK N   1      34.339  16.382   6.930  0.00  0.00     0.015 C 
ENDBRANCH  37  43
BRANCH  39  46
HETATM   46  C   UNK N   1      30.616  16.093   3.745  0.00  0.00     0.012 C 
HETATM   47  C   UNK N   1      30.827  14.589   3.669  0.00  0.00     0.015 C 
HETATM   48  C   UNK N   1      31.665  16.807   2.913  0.00  0.00     0.015 C 
ENDBRANCH  39  46
ENDBRANCH  31  34
ENDBRANCH  29  31
ENDBRANCH   1  29
TORSDOF 13
ENDMDL
MODEL 3
REMARK VINA RESULT:      -8.3      2.362      3.192
REMARK  13 active torsions:
REMARK  status: ('A' for Active; 'I' for Inactive)
REMARK    1  A    between atoms: C_2  and  O_3 
REMARK    2  A    between atoms: O_3  and  C_4 
REMARK       I    between atoms: C_4  and  N_6 
REMARK       I    between atoms: N_9  and  C_12 
REMARK    3  A    between atoms: C_12  and  C_14 
REMARK    4  A    between atoms: C_14  and  C_15 
REMARK    5  A    between atoms: C_14  and  N_26 
REMARK    6  A    between atoms: C_15  and  C_16 
REMARK    7  A    between atoms: C_20  and  C_22 
REMARK    8  A    between atoms: C_22  and  N_25 
REMARK    9  A    between atoms: N_26  and  S_27 
REMARK   10  A    between atoms: S_27  and  C_30 
REMARK   11  A    between atoms: C_31  and  C_42 
REMARK   12  A    between atoms: C_33  and  C_39 
REMARK   13  A    between atoms: C_35  and  C_36 
ROOT
HETATM    1  C   UNK N   1      24.195  16.143   5.116  0.00  0.00     0.189 C 
ENDROOT
BRANCH   1   2
HETATM    2  C   UNK N   1      22.911  16.742   5.640  0.00  0.00     0.243 C 
HETATM    3  N   UNK N   1      21.888  15.940   6.053  0.00  0.00    -0.347 N 
HETATM    4  C   UNK N   1      22.062  14.514   6.176  0.00  0.00     0.146 C 
HETATM    5  C   UNK N   1      20.679  16.502   6.605  0.00  0.00     0.146 C 
HETATM    6  C   UNK N   1      22.125  14.215   7.677  0.00  0.00     0.148 C 
HETATM    7  N   UNK N   1      20.998  14.819   8.377  0.00  0.00    -0.325 N 
HETATM    8  C   UNK N   1      20.273  14.142   9.328  0.00  0.00     0.362 C 
HETATM    9  C   UNK N   1      20.674  16.214   8.101  0.00  0.00     0.148 C 
HETATM   10  O   UNK N   1      19.322  14.701   9.858  0.00  0.00    -0.238 OA
HETATM   11  O   UNK N   1      22.820  17.956   5.767  0.00  0.00    -0.271 OA
BRANCH   8  12
HETATM   12  O   UNK N   1      20.565  12.873   9.737  0.00  0.00    -0.304 OA
BRANCH  12  13
HETATM   13  C   UNK N   1      21.108  12.493  10.943  0.00  0.00     0.176 C 
HETATM   14  C   UNK N   1      22.502  11.940  10.726  0.00  0.00     0.034 C 
ENDBRANCH  12  13
ENDBRANCH   8  12
ENDBRANCH   1   2
BRANCH   1  15
HETATM   15  C   UNK N   1      24.433  16.166   3.594  0.00  0.00     0.074 C 
BRANCH  15  16
HETATM   16  C   UNK N   1      23.783  15.282   2.574  0.00  0.00    -0.055 A 
HETATM   17  C   UNK N   1      24.622  14.581   1.702  0.00  0.00     0.007 A 
HETATM   18  C   UNK N   1      24.085  13.789   0.686  0.00  0.00     0.002 A 
HETATM   19  C   UNK N   1      22.700  13.707   0.526  0.00  0.00     0.015 A 
HETATM   20  C   UNK N   1      21.848  14.403   1.395  0.00  0.00     0.007 A 
HETATM   21  C   UNK N   1      22.399  15.180   2.421  0.00  0.00     0.022 A 
BRANCH  20  22
HETATM   22  C   UNK N   1      20.384  14.346   1.213  0.00  0.00     0.102 C 
HETATM   23  N   UNK N   1      19.849  13.383   0.555  0.00  0.00    -0.385 N 
HETATM   24  H   UNK N   1      20.418  12.731   0.085  0.00  0.00     0.157 HD
ATOM     25  HN  UNK N   1      18.834  13.291   0.520  1.00  0.00     0.157 HD
BRANCH  22  26
HETATM   26  N   UNK N   1      19.555  15.328   1.802  0.00  0.00    -0.385 N 
HETATM   27  H   UNK N   1      18.772  15.056   2.333  0.00  0.00     0.157 HD
HETATM   28  H   UNK N   1      19.761  16.283   1.681  0.00  0.00     0.157 HD
ENDBRANCH  22  26
ENDBRANCH  20  22
ENDBRANCH  15  16
ENDBRANCH   1  15
BRANCH   1  29
HETATM   29  N   UNK N   1      25.335  16.802   5.732  0.00  0.00    -0.301 N 
HETATM   30  H   UNK N   1      25.329  17.739   6.133  0.00  0.00     0.173 HD
BRANCH  29  31
HETATM   31  S   UNK N   1      26.738  15.721   5.679  0.00  0.00     0.260 S 
HETATM   32  O   UNK N   1      26.699  15.792   7.213  0.00  0.00    -0.200 OA
HETATM   33  O   UNK N   1      26.238  14.273   5.800  0.00  0.00    -0.200 OA
BRANCH  31  34
HETATM   34  C   UNK N   1      28.511  16.099   5.924  0.00  0.00     0.092 A 
HETATM   35  C   UNK N   1      29.520  15.234   5.415  0.00  0.00    -0.030 A 
HETATM   36  C   UNK N   1      30.869  15.492   5.729  0.00  0.00     0.016 A 
HETATM   37  C   UNK N   1      31.237  16.601   6.502  0.00  0.00    -0.054 A 
HETATM   38  C   UNK N   1      30.250  17.479   6.930  0.00  0.00     0.016 A 
HETATM   39  C   UNK N   1      28.900  17.244   6.660  0.00  0.00    -0.030 A 
BRANCH  35  40
HETATM   40  C   UNK N   1      29.170  14.044   4.542  0.00  0.00     0.012 C 
HETATM   41  C   UNK N   1      30.196  12.922   4.578  0.00  0.00     0.015 C 
HETATM   42  C   UNK N   1      29.032  14.489   3.094  0.00  0.00     0.015 C 
ENDBRANCH  35  40
BRANCH  37  43
HETATM   43  C   UNK N   1      32.668  16.879   6.892  0.00  0.00     0.010 C 
HETATM   44  C   UNK N   1      32.804  17.851   8.052  0.00  0.00     0.015 C 
HETATM   45  C   UNK N   1      33.446  17.430   5.708  0.00  0.00     0.015 C 
ENDBRANCH  37  43
BRANCH  39  46
HETATM   46  C   UNK N   1      27.899  18.225   7.167  0.00  0.00     0.012 C 
HETATM   47  C   UNK N   1      27.805  19.426   6.238  0.00  0.00     0.015 C 
HETATM   48  C   UNK N   1      28.227  18.684   8.576  0.00  0.00     0.015 C 
ENDBRANCH  39  46
ENDBRANCH  31  34
ENDBRANCH  29  31
ENDBRANCH   1  29
TORSDOF 13
ENDMDL
MODEL 4
REMARK VINA RESULT:      -8.2      2.494      3.877
REMARK  13 active torsions:
REMARK  status: ('A' for Active; 'I' for Inactive)
REMARK    1  A    between atoms: C_2  and  O_3 
REMARK    2  A    between atoms: O_3  and  C_4 
REMARK       I    between atoms: C_4  and  N_6 
REMARK       I    between atoms: N_9  and  C_12 
REMARK    3  A    between atoms: C_12  and  C_14 
REMARK    4  A    between atoms: C_14  and  C_15 
REMARK    5  A    between atoms: C_14  and  N_26 
REMARK    6  A    between atoms: C_15  and  C_16 
REMARK    7  A    between atoms: C_20  and  C_22 
REMARK    8  A    between atoms: C_22  and  N_25 
REMARK    9  A    between atoms: N_26  and  S_27 
REMARK   10  A    between atoms: S_27  and  C_30 
REMARK   11  A    between atoms: C_31  and  C_42 
REMARK   12  A    between atoms: C_33  and  C_39 
REMARK   13  A    between atoms: C_35  and  C_36 
ROOT
HETATM    1  C   UNK N   1      22.086  17.648   5.085  0.00  0.00     0.189 C 
ENDROOT
BRANCH   1   2
HETATM    2  C   UNK N   1      21.220  17.632   6.322  0.00  0.00     0.243 C 
HETATM    3  N   UNK N   1      20.683  16.463   6.778  0.00  0.00    -0.347 N 
HETATM    4  C   UNK N   1      21.069  15.195   6.212  0.00  0.00     0.146 C 
HETATM    5  C   UNK N   1      19.898  16.429   7.988  0.00  0.00     0.146 C 
HETATM    6  C   UNK N   1      21.960  14.511   7.253  0.00  0.00     0.148 C 
HETATM    7  N   UNK N   1      21.318  14.498   8.562  0.00  0.00    -0.325 N 
HETATM    8  C   UNK N   1      21.303  13.381   9.364  0.00  0.00     0.362 C 
HETATM    9  C   UNK N   1      20.729  15.734   9.061  0.00  0.00     0.148 C 
HETATM   10  O   UNK N   1      20.722  13.432  10.440  0.00  0.00    -0.238 OA
HETATM   11  O   UNK N   1      21.063  18.663   6.962  0.00  0.00    -0.271 OA
BRANCH   8  12
HETATM   12  O   UNK N   1      21.920  12.209   9.035  0.00  0.00    -0.304 OA
BRANCH  12  13
HETATM   13  C   UNK N   1      22.931  11.581   9.728  0.00  0.00     0.176 C 
HETATM   14  C   UNK N   1      24.160  12.466   9.754  0.00  0.00     0.034 C 
ENDBRANCH  12  13
ENDBRANCH   8  12
ENDBRANCH   1   2
BRANCH   1  15
HETATM   15  C   UNK N   1      21.488  18.239   3.793  0.00  0.00     0.074 C 
BRANCH  15  16
HETATM   16  C   UNK N   1      20.944  17.472   2.628  0.00  0.00    -0.055 A 
HETATM   17  C   UNK N   1      20.514  18.207   1.518  0.00  0.00     0.007 A 
HETATM   18  C   UNK N   1      19.936  17.562   0.422  0.00  0.00     0.002 A 
HETATM   19  C   UNK N   1      19.770  16.176   0.439  0.00  0.00     0.015 A 
HETATM   20  C   UNK N   1      20.199  15.427   1.544  0.00  0.00     0.007 A 
HETATM   21  C   UNK N   1      20.792  16.084   2.629  0.00  0.00     0.022 A 
BRANCH  20  22
HETATM   22  C   UNK N   1      19.998  13.965   1.582  0.00  0.00     0.102 C 
HETATM   23  N   UNK N   1      19.184  13.445   2.425  0.00  0.00    -0.385 N 
HETATM   24  H   UNK N   1      18.764  14.006   3.117  0.00  0.00     0.157 HD
ATOM     25  HN  UNK N   1      18.969  12.449   2.379  1.00  0.00     0.157 HD
BRANCH  22  26
HETATM   26  N   UNK N   1      20.666  13.132   0.656  0.00  0.00    -0.385 N 
HETATM   27  H   UNK N   1      21.502  12.680   0.915  0.00  0.00     0.157 HD
HETATM   28  H   UNK N   1      20.296  13.003  -0.247  0.00  0.00     0.157 HD
ENDBRANCH  22  26
ENDBRANCH  20  22
ENDBRANCH  15  16
ENDBRANCH   1  15
BRANCH   1  29
HETATM   29  N   UNK N   1      23.316  18.376   5.353  0.00  0.00    -0.301 N 
HETATM   30  H   UNK N   1      23.380  19.259   5.858  0.00  0.00     0.173 HD
BRANCH  29  31
HETATM   31  S   UNK N   1      24.686  17.489   4.664  0.00  0.00     0.260 S 
HETATM   32  O   UNK N   1      24.382  16.429   5.734  0.00  0.00    -0.200 OA
HETATM   33  O   UNK N   1      24.145  16.496   3.623  0.00  0.00    -0.200 OA
BRANCH  31  34
HETATM   34  C   UNK N   1      26.396  17.315   5.291  0.00  0.00     0.092 A 
HETATM   35  C   UNK N   1      27.029  16.041   5.344  0.00  0.00    -0.030 A 
HETATM   36  C   UNK N   1      28.298  15.930   5.946  0.00  0.00     0.016 A 
HETATM   37  C   UNK N   1      28.960  17.050   6.462  0.00  0.00    -0.054 A 
HETATM   38  C   UNK N   1      28.365  18.299   6.338  0.00  0.00     0.016 A 
HETATM   39  C   UNK N   1      27.098  18.447   5.770  0.00  0.00    -0.030 A 
BRANCH  35  40
HETATM   40  C   UNK N   1      26.365  14.808   4.763  0.00  0.00     0.012 C 
HETATM   41  C   UNK N   1      26.417  13.588   5.670  0.00  0.00     0.015 C 
HETATM   42  C   UNK N   1      27.038  14.429   3.452  0.00  0.00     0.015 C 
ENDBRANCH  35  40
BRANCH  37  43
HETATM   43  C   UNK N   1      30.298  16.956   7.152  0.00  0.00     0.010 C 
HETATM   44  C   UNK N   1      30.462  17.937   8.301  0.00  0.00     0.015 C 
HETATM   45  C   UNK N   1      31.428  17.184   6.160  0.00  0.00     0.015 C 
ENDBRANCH  37  43
BRANCH  39  46
HETATM   46  C   UNK N   1      26.519  19.819   5.686  0.00  0.00     0.012 C 
HETATM   47  C   UNK N   1      26.831  20.453   4.340  0.00  0.00     0.015 C 
HETATM   48  C   UNK N   1      27.022  20.708   6.808  0.00  0.00     0.015 C 
ENDBRANCH  39  46
ENDBRANCH  31  34
ENDBRANCH  29  31
ENDBRANCH   1  29
TORSDOF 13
ENDMDL
MODEL 5
REMARK VINA RESULT:      -8.1      3.154      8.547
REMARK  13 active torsions:
REMARK  status: ('A' for Active; 'I' for Inactive)
REMARK    1  A    between atoms: C_2  and  O_3 
REMARK    2  A    between atoms: O_3  and  C_4 
REMARK       I    between atoms: C_4  and  N_6 
REMARK       I    between atoms: N_9  and  C_12 
REMARK    3  A    between atoms: C_12  and  C_14 
REMARK    4  A    between atoms: C_14  and  C_15 
REMARK    5  A    between atoms: C_14  and  N_26 
REMARK    6  A    between atoms: C_15  and  C_16 
REMARK    7  A    between atoms: C_20  and  C_22 
REMARK    8  A    between atoms: C_22  and  N_25 
REMARK    9  A    between atoms: N_26  and  S_27 
REMARK   10  A    between atoms: S_27  and  C_30 
REMARK   11  A    between atoms: C_31  and  C_42 
REMARK   12  A    between atoms: C_33  and  C_39 
REMARK   13  A    between atoms: C_35  and  C_36 
ROOT
HETATM    1  C   UNK N   1      29.243  15.383   2.873  0.00  0.00     0.189 C 
ENDROOT
BRANCH   1   2
HETATM    2  C   UNK N   1      30.495  14.565   3.086  0.00  0.00     0.243 C 
HETATM    3  N   UNK N   1      31.704  15.176   3.250  0.00  0.00    -0.347 N 
HETATM    4  C   UNK N   1      31.801  16.605   3.410  0.00  0.00     0.146 C 
HETATM    5  C   UNK N   1      32.896  14.406   3.506  0.00  0.00     0.146 C 
HETATM    6  C   UNK N   1      32.134  16.853   4.884  0.00  0.00     0.148 C 
HETATM    7  N   UNK N   1      33.275  16.048   5.304  0.00  0.00    -0.325 N 
HETATM    8  C   UNK N   1      34.300  16.563   6.061  0.00  0.00     0.362 C 
HETATM    9  C   UNK N   1      33.292  14.632   4.960  0.00  0.00     0.148 C 
HETATM   10  O   UNK N   1      35.241  15.838   6.355  0.00  0.00    -0.238 OA
HETATM   11  O   UNK N   1      30.410  13.349   3.188  0.00  0.00    -0.271 OA
BRANCH   8  12
HETATM   12  O   UNK N   1      34.324  17.846   6.525  0.00  0.00    -0.304 OA
BRANCH  12  13
HETATM   13  C   UNK N   1      34.240  18.256   7.837  0.00  0.00     0.176 C 
HETATM   14  C   UNK N   1      32.877  17.904   8.396  0.00  0.00     0.034 C 
ENDBRANCH  12  13
ENDBRANCH   8  12
ENDBRANCH   1   2
BRANCH   1  15
HETATM   15  C   UNK N   1      28.291  14.964   1.737  0.00  0.00     0.074 C 
BRANCH  15  16
HETATM   16  C   UNK N   1      27.053  14.131   1.868  0.00  0.00    -0.055 A 
HETATM   17  C   UNK N   1      27.220  12.755   2.057  0.00  0.00     0.007 A 
HETATM   18  C   UNK N   1      26.111  11.910   2.123  0.00  0.00     0.002 A 
HETATM   19  C   UNK N   1      24.825  12.436   1.984  0.00  0.00     0.015 A 
HETATM   20  C   UNK N   1      24.644  13.814   1.797  0.00  0.00     0.007 A 
HETATM   21  C   UNK N   1      25.764  14.653   1.750  0.00  0.00     0.022 A 
BRANCH  20  22
HETATM   22  C   UNK N   1      23.290  14.374   1.617  0.00  0.00     0.102 C 
HETATM   23  N   UNK N   1      22.550  13.982   0.644  0.00  0.00    -0.385 N 
HETATM   24  H   UNK N   1      22.918  13.382  -0.044  0.00  0.00     0.157 HD
ATOM     25  HN  UNK N   1      21.580  14.292   0.584  1.00  0.00     0.157 HD
BRANCH  22  26
HETATM   26  N   UNK N   1      22.778  15.310   2.544  0.00  0.00    -0.385 N 
HETATM   27  H   UNK N   1      23.327  15.591   3.312  0.00  0.00     0.157 HD
HETATM   28  H   UNK N   1      21.875  15.681   2.422  0.00  0.00     0.157 HD
ENDBRANCH  22  26
ENDBRANCH  20  22
ENDBRANCH  15  16
ENDBRANCH   1  15
BRANCH   1  29
HETATM   29  N   UNK N   1      28.456  15.409   4.096  0.00  0.00    -0.301 N 
HETATM   30  H   UNK N   1      28.404  14.654   4.779  0.00  0.00     0.173 HD
BRANCH  29  31
HETATM   31  S   UNK N   1      27.602  16.956   4.213  0.00  0.00     0.260 S 
HETATM   32  O   UNK N   1      27.810  16.819   5.729  0.00  0.00    -0.200 OA
HETATM   33  O   UNK N   1      28.646  18.084   4.239  0.00  0.00    -0.200 OA
BRANCH  31  34
HETATM   34  C   UNK N   1      25.873  17.299   4.702  0.00  0.00     0.092 A 
HETATM   35  C   UNK N   1      25.086  16.305   5.350  0.00  0.00    -0.030 A 
HETATM   36  C   UNK N   1      23.724  16.563   5.600  0.00  0.00     0.016 A 
HETATM   37  C   UNK N   1      23.139  17.788   5.254  0.00  0.00    -0.054 A 
HETATM   38  C   UNK N   1      23.935  18.778   4.690  0.00  0.00     0.016 A 
HETATM   39  C   UNK N   1      25.283  18.551   4.405  0.00  0.00    -0.030 A 
BRANCH  35  40
HETATM   40  C   UNK N   1      25.687  14.980   5.776  0.00  0.00     0.012 C 
HETATM   41  C   UNK N   1      24.905  13.763   5.307  0.00  0.00     0.015 C 
HETATM   42  C   UNK N   1      25.766  14.913   7.294  0.00  0.00     0.015 C 
ENDBRANCH  35  40
BRANCH  37  43
HETATM   43  C   UNK N   1      21.674  18.077   5.468  0.00  0.00     0.010 C 
HETATM   44  C   UNK N   1      20.808  16.829   5.518  0.00  0.00     0.015 C 
HETATM   45  C   UNK N   1      21.143  18.987   4.372  0.00  0.00     0.015 C 
ENDBRANCH  37  43
BRANCH  39  46
HETATM   46  C   UNK N   1      26.067  19.657   3.786  0.00  0.00     0.012 C 
HETATM   47  C   UNK N   1      26.503  20.663   4.840  0.00  0.00     0.015 C 
HETATM   48  C   UNK N   1      25.281  20.358   2.693  0.00  0.00     0.015 C 
ENDBRANCH  39  46
ENDBRANCH  31  34
ENDBRANCH  29  31
ENDBRANCH   1  29
TORSDOF 13
ENDMDL
MODEL 6
REMARK VINA RESULT:      -8.0      2.987      8.529
REMARK  13 active torsions:
REMARK  status: ('A' for Active; 'I' for Inactive)
REMARK    1  A    between atoms: C_2  and  O_3 
REMARK    2  A    between atoms: O_3  and  C_4 
REMARK       I    between atoms: C_4  and  N_6 
REMARK       I    between atoms: N_9  and  C_12 
REMARK    3  A    between atoms: C_12  and  C_14 
REMARK    4  A    between atoms: C_14  and  C_15 
REMARK    5  A    between atoms: C_14  and  N_26 
REMARK    6  A    between atoms: C_15  and  C_16 
REMARK    7  A    between atoms: C_20  and  C_22 
REMARK    8  A    between atoms: C_22  and  N_25 
REMARK    9  A    between atoms: N_26  and  S_27 
REMARK   10  A    between atoms: S_27  and  C_30 
REMARK   11  A    between atoms: C_31  and  C_42 
REMARK   12  A    between atoms: C_33  and  C_39 
REMARK   13  A    between atoms: C_35  and  C_36 
ROOT
HETATM    1  C   UNK N   1      27.056  15.561   4.156  0.00  0.00     0.189 C 
ENDROOT
BRANCH   1   2
HETATM    2  C   UNK N   1      28.339  14.840   3.811  0.00  0.00     0.243 C 
HETATM    3  N   UNK N   1      29.549  15.397   4.104  0.00  0.00    -0.347 N 
HETATM    4  C   UNK N   1      29.646  16.590   4.907  0.00  0.00     0.146 C 
HETATM    5  C   UNK N   1      30.777  14.693   3.827  0.00  0.00     0.146 C 
HETATM    6  C   UNK N   1      30.176  16.148   6.275  0.00  0.00     0.148 C 
HETATM    7  N   UNK N   1      31.377  15.333   6.130  0.00  0.00    -0.325 N 
HETATM    8  C   UNK N   1      32.488  15.515   6.917  0.00  0.00     0.362 C 
HETATM    9  C   UNK N   1      31.367  14.246   5.159  0.00  0.00     0.148 C 
HETATM   10  O   UNK N   1      33.472  14.813   6.723  0.00  0.00    -0.238 OA
HETATM   11  O   UNK N   1      28.287  13.713   3.336  0.00  0.00    -0.271 OA
BRANCH   8  12
HETATM   12  O   UNK N   1      32.557  16.432   7.926  0.00  0.00    -0.304 OA
BRANCH  12  13
HETATM   13  C   UNK N   1      32.863  17.769   7.814  0.00  0.00     0.176 C 
HETATM   14  C   UNK N   1      34.360  17.964   7.945  0.00  0.00     0.034 C 
ENDBRANCH  12  13
ENDBRANCH   8  12
ENDBRANCH   1   2
BRANCH   1  15
HETATM   15  C   UNK N   1      26.716  16.841   3.370  0.00  0.00     0.074 C 
BRANCH  15  16
HETATM   16  C   UNK N   1      26.484  18.207   3.941  0.00  0.00    -0.055 A 
HETATM   17  C   UNK N   1      26.106  19.219   3.054  0.00  0.00     0.007 A 
HETATM   18  C   UNK N   1      25.936  20.530   3.505  0.00  0.00     0.002 A 
HETATM   19  C   UNK N   1      26.161  20.837   4.849  0.00  0.00     0.015 A 
HETATM   20  C   UNK N   1      26.538  19.830   5.749  0.00  0.00     0.007 A 
HETATM   21  C   UNK N   1      26.688  18.518   5.286  0.00  0.00     0.022 A 
BRANCH  20  22
HETATM   22  C   UNK N   1      26.808  20.154   7.164  0.00  0.00     0.102 C 
HETATM   23  N   UNK N   1      27.779  19.589   7.784  0.00  0.00    -0.385 N 
HETATM   24  H   UNK N   1      28.286  18.865   7.350  0.00  0.00     0.157 HD
ATOM     25  HN  UNK N   1      28.027  19.891   8.726  1.00  0.00     0.157 HD
BRANCH  22  26
HETATM   26  N   UNK N   1      26.029  21.125   7.832  0.00  0.00    -0.385 N 
HETATM   27  H   UNK N   1      25.143  20.885   8.188  0.00  0.00     0.157 HD
HETATM   28  H   UNK N   1      26.372  22.041   7.942  0.00  0.00     0.157 HD
ENDBRANCH  22  26
ENDBRANCH  20  22
ENDBRANCH  15  16
ENDBRANCH   1  15
BRANCH   1  29
HETATM   29  N   UNK N   1      25.927  14.659   4.006  0.00  0.00    -0.301 N 
HETATM   30  H   UNK N   1      25.504  14.386   3.120  0.00  0.00     0.173 HD
BRANCH  29  31
HETATM   31  S   UNK N   1      25.399  14.107   5.605  0.00  0.00     0.260 S 
HETATM   32  O   UNK N   1      24.449  13.176   4.837  0.00  0.00    -0.200 OA
HETATM   33  O   UNK N   1      26.213  12.857   5.978  0.00  0.00    -0.200 OA
BRANCH  31  34
HETATM   34  C   UNK N   1      23.884  14.524   6.540  0.00  0.00     0.092 A 
HETATM   35  C   UNK N   1      23.501  13.770   7.686  0.00  0.00    -0.030 A 
HETATM   36  C   UNK N   1      22.266  14.042   8.306  0.00  0.00     0.016 A 
HETATM   37  C   UNK N   1      21.425  15.060   7.838  0.00  0.00    -0.054 A 
HETATM   38  C   UNK N   1      21.843  15.838   6.766  0.00  0.00     0.016 A 
HETATM   39  C   UNK N   1      23.049  15.583   6.110  0.00  0.00    -0.030 A 
BRANCH  35  40
HETATM   40  C   UNK N   1      24.397  12.684   8.249  0.00  0.00     0.012 C 
HETATM   41  C   UNK N   1      23.742  11.314   8.326  0.00  0.00     0.015 C 
HETATM   42  C   UNK N   1      24.840  13.058   9.656  0.00  0.00     0.015 C 
ENDBRANCH  35  40
BRANCH  37  43
HETATM   43  C   UNK N   1      20.077  15.346   8.453  0.00  0.00     0.010 C 
HETATM   44  C   UNK N   1      19.861  16.812   8.791  0.00  0.00     0.015 C 
HETATM   45  C   UNK N   1      19.884  14.527   9.720  0.00  0.00     0.015 C 
ENDBRANCH  37  43
BRANCH  39  46
HETATM   46  C   UNK N   1      23.421  16.453   4.958  0.00  0.00     0.012 C 
HETATM   47  C   UNK N   1      23.108  17.910   5.260  0.00  0.00     0.015 C 
HETATM   48  C   UNK N   1      22.718  16.024   3.683  0.00  0.00     0.015 C 
ENDBRANCH  39  46
ENDBRANCH  31  34
ENDBRANCH  29  31
ENDBRANCH   1  29
TORSDOF 13
ENDMDL
MODEL 7
REMARK VINA RESULT:      -8.0     13.310     16.806
REMARK  13 active torsions:
REMARK  status: ('A' for Active; 'I' for Inactive)
REMARK    1  A    between atoms: C_2  and  O_3 
REMARK    2  A    between atoms: O_3  and  C_4 
REMARK       I    between atoms: C_4  and  N_6 
REMARK       I    between atoms: N_9  and  C_12 
REMARK    3  A    between atoms: C_12  and  C_14 
REMARK    4  A    between atoms: C_14  and  C_15 
REMARK    5  A    between atoms: C_14  and  N_26 
REMARK    6  A    between atoms: C_15  and  C_16 
REMARK    7  A    between atoms: C_20  and  C_22 
REMARK    8  A    between atoms: C_22  and  N_25 
REMARK    9  A    between atoms: N_26  and  S_27 
REMARK   10  A    between atoms: S_27  and  C_30 
REMARK   11  A    between atoms: C_31  and  C_42 
REMARK   12  A    between atoms: C_33  and  C_39 
REMARK   13  A    between atoms: C_35  and  C_36 
ROOT
HETATM    1  C   UNK N   1      26.208  25.732  -7.589  0.00  0.00     0.189 C 
ENDROOT
BRANCH   1   2
HETATM    2  C   UNK N   1      26.134  25.963  -9.080  0.00  0.00     0.243 C 
HETATM    3  N   UNK N   1      27.160  26.573  -9.740  0.00  0.00    -0.347 N 
HETATM    4  C   UNK N   1      28.412  26.849  -9.080  0.00  0.00     0.146 C 
HETATM    5  C   UNK N   1      27.121  26.751 -11.171  0.00  0.00     0.146 C 
HETATM    6  C   UNK N   1      29.424  25.845  -9.640  0.00  0.00     0.148 C 
HETATM    7  N   UNK N   1      29.415  25.852 -11.098  0.00  0.00    -0.325 N 
HETATM    8  C   UNK N   1      30.570  25.853 -11.842  0.00  0.00     0.362 C 
HETATM    9  C   UNK N   1      28.131  25.789 -11.786  0.00  0.00     0.148 C 
HETATM   10  O   UNK N   1      30.489  25.887 -13.062  0.00  0.00    -0.238 OA
HETATM   11  O   UNK N   1      25.179  25.528  -9.710  0.00  0.00    -0.271 OA
BRANCH   8  12
HETATM   12  O   UNK N   1      31.820  25.802 -11.294  0.00  0.00    -0.304 OA
BRANCH  12  13
HETATM   13  C   UNK N   1      32.715  24.758 -11.365  0.00  0.00     0.176 C 
HETATM   14  C   UNK N   1      32.475  23.800 -10.217  0.00  0.00     0.034 C 
ENDBRANCH  12  13
ENDBRANCH   8  12
ENDBRANCH   1   2
BRANCH   1  15
HETATM   15  C   UNK N   1      25.448  26.707  -6.669  0.00  0.00     0.074 C 
BRANCH  15  16
HETATM   16  C   UNK N   1      26.049  27.644  -5.667  0.00  0.00    -0.055 A 
HETATM   17  C   UNK N   1      25.474  27.679  -4.393  0.00  0.00     0.007 A 
HETATM   18  C   UNK N   1      25.941  28.575  -3.429  0.00  0.00     0.002 A 
HETATM   19  C   UNK N   1      26.980  29.454  -3.742  0.00  0.00     0.015 A 
HETATM   20  C   UNK N   1      27.567  29.427  -5.015  0.00  0.00     0.007 A 
HETATM   21  C   UNK N   1      27.100  28.512  -5.966  0.00  0.00     0.022 A 
BRANCH  20  22
HETATM   22  C   UNK N   1      28.644  30.375  -5.363  0.00  0.00     0.102 C 
HETATM   23  N   UNK N   1      29.284  30.995  -4.440  0.00  0.00    -0.385 N 
HETATM   24  H   UNK N   1      28.995  30.919  -3.502  0.00  0.00     0.157 HD
ATOM     25  HN  UNK N   1      30.094  31.568  -4.678  1.00  0.00     0.157 HD
BRANCH  22  26
HETATM   26  N   UNK N   1      29.010  30.570  -6.714  0.00  0.00    -0.385 N 
HETATM   27  H   UNK N   1      28.758  29.903  -7.393  0.00  0.00     0.157 HD
HETATM   28  H   UNK N   1      29.518  31.371  -6.975  0.00  0.00     0.157 HD
ENDBRANCH  22  26
ENDBRANCH  20  22
ENDBRANCH  15  16
ENDBRANCH   1  15
BRANCH   1  29
HETATM   29  N   UNK N   1      25.735  24.395  -7.272  0.00  0.00    -0.301 N 
HETATM   30  H   UNK N   1      24.810  24.168  -6.907  0.00  0.00     0.173 HD
BRANCH  29  31
HETATM   31  S   UNK N   1      27.015  23.220  -7.618  0.00  0.00     0.260 S 
HETATM   32  O   UNK N   1      26.151  22.226  -6.827  0.00  0.00    -0.200 OA
HETATM   33  O   UNK N   1      26.628  22.443  -8.887  0.00  0.00    -0.200 OA
BRANCH  31  34
HETATM   34  C   UNK N   1      28.346  22.592  -6.531  0.00  0.00     0.092 A 
HETATM   35  C   UNK N   1      29.077  21.419  -6.873  0.00  0.00    -0.030 A 
HETATM   36  C   UNK N   1      30.008  20.898  -5.954  0.00  0.00     0.016 A 
HETATM   37  C   UNK N   1      30.251  21.529  -4.728  0.00  0.00    -0.054 A 
HETATM   38  C   UNK N   1      29.587  22.713  -4.437  0.00  0.00     0.016 A 
HETATM   39  C   UNK N   1      28.639  23.248  -5.312  0.00  0.00    -0.030 A 
BRANCH  35  40
HETATM   40  C   UNK N   1      28.873  20.726  -8.207  0.00  0.00     0.012 C 
HETATM   41  C   UNK N   1      28.946  19.209  -8.136  0.00  0.00     0.015 C 
HETATM   42  C   UNK N   1      29.932  21.188  -9.196  0.00  0.00     0.015 C 
ENDBRANCH  35  40
BRANCH  37  43
HETATM   43  C   UNK N   1      31.209  20.970  -3.704  0.00  0.00     0.010 C 
HETATM   44  C   UNK N   1      31.920  22.038  -2.889  0.00  0.00     0.015 C 
HETATM   45  C   UNK N   1      32.259  20.098  -4.375  0.00  0.00     0.015 C 
ENDBRANCH  37  43
BRANCH  39  46
HETATM   46  C   UNK N   1      27.956  24.515  -4.922  0.00  0.00     0.012 C 
HETATM   47  C   UNK N   1      28.972  25.623  -4.689  0.00  0.00     0.015 C 
HETATM   48  C   UNK N   1      27.097  24.331  -3.685  0.00  0.00     0.015 C 
ENDBRANCH  39  46
ENDBRANCH  31  34
ENDBRANCH  29  31
ENDBRANCH   1  29
TORSDOF 13
ENDMDL
MODEL 8
REMARK VINA RESULT:      -8.0      2.852      8.718
REMARK  13 active torsions:
REMARK  status: ('A' for Active; 'I' for Inactive)
REMARK    1  A    between atoms: C_2  and  O_3 
REMARK    2  A    between atoms: O_3  and  C_4 
REMARK       I    between atoms: C_4  and  N_6 
REMARK       I    between atoms: N_9  and  C_12 
REMARK    3  A    between atoms: C_12  and  C_14 
REMARK    4  A    between atoms: C_14  and  C_15 
REMARK    5  A    between atoms: C_14  and  N_26 
REMARK    6  A    between atoms: C_15  and  C_16 
REMARK    7  A    between atoms: C_20  and  C_22 
REMARK    8  A    between atoms: C_22  and  N_25 
REMARK    9  A    between atoms: N_26  and  S_27 
REMARK   10  A    between atoms: S_27  and  C_30 
REMARK   11  A    between atoms: C_31  and  C_42 
REMARK   12  A    between atoms: C_33  and  C_39 
REMARK   13  A    between atoms: C_35  and  C_36 
ROOT
HETATM    1  C   UNK N   1      27.858  15.861   5.999  0.00  0.00     0.189 C 
ENDROOT
BRANCH   1   2
HETATM    2  C   UNK N   1      28.990  16.283   5.091  0.00  0.00     0.243 C 
HETATM    3  N   UNK N   1      29.912  17.197   5.510  0.00  0.00    -0.347 N 
HETATM    4  C   UNK N   1      29.947  17.646   6.879  0.00  0.00     0.146 C 
HETATM    5  C   UNK N   1      31.026  17.567   4.671  0.00  0.00     0.146 C 
HETATM    6  C   UNK N   1      31.173  16.986   7.519  0.00  0.00     0.148 C 
HETATM    7  N   UNK N   1      32.365  17.202   6.707  0.00  0.00    -0.325 N 
HETATM    8  C   UNK N   1      33.571  17.569   7.254  0.00  0.00     0.362 C 
HETATM    9  C   UNK N   1      32.285  16.954   5.273  0.00  0.00     0.148 C 
HETATM   10  O   UNK N   1      34.524  17.760   6.511  0.00  0.00    -0.238 OA
HETATM   11  O   UNK N   1      29.122  15.743   4.001  0.00  0.00    -0.271 OA
BRANCH   8  12
HETATM   12  O   UNK N   1      33.777  17.719   8.595  0.00  0.00    -0.304 OA
BRANCH  12  13
HETATM   13  C   UNK N   1      34.608  16.970   9.396  0.00  0.00     0.176 C 
HETATM   14  C   UNK N   1      34.134  15.531   9.423  0.00  0.00     0.034 C 
ENDBRANCH  12  13
ENDBRANCH   8  12
ENDBRANCH   1   2
BRANCH   1  15
HETATM   15  C   UNK N   1      26.638  16.795   6.112  0.00  0.00     0.074 C 
BRANCH  15  16
HETATM   16  C   UNK N   1      26.204  17.826   5.115  0.00  0.00    -0.055 A 
HETATM   17  C   UNK N   1      27.187  18.680   4.605  0.00  0.00     0.007 A 
HETATM   18  C   UNK N   1      26.844  19.705   3.721  0.00  0.00     0.002 A 
HETATM   19  C   UNK N   1      25.509  19.892   3.356  0.00  0.00     0.015 A 
HETATM   20  C   UNK N   1      24.515  19.040   3.859  0.00  0.00     0.007 A 
HETATM   21  C   UNK N   1      24.875  18.006   4.730  0.00  0.00     0.022 A 
BRANCH  20  22
HETATM   22  C   UNK N   1      23.098  19.251   3.502  0.00  0.00     0.102 C 
HETATM   23  N   UNK N   1      22.207  18.399   3.856  0.00  0.00    -0.385 N 
HETATM   24  H   UNK N   1      22.475  17.552   4.280  0.00  0.00     0.157 HD
ATOM     25  HN  UNK N   1      21.219  18.599   3.700  1.00  0.00     0.157 HD
BRANCH  22  26
HETATM   26  N   UNK N   1      22.706  20.419   2.809  0.00  0.00    -0.385 N 
HETATM   27  H   UNK N   1      23.069  20.604   1.912  0.00  0.00     0.157 HD
HETATM   28  H   UNK N   1      22.071  21.047   3.222  0.00  0.00     0.157 HD
ENDBRANCH  22  26
ENDBRANCH  20  22
ENDBRANCH  15  16
ENDBRANCH   1  15
BRANCH   1  29
HETATM   29  N   UNK N   1      27.358  14.558   5.591  0.00  0.00    -0.301 N 
HETATM   30  H   UNK N   1      27.921  13.812   5.184  0.00  0.00     0.173 HD
BRANCH  29  31
HETATM   31  S   UNK N   1      25.618  14.471   5.911  0.00  0.00     0.260 S 
HETATM   32  O   UNK N   1      25.704  13.052   5.327  0.00  0.00    -0.200 OA
HETATM   33  O   UNK N   1      25.411  13.819   7.287  0.00  0.00    -0.200 OA
BRANCH  31  34
HETATM   34  C   UNK N   1      24.210  14.627   4.753  0.00  0.00     0.092 A 
HETATM   35  C   UNK N   1      22.879  14.775   5.235  0.00  0.00    -0.030 A 
HETATM   36  C   UNK N   1      21.811  14.768   4.317  0.00  0.00     0.016 A 
HETATM   37  C   UNK N   1      22.036  14.652   2.940  0.00  0.00    -0.054 A 
HETATM   38  C   UNK N   1      23.343  14.583   2.475  0.00  0.00     0.016 A 
HETATM   39  C   UNK N   1      24.426  14.562   3.356  0.00  0.00    -0.030 A 
BRANCH  35  40
HETATM   40  C   UNK N   1      22.593  14.942   6.715  0.00  0.00     0.012 C 
HETATM   41  C   UNK N   1      21.850  13.772   7.341  0.00  0.00     0.015 C 
HETATM   42  C   UNK N   1      21.752  16.190   6.941  0.00  0.00     0.015 C 
ENDBRANCH  35  40
BRANCH  37  43
HETATM   43  C   UNK N   1      20.910  14.596   1.936  0.00  0.00     0.010 C 
HETATM   44  C   UNK N   1      21.155  13.616   0.801  0.00  0.00     0.015 C 
HETATM   45  C   UNK N   1      20.660  15.972   1.339  0.00  0.00     0.015 C 
ENDBRANCH  37  43
BRANCH  39  46
HETATM   46  C   UNK N   1      25.799  14.471   2.780  0.00  0.00     0.012 C 
HETATM   47  C   UNK N   1      26.158  15.749   2.039  0.00  0.00     0.015 C 
HETATM   48  C   UNK N   1      25.940  13.277   1.854  0.00  0.00     0.015 C 
ENDBRANCH  39  46
ENDBRANCH  31  34
ENDBRANCH  29  31
ENDBRANCH   1  29
TORSDOF 13
ENDMDL
MODEL 9
REMARK VINA RESULT:      -8.0      2.522      5.860
REMARK  13 active torsions:
REMARK  status: ('A' for Active; 'I' for Inactive)
REMARK    1  A    between atoms: C_2  and  O_3 
REMARK    2  A    between atoms: O_3  and  C_4 
REMARK       I    between atoms: C_4  and  N_6 
REMARK       I    between atoms: N_9  and  C_12 
REMARK    3  A    between atoms: C_12  and  C_14 
REMARK    4  A    between atoms: C_14  and  C_15 
REMARK    5  A    between atoms: C_14  and  N_26 
REMARK    6  A    between atoms: C_15  and  C_16 
REMARK    7  A    between atoms: C_20  and  C_22 
REMARK    8  A    between atoms: C_22  and  N_25 
REMARK    9  A    between atoms: N_26  and  S_27 
REMARK   10  A    between atoms: S_27  and  C_30 
REMARK   11  A    between atoms: C_31  and  C_42 
REMARK   12  A    between atoms: C_33  and  C_39 
REMARK   13  A    between atoms: C_35  and  C_36 
ROOT
HETATM    1  C   UNK N   1      25.439  14.296   4.511  0.00  0.00     0.189 C 
ENDROOT
BRANCH   1   2
HETATM    2  C   UNK N   1      24.663  13.879   3.283  0.00  0.00     0.243 C 
HETATM    3  N   UNK N   1      23.305  14.001   3.246  0.00  0.00    -0.347 N 
HETATM    4  C   UNK N   1      22.590  14.693   4.288  0.00  0.00     0.146 C 
HETATM    5  C   UNK N   1      22.561  13.655   2.059  0.00  0.00     0.146 C 
HETATM    6  C   UNK N   1      22.140  16.029   3.689  0.00  0.00     0.148 C 
HETATM    7  N   UNK N   1      21.452  15.827   2.419  0.00  0.00    -0.325 N 
HETATM    8  C   UNK N   1      20.284  16.478   2.103  0.00  0.00     0.362 C 
HETATM    9  C   UNK N   1      22.065  14.951   1.428  0.00  0.00     0.148 C 
HETATM   10  O   UNK N   1      19.746  16.240   1.030  0.00  0.00    -0.238 OA
HETATM   11  O   UNK N   1      25.267  13.503   2.288  0.00  0.00    -0.271 OA
BRANCH   8  12
HETATM   12  O   UNK N   1      19.690  17.399   2.916  0.00  0.00    -0.304 OA
BRANCH  12  13
HETATM   13  C   UNK N   1      19.460  18.727   2.637  0.00  0.00     0.176 C 
HETATM   14  C   UNK N   1      20.780  19.460   2.513  0.00  0.00     0.034 C 
ENDBRANCH  12  13
ENDBRANCH   8  12
ENDBRANCH   1   2
BRANCH   1  15
HETATM   15  C   UNK N   1      25.899  13.193   5.483  0.00  0.00     0.074 C 
BRANCH  15  16
HETATM   16  C   UNK N   1      25.060  12.503   6.514  0.00  0.00    -0.055 A 
HETATM   17  C   UNK N   1      24.251  11.446   6.085  0.00  0.00     0.007 A 
HETATM   18  C   UNK N   1      23.396  10.800   6.979  0.00  0.00     0.002 A 
HETATM   19  C   UNK N   1      23.333  11.221   8.310  0.00  0.00     0.015 A 
HETATM   20  C   UNK N   1      24.142  12.277   8.754  0.00  0.00     0.007 A 
HETATM   21  C   UNK N   1      25.007  12.905   7.850  0.00  0.00     0.022 A 
BRANCH  20  22
HETATM   22  C   UNK N   1      24.058  12.748  10.150  0.00  0.00     0.102 C 
HETATM   23  N   UNK N   1      22.917  12.990  10.685  0.00  0.00    -0.385 N 
HETATM   24  H   UNK N   1      22.099  12.959  10.138  0.00  0.00     0.157 HD
ATOM     25  HN  UNK N   1      22.857  13.213  11.679  1.00  0.00     0.157 HD
BRANCH  22  26
HETATM   26  N   UNK N   1      25.232  12.890  10.924  0.00  0.00    -0.385 N 
HETATM   27  H   UNK N   1      26.099  12.601  10.559  0.00  0.00     0.157 HD
HETATM   28  H   UNK N   1      25.182  13.276  11.828  0.00  0.00     0.157 HD
ENDBRANCH  22  26
ENDBRANCH  20  22
ENDBRANCH  15  16
ENDBRANCH   1  15
BRANCH   1  29
HETATM   29  N   UNK N   1      26.627  15.035   4.117  0.00  0.00    -0.301 N 
HETATM   30  H   UNK N   1      27.039  15.036   3.184  0.00  0.00     0.173 HD
BRANCH  29  31
HETATM   31  S   UNK N   1      27.250  15.935   5.510  0.00  0.00     0.260 S 
HETATM   32  O   UNK N   1      27.529  17.062   4.505  0.00  0.00    -0.200 OA
HETATM   33  O   UNK N   1      26.114  16.806   6.070  0.00  0.00    -0.200 OA
BRANCH  31  34
HETATM   34  C   UNK N   1      28.979  16.252   6.015  0.00  0.00     0.092 A 
HETATM   35  C   UNK N   1      29.284  17.224   7.010  0.00  0.00    -0.030 A 
HETATM   36  C   UNK N   1      30.632  17.527   7.284  0.00  0.00     0.016 A 
HETATM   37  C   UNK N   1      31.675  16.869   6.621  0.00  0.00    -0.054 A 
HETATM   38  C   UNK N   1      31.367  15.870   5.706  0.00  0.00     0.016 A 
HETATM   39  C   UNK N   1      30.043  15.558   5.390  0.00  0.00    -0.030 A 
BRANCH  35  40
HETATM   40  C   UNK N   1      28.186  17.933   7.780  0.00  0.00     0.012 C 
HETATM   41  C   UNK N   1      28.003  19.393   7.399  0.00  0.00     0.015 C 
HETATM   42  C   UNK N   1      28.487  17.884   9.271  0.00  0.00     0.015 C 
ENDBRANCH  35  40
BRANCH  37  43
HETATM   43  C   UNK N   1      33.127  17.204   6.860  0.00  0.00     0.010 C 
HETATM   44  C   UNK N   1      34.010  15.981   7.047  0.00  0.00     0.015 C 
HETATM   45  C   UNK N   1      33.275  18.096   8.082  0.00  0.00     0.015 C 
ENDBRANCH  37  43
BRANCH  39  46
HETATM   46  C   UNK N   1      29.793  14.484   4.386  0.00  0.00     0.012 C 
HETATM   47  C   UNK N   1      30.625  13.251   4.699  0.00  0.00     0.015 C 
HETATM   48  C   UNK N   1      30.080  14.960   2.974  0.00  0.00     0.015 C 
ENDBRANCH  39  46
ENDBRANCH  31  34
ENDBRANCH  29  31
ENDBRANCH   1  29
TORSDOF 13
ENDMDL
