MODEL 1
REMARK VINA RESULT:      -7.4      0.000      0.000
REMARK  6 active torsions:
REMARK  status: ('A' for Active; 'I' for Inactive)
REMARK    1  A    between atoms: C_13  and  O_4 
REMARK    2  A    between atoms: O_4  and  C_18 
REMARK    3  A    between atoms: O_6  and  C_25 
REMARK    4  A    between atoms: O_6  and  C_26 
REMARK    5  A    between atoms: N_12  and  C_19 
REMARK    6  A    between atoms: C_18  and  C_20 
ROOT
HETATM    1  O   UNK N   1      35.061  17.973   9.157  0.00  0.00    -0.319 OA
HETATM    2  N   UNK N   1      33.869  15.971   9.521  0.00  0.00    -0.317 N 
HETATM    3  N   UNK N   1      35.512  16.454  10.955  0.00  0.00    -0.302 N 
ATOM      4  HN  UNK N   1      36.286  16.931  11.418  1.00  0.00     0.171 HD
HETATM    5  C   UNK N   1      33.651  17.087   7.382  0.00  0.00     0.164 C 
HETATM    6  C   UNK N   1      32.985  16.138   8.384  0.00  0.00     0.166 C 
HETATM    7  C   UNK N   1      34.241  18.325   8.090  0.00  0.00     0.212 C 
HETATM    8  C   UNK N   1      34.829  16.842   9.862  0.00  0.00     0.227 A 
HETATM    9  C   UNK N   1      33.907  14.974  10.413  0.00  0.00     0.149 A 
HETATM   10  C   UNK N   1      34.928  15.281  11.296  0.00  0.00     0.192 A 
ENDROOT
BRANCH   5  11
HETATM   11  O   UNK N   1      32.744  17.449   6.386  0.00  0.00    -0.378 OA
BRANCH  11  12
HETATM   12  C   UNK N   1      31.688  16.549   6.550  0.00  0.00     0.207 C 
BRANCH  12  13
HETATM   13  C   UNK N   1      30.376  17.233   6.421  0.00  0.00    -0.034 A 
HETATM   14  C   UNK N   1      29.653  17.567   7.566  0.00  0.00     0.012 A 
HETATM   15  C   UNK N   1      28.466  18.288   7.453  0.00  0.00     0.037 A 
HETATM   16  C   UNK N   1      27.995  18.692   6.191  0.00  0.00     0.078 A 
HETATM   17  C   UNK N   1      28.714  18.333   5.044  0.00  0.00     0.037 A 
HETATM   18  C   UNK N   1      29.903  17.606   5.159  0.00  0.00     0.012 A 
BRANCH  16  19
HETATM   19  O   UNK N   1      26.880  19.455   6.062  0.00  0.00    -0.255 OA
BRANCH  19  20
HETATM   20  C   UNK N   1      26.858  20.833   6.182  0.00  0.00     0.530 C 
HETATM   21  F   UNK N   1      28.150  21.321   6.255  0.00  0.00    -0.144 F 
HETATM   22  F   UNK N   1      26.207  21.400   5.100  0.00  0.00    -0.144 F 
HETATM   23  F   UNK N   1      26.181  21.176   7.334  0.00  0.00    -0.144 F 
ENDBRANCH  19  20
ENDBRANCH  16  19
ENDBRANCH  12  13
ENDBRANCH  11  12
ENDBRANCH   5  11
BRANCH  10  24
HETATM   24  N   UNK N   1      35.317  14.492  12.405  0.00  0.00    -0.096 N 
HETATM   25  O   UNK N   1      36.297  14.892  13.186  0.00  0.00    -0.530 OA
HETATM   26  O   UNK N   1      34.756  13.465  12.639  0.00  0.00    -0.530 OA
ENDBRANCH  10  24
TORSDOF 6
ENDMDL
MODEL 2
REMARK VINA RESULT:      -7.2      5.973     10.435
REMARK  6 active torsions:
REMARK  status: ('A' for Active; 'I' for Inactive)
REMARK    1  A    between atoms: C_13  and  O_4 
REMARK    2  A    between atoms: O_4  and  C_18 
REMARK    3  A    between atoms: O_6  and  C_25 
REMARK    4  A    between atoms: O_6  and  C_26 
REMARK    5  A    between atoms: N_12  and  C_19 
REMARK    6  A    between atoms: C_18  and  C_20 
ROOT
HETATM    1  O   UNK N   1      26.373  20.402   3.314  0.00  0.00    -0.319 OA
HETATM    2  N   UNK N   1      24.567  19.040   3.980  0.00  0.00    -0.317 N 
HETATM    3  N   UNK N   1      24.087  20.836   2.741  0.00  0.00    -0.302 N 
ATOM      4  HN  UNK N   1      24.187  21.691   2.193  1.00  0.00     0.171 HD
HETATM    5  C   UNK N   1      26.703  18.767   5.087  0.00  0.00     0.164 C 
HETATM    6  C   UNK N   1      25.382  18.088   4.708  0.00  0.00     0.166 C 
HETATM    7  C   UNK N   1      27.300  19.538   3.891  0.00  0.00     0.212 C 
HETATM    8  C   UNK N   1      25.052  20.111   3.336  0.00  0.00     0.227 A 
HETATM    9  C   UNK N   1      23.239  19.046   3.808  0.00  0.00     0.149 A 
HETATM   10  C   UNK N   1      22.952  20.162   3.041  0.00  0.00     0.192 A 
ENDROOT
BRANCH   5  11
HETATM   11  O   UNK N   1      27.602  17.825   5.589  0.00  0.00    -0.378 OA
BRANCH  11  12
HETATM   12  C   UNK N   1      27.798  18.220   6.915  0.00  0.00     0.207 C 
BRANCH  12  13
HETATM   13  C   UNK N   1      29.196  17.972   7.348  0.00  0.00    -0.034 A 
HETATM   14  C   UNK N   1      29.634  18.445   8.585  0.00  0.00     0.012 A 
HETATM   15  C   UNK N   1      30.916  18.137   9.034  0.00  0.00     0.037 A 
HETATM   16  C   UNK N   1      31.773  17.342   8.251  0.00  0.00     0.078 A 
HETATM   17  C   UNK N   1      31.336  16.890   7.000  0.00  0.00     0.037 A 
HETATM   18  C   UNK N   1      30.050  17.203   6.549  0.00  0.00     0.012 A 
BRANCH  16  19
HETATM   19  O   UNK N   1      32.999  16.971   8.699  0.00  0.00    -0.255 OA
BRANCH  19  20
HETATM   20  C   UNK N   1      34.176  17.627   8.385  0.00  0.00     0.530 C 
HETATM   21  F   UNK N   1      33.926  18.970   8.168  0.00  0.00    -0.144 F 
HETATM   22  F   UNK N   1      35.095  17.484   9.411  0.00  0.00    -0.144 F 
HETATM   23  F   UNK N   1      34.708  17.076   7.237  0.00  0.00    -0.144 F 
ENDBRANCH  19  20
ENDBRANCH  16  19
ENDBRANCH  12  13
ENDBRANCH  11  12
ENDBRANCH   5  11
BRANCH  10  24
HETATM   24  N   UNK N   1      21.659  20.556   2.619  0.00  0.00    -0.096 N 
HETATM   25  O   UNK N   1      21.400  20.700   1.337  0.00  0.00    -0.530 OA
HETATM   26  O   UNK N   1      20.799  20.754   3.422  0.00  0.00    -0.530 OA
ENDBRANCH  10  24
TORSDOF 6
ENDMDL
MODEL 3
REMARK VINA RESULT:      -7.2      7.459     11.269
REMARK  6 active torsions:
REMARK  status: ('A' for Active; 'I' for Inactive)
REMARK    1  A    between atoms: C_13  and  O_4 
REMARK    2  A    between atoms: O_4  and  C_18 
REMARK    3  A    between atoms: O_6  and  C_25 
REMARK    4  A    between atoms: O_6  and  C_26 
REMARK    5  A    between atoms: N_12  and  C_19 
REMARK    6  A    between atoms: C_18  and  C_20 
ROOT
HETATM    1  O   UNK N   1      35.711  15.689  12.261  0.00  0.00    -0.319 OA
HETATM    2  N   UNK N   1      35.292  15.111  10.014  0.00  0.00    -0.317 N 
HETATM    3  N   UNK N   1      35.092  17.266  10.566  0.00  0.00    -0.302 N 
ATOM      4  HN  UNK N   1      35.083  18.132  11.106  1.00  0.00     0.171 HD
HETATM    5  C   UNK N   1      35.365  13.352  11.676  0.00  0.00     0.164 C 
HETATM    6  C   UNK N   1      35.545  13.695  10.193  0.00  0.00     0.166 C 
HETATM    7  C   UNK N   1      36.073  14.383  12.581  0.00  0.00     0.212 C 
HETATM    8  C   UNK N   1      35.378  16.022  10.993  0.00  0.00     0.227 A 
HETATM    9  C   UNK N   1      34.943  15.764   8.898  0.00  0.00     0.149 A 
HETATM   10  C   UNK N   1      34.820  17.097   9.251  0.00  0.00     0.192 A 
ENDROOT
BRANCH   5  11
HETATM   11  O   UNK N   1      35.815  12.055  11.928  0.00  0.00    -0.378 OA
BRANCH  11  12
HETATM   12  C   UNK N   1      34.736  11.445  12.573  0.00  0.00     0.207 C 
BRANCH  12  13
HETATM   13  C   UNK N   1      35.108  11.006  13.942  0.00  0.00    -0.034 A 
HETATM   14  C   UNK N   1      36.424  11.147  14.383  0.00  0.00     0.012 A 
HETATM   15  C   UNK N   1      36.757  10.821  15.695  0.00  0.00     0.037 A 
HETATM   16  C   UNK N   1      35.772  10.358  16.586  0.00  0.00     0.078 A 
HETATM   17  C   UNK N   1      34.458  10.196  16.131  0.00  0.00     0.037 A 
HETATM   18  C   UNK N   1      34.126  10.521  14.812  0.00  0.00     0.012 A 
BRANCH  16  19
HETATM   19  O   UNK N   1      36.059  10.101  17.887  0.00  0.00    -0.255 OA
BRANCH  19  20
HETATM   20  C   UNK N   1      35.703  10.922  18.942  0.00  0.00     0.530 C 
HETATM   21  F   UNK N   1      34.536  10.463  19.526  0.00  0.00    -0.144 F 
HETATM   22  F   UNK N   1      36.714  10.958  19.887  0.00  0.00    -0.144 F 
HETATM   23  F   UNK N   1      35.497  12.203  18.469  0.00  0.00    -0.144 F 
ENDBRANCH  19  20
ENDBRANCH  16  19
ENDBRANCH  12  13
ENDBRANCH  11  12
ENDBRANCH   5  11
BRANCH  10  24
HETATM   24  N   UNK N   1      34.464  18.148   8.371  0.00  0.00    -0.096 N 
HETATM   25  O   UNK N   1      33.441  18.009   7.557  0.00  0.00    -0.530 OA
HETATM   26  O   UNK N   1      35.089  19.166   8.368  0.00  0.00    -0.530 OA
ENDBRANCH  10  24
TORSDOF 6
ENDMDL
MODEL 4
REMARK VINA RESULT:      -7.1     11.471     13.841
REMARK  6 active torsions:
REMARK  status: ('A' for Active; 'I' for Inactive)
REMARK    1  A    between atoms: C_13  and  O_4 
REMARK    2  A    between atoms: O_4  and  C_18 
REMARK    3  A    between atoms: O_6  and  C_25 
REMARK    4  A    between atoms: O_6  and  C_26 
REMARK    5  A    between atoms: N_12  and  C_19 
REMARK    6  A    between atoms: C_18  and  C_20 
ROOT
HETATM    1  O   UNK N   1      19.732  16.176   2.389  0.00  0.00    -0.319 OA
HETATM    2  N   UNK N   1      21.234  17.763   3.276  0.00  0.00    -0.317 N 
HETATM    3  N   UNK N   1      20.045  18.374   1.486  0.00  0.00    -0.302 N 
ATOM      4  HN  UNK N   1      19.389  18.354   0.705  1.00  0.00     0.171 HD
HETATM    5  C   UNK N   1      21.442  15.449   3.960  0.00  0.00     0.164 C 
HETATM    6  C   UNK N   1      21.710  16.908   4.346  0.00  0.00     0.166 C 
HETATM    7  C   UNK N   1      20.013  15.269   3.406  0.00  0.00     0.212 C 
HETATM    8  C   UNK N   1      20.310  17.399   2.376  0.00  0.00     0.227 A 
HETATM    9  C   UNK N   1      21.597  19.018   2.983  0.00  0.00     0.149 A 
HETATM   10  C   UNK N   1      20.857  19.387   1.873  0.00  0.00     0.192 A 
ENDROOT
BRANCH   5  11
HETATM   11  O   UNK N   1      21.678  14.612   5.052  0.00  0.00    -0.378 OA
BRANCH  11  12
HETATM   12  C   UNK N   1      20.561  14.804   5.869  0.00  0.00     0.207 C 
BRANCH  12  13
HETATM   13  C   UNK N   1      20.761  14.185   7.204  0.00  0.00    -0.034 A 
HETATM   14  C   UNK N   1      21.314  12.908   7.302  0.00  0.00     0.012 A 
HETATM   15  C   UNK N   1      21.587  12.361   8.554  0.00  0.00     0.037 A 
HETATM   16  C   UNK N   1      21.318  13.093   9.724  0.00  0.00     0.078 A 
HETATM   17  C   UNK N   1      20.743  14.365   9.621  0.00  0.00     0.037 A 
HETATM   18  C   UNK N   1      20.466  14.911   8.363  0.00  0.00     0.012 A 
BRANCH  16  19
HETATM   19  O   UNK N   1      21.641  12.610  10.951  0.00  0.00    -0.255 OA
BRANCH  19  20
HETATM   20  C   UNK N   1      22.861  12.043  11.271  0.00  0.00     0.530 C 
HETATM   21  F   UNK N   1      23.890  12.871  10.858  0.00  0.00    -0.144 F 
HETATM   22  F   UNK N   1      22.952  11.833  12.637  0.00  0.00    -0.144 F 
HETATM   23  F   UNK N   1      22.978  10.826  10.629  0.00  0.00    -0.144 F 
ENDBRANCH  19  20
ENDBRANCH  16  19
ENDBRANCH  12  13
ENDBRANCH  11  12
ENDBRANCH   5  11
BRANCH  10  24
HETATM   24  N   UNK N   1      20.923  20.643   1.223  0.00  0.00    -0.096 N 
HETATM   25  O   UNK N   1      21.066  20.702  -0.083  0.00  0.00    -0.530 OA
HETATM   26  O   UNK N   1      20.846  21.652   1.856  0.00  0.00    -0.530 OA
ENDBRANCH  10  24
TORSDOF 6
ENDMDL
MODEL 5
REMARK VINA RESULT:      -7.1      7.746     11.605
REMARK  6 active torsions:
REMARK  status: ('A' for Active; 'I' for Inactive)
REMARK    1  A    between atoms: C_13  and  O_4 
REMARK    2  A    between atoms: O_4  and  C_18 
REMARK    3  A    between atoms: O_6  and  C_25 
REMARK    4  A    between atoms: O_6  and  C_26 
REMARK    5  A    between atoms: N_12  and  C_19 
REMARK    6  A    between atoms: C_18  and  C_20 
ROOT
HETATM    1  O   UNK N   1      34.644  13.671  10.278  0.00  0.00    -0.319 OA
HETATM    2  N   UNK N   1      35.435  15.774  10.994  0.00  0.00    -0.317 N 
HETATM    3  N   UNK N   1      34.309  15.710   9.066  0.00  0.00    -0.302 N 
ATOM      4  HN  UNK N   1      33.783  15.369   8.261  1.00  0.00     0.171 HD
HETATM    5  C   UNK N   1      36.321  13.777  12.039  0.00  0.00     0.164 C 
HETATM    6  C   UNK N   1      36.050  15.276  12.209  0.00  0.00     0.166 C 
HETATM    7  C   UNK N   1      35.100  13.050  11.438  0.00  0.00     0.212 C 
HETATM    8  C   UNK N   1      34.784  15.006  10.110  0.00  0.00     0.227 A 
HETATM    9  C   UNK N   1      35.393  17.029  10.532  0.00  0.00     0.149 A 
HETATM   10  C   UNK N   1      34.695  16.980   9.337  0.00  0.00     0.192 A 
ENDROOT
BRANCH   5  11
HETATM   11  O   UNK N   1      36.703  13.216  13.259  0.00  0.00    -0.378 OA
BRANCH  11  12
HETATM   12  C   UNK N   1      35.583  13.393  14.075  0.00  0.00     0.207 C 
BRANCH  12  13
HETATM   13  C   UNK N   1      35.716  12.632  15.342  0.00  0.00    -0.034 A 
HETATM   14  C   UNK N   1      35.103  13.103  16.503  0.00  0.00     0.012 A 
HETATM   15  C   UNK N   1      35.150  12.346  17.672  0.00  0.00     0.037 A 
HETATM   16  C   UNK N   1      35.804  11.101  17.688  0.00  0.00     0.078 A 
HETATM   17  C   UNK N   1      36.437  10.644  16.526  0.00  0.00     0.037 A 
HETATM   18  C   UNK N   1      36.392  11.407  15.355  0.00  0.00     0.012 A 
BRANCH  16  19
HETATM   19  O   UNK N   1      35.802  10.315  18.794  0.00  0.00    -0.255 OA
BRANCH  19  20
HETATM   20  C   UNK N   1      34.706   9.602  19.244  0.00  0.00     0.530 C 
HETATM   21  F   UNK N   1      34.068  10.301  20.252  0.00  0.00    -0.144 F 
HETATM   22  F   UNK N   1      33.820   9.373  18.204  0.00  0.00    -0.144 F 
HETATM   23  F   UNK N   1      35.129   8.385  19.738  0.00  0.00    -0.144 F 
ENDBRANCH  19  20
ENDBRANCH  16  19
ENDBRANCH  12  13
ENDBRANCH  11  12
ENDBRANCH   5  11
BRANCH  10  24
HETATM   24  N   UNK N   1      34.412  18.091   8.506  0.00  0.00    -0.096 N 
HETATM   25  O   UNK N   1      35.235  19.116   8.474  0.00  0.00    -0.530 OA
HETATM   26  O   UNK N   1      33.429  18.099   7.828  0.00  0.00    -0.530 OA
ENDBRANCH  10  24
TORSDOF 6
ENDMDL
MODEL 6
REMARK VINA RESULT:      -7.0      8.682     12.601
REMARK  6 active torsions:
REMARK  status: ('A' for Active; 'I' for Inactive)
REMARK    1  A    between atoms: C_13  and  O_4 
REMARK    2  A    between atoms: O_4  and  C_18 
REMARK    3  A    between atoms: O_6  and  C_25 
REMARK    4  A    between atoms: O_6  and  C_26 
REMARK    5  A    between atoms: N_12  and  C_19 
REMARK    6  A    between atoms: C_18  and  C_20 
ROOT
HETATM    1  O   UNK N   1      34.756  12.456  12.306  0.00  0.00    -0.319 OA
HETATM    2  N   UNK N   1      35.734  14.572  12.662  0.00  0.00    -0.317 N 
HETATM    3  N   UNK N   1      34.698  14.243  10.711  0.00  0.00    -0.302 N 
ATOM      4  HN  UNK N   1      34.177  13.804   9.952  1.00  0.00     0.171 HD
HETATM    5  C   UNK N   1      36.351  12.741  14.123  0.00  0.00     0.164 C 
HETATM    6  C   UNK N   1      36.234  14.263  13.988  0.00  0.00     0.166 C 
HETATM    7  C   UNK N   1      35.087  12.032  13.590  0.00  0.00     0.212 C 
HETATM    8  C   UNK N   1      35.046  13.713  11.898  0.00  0.00     0.227 A 
HETATM    9  C   UNK N   1      35.848  15.711  11.969  0.00  0.00     0.149 A 
HETATM   10  C   UNK N   1      35.205  15.498  10.762  0.00  0.00     0.192 A 
ENDROOT
BRANCH   5  11
HETATM   11  O   UNK N   1      36.613  12.394  15.449  0.00  0.00    -0.378 OA
BRANCH  11  12
HETATM   12  C   UNK N   1      35.488  12.848  16.143  0.00  0.00     0.207 C 
BRANCH  12  13
HETATM   13  C   UNK N   1      35.380  12.198  17.473  0.00  0.00    -0.034 A 
HETATM   14  C   UNK N   1      35.294  12.982  18.624  0.00  0.00     0.012 A 
HETATM   15  C   UNK N   1      35.101  12.379  19.865  0.00  0.00     0.037 A 
HETATM   16  C   UNK N   1      34.983  10.981  19.966  0.00  0.00     0.078 A 
HETATM   17  C   UNK N   1      35.093  10.198  18.811  0.00  0.00     0.037 A 
HETATM   18  C   UNK N   1      35.290  10.805  17.566  0.00  0.00     0.012 A 
BRANCH  16  19
HETATM   19  O   UNK N   1      34.725  10.377  21.153  0.00  0.00    -0.255 OA
BRANCH  19  20
HETATM   20  C   UNK N   1      33.461  10.227  21.696  0.00  0.00     0.530 C 
HETATM   21  F   UNK N   1      33.523   9.432  22.826  0.00  0.00    -0.144 F 
HETATM   22  F   UNK N   1      32.928  11.462  22.023  0.00  0.00    -0.144 F 
HETATM   23  F   UNK N   1      32.638   9.625  20.765  0.00  0.00    -0.144 F 
ENDBRANCH  19  20
ENDBRANCH  16  19
ENDBRANCH  12  13
ENDBRANCH  11  12
ENDBRANCH   5  11
BRANCH  10  24
HETATM   24  N   UNK N   1      35.083  16.447   9.719  0.00  0.00    -0.096 N 
HETATM   25  O   UNK N   1      35.401  17.705   9.931  0.00  0.00    -0.530 OA
HETATM   26  O   UNK N   1      34.694  16.109   8.642  0.00  0.00    -0.530 OA
ENDBRANCH  10  24
TORSDOF 6
ENDMDL
MODEL 7
REMARK VINA RESULT:      -6.6      1.866      2.844
REMARK  6 active torsions:
REMARK  status: ('A' for Active; 'I' for Inactive)
REMARK    1  A    between atoms: C_13  and  O_4 
REMARK    2  A    between atoms: O_4  and  C_18 
REMARK    3  A    between atoms: O_6  and  C_25 
REMARK    4  A    between atoms: O_6  and  C_26 
REMARK    5  A    between atoms: N_12  and  C_19 
REMARK    6  A    between atoms: C_18  and  C_20 
ROOT
HETATM    1  O   UNK N   1      34.203  13.478   9.668  0.00  0.00    -0.319 OA
HETATM    2  N   UNK N   1      35.351  14.972  11.087  0.00  0.00    -0.317 N 
HETATM    3  N   UNK N   1      34.739  13.007  11.956  0.00  0.00    -0.302 N 
ATOM      4  HN  UNK N   1      34.343  12.072  12.056  1.00  0.00     0.171 HD
HETATM    5  C   UNK N   1      34.427  15.811   9.012  0.00  0.00     0.164 C 
HETATM    6  C   UNK N   1      35.498  16.012  10.089  0.00  0.00     0.166 C 
HETATM    7  C   UNK N   1      34.339  14.332   8.578  0.00  0.00     0.212 C 
HETATM    8  C   UNK N   1      34.744  13.797  10.866  0.00  0.00     0.227 A 
HETATM    9  C   UNK N   1      35.767  14.968  12.359  0.00  0.00     0.149 A 
HETATM   10  C   UNK N   1      35.381  13.748  12.890  0.00  0.00     0.192 A 
ENDROOT
BRANCH   5  11
HETATM   11  O   UNK N   1      34.673  16.650   7.924  0.00  0.00    -0.378 OA
BRANCH  11  12
HETATM   12  C   UNK N   1      33.913  17.789   8.200  0.00  0.00     0.207 C 
BRANCH  12  13
HETATM   13  C   UNK N   1      32.509  17.621   7.746  0.00  0.00    -0.034 A 
HETATM   14  C   UNK N   1      31.459  17.932   8.609  0.00  0.00     0.012 A 
HETATM   15  C   UNK N   1      30.143  17.862   8.157  0.00  0.00     0.037 A 
HETATM   16  C   UNK N   1      29.865  17.487   6.831  0.00  0.00     0.078 A 
HETATM   17  C   UNK N   1      30.922  17.153   5.976  0.00  0.00     0.037 A 
HETATM   18  C   UNK N   1      32.243  17.221   6.433  0.00  0.00     0.012 A 
BRANCH  16  19
HETATM   19  O   UNK N   1      28.596  17.480   6.349  0.00  0.00    -0.255 OA
BRANCH  19  20
HETATM   20  C   UNK N   1      27.946  18.591   5.844  0.00  0.00     0.530 C 
HETATM   21  F   UNK N   1      28.609  19.060   4.724  0.00  0.00    -0.144 F 
HETATM   22  F   UNK N   1      26.638  18.276   5.513  0.00  0.00    -0.144 F 
HETATM   23  F   UNK N   1      27.930  19.582   6.805  0.00  0.00    -0.144 F 
ENDBRANCH  19  20
ENDBRANCH  16  19
ENDBRANCH  12  13
ENDBRANCH  11  12
ENDBRANCH   5  11
BRANCH  10  24
HETATM   24  N   UNK N   1      35.621  13.319  14.217  0.00  0.00    -0.096 N 
HETATM   25  O   UNK N   1      34.616  13.157  15.050  0.00  0.00    -0.530 OA
HETATM   26  O   UNK N   1      36.735  13.098  14.585  0.00  0.00    -0.530 OA
ENDBRANCH  10  24
TORSDOF 6
ENDMDL
MODEL 8
REMARK VINA RESULT:      -6.5      6.958     10.720
REMARK  6 active torsions:
REMARK  status: ('A' for Active; 'I' for Inactive)
REMARK    1  A    between atoms: C_13  and  O_4 
REMARK    2  A    between atoms: O_4  and  C_18 
REMARK    3  A    between atoms: O_6  and  C_25 
REMARK    4  A    between atoms: O_6  and  C_26 
REMARK    5  A    between atoms: N_12  and  C_19 
REMARK    6  A    between atoms: C_18  and  C_20 
ROOT
HETATM    1  O   UNK N   1      35.029  17.535   9.896  0.00  0.00    -0.319 OA
HETATM    2  N   UNK N   1      34.826  15.676   8.459  0.00  0.00    -0.317 N 
HETATM    3  N   UNK N   1      34.194  17.661   7.654  0.00  0.00    -0.302 N 
ATOM      4  HN  UNK N   1      33.995  18.659   7.580  1.00  0.00     0.171 HD
HETATM    5  C   UNK N   1      35.162  15.289  10.826  0.00  0.00     0.164 C 
HETATM    6  C   UNK N   1      35.338  14.714   9.416  0.00  0.00     0.166 C 
HETATM    7  C   UNK N   1      35.620  16.762  10.892  0.00  0.00     0.212 C 
HETATM    8  C   UNK N   1      34.693  16.986   8.706  0.00  0.00     0.227 A 
HETATM    9  C   UNK N   1      34.407  15.466   7.205  0.00  0.00     0.149 A 
HETATM   10  C   UNK N   1      34.016  16.701   6.716  0.00  0.00     0.192 A 
ENDROOT
BRANCH   5  11
HETATM   11  O   UNK N   1      35.841  14.500  11.756  0.00  0.00    -0.378 OA
BRANCH  11  12
HETATM   12  C   UNK N   1      34.954  13.452  12.017  0.00  0.00     0.207 C 
BRANCH  12  13
HETATM   13  C   UNK N   1      35.216  12.848  13.348  0.00  0.00    -0.034 A 
HETATM   14  C   UNK N   1      34.474  11.744  13.767  0.00  0.00     0.012 A 
HETATM   15  C   UNK N   1      34.777  11.118  14.974  0.00  0.00     0.037 A 
HETATM   16  C   UNK N   1      35.837  11.586  15.772  0.00  0.00     0.078 A 
HETATM   17  C   UNK N   1      36.563  12.709  15.358  0.00  0.00     0.037 A 
HETATM   18  C   UNK N   1      36.255  13.338  14.147  0.00  0.00     0.012 A 
BRANCH  16  19
HETATM   19  O   UNK N   1      36.195  10.951  16.917  0.00  0.00    -0.255 OA
BRANCH  19  20
HETATM   20  C   UNK N   1      35.527  11.075  18.121  0.00  0.00     0.530 C 
HETATM   21  F   UNK N   1      34.465  10.190  18.166  0.00  0.00    -0.144 F 
HETATM   22  F   UNK N   1      36.387  10.824  19.177  0.00  0.00    -0.144 F 
HETATM   23  F   UNK N   1      35.046  12.363  18.241  0.00  0.00    -0.144 F 
ENDBRANCH  19  20
ENDBRANCH  16  19
ENDBRANCH  12  13
ENDBRANCH  11  12
ENDBRANCH   5  11
BRANCH  10  24
HETATM   24  N   UNK N   1      33.504  16.943   5.418  0.00  0.00    -0.096 N 
HETATM   25  O   UNK N   1      32.916  15.975   4.750  0.00  0.00    -0.530 OA
HETATM   26  O   UNK N   1      33.601  18.027   4.927  0.00  0.00    -0.530 OA
ENDBRANCH  10  24
TORSDOF 6
ENDMDL
MODEL 9
REMARK VINA RESULT:      -6.4      6.799     10.549
REMARK  6 active torsions:
REMARK  status: ('A' for Active; 'I' for Inactive)
REMARK    1  A    between atoms: C_13  and  O_4 
REMARK    2  A    between atoms: O_4  and  C_18 
REMARK    3  A    between atoms: O_6  and  C_25 
REMARK    4  A    between atoms: O_6  and  C_26 
REMARK    5  A    between atoms: N_12  and  C_19 
REMARK    6  A    between atoms: C_18  and  C_20 
ROOT
HETATM    1  O   UNK N   1      34.662  17.538   9.536  0.00  0.00    -0.319 OA
HETATM    2  N   UNK N   1      33.178  15.727   9.256  0.00  0.00    -0.317 N 
HETATM    3  N   UNK N   1      32.711  17.609   8.148  0.00  0.00    -0.302 N 
ATOM      4  HN  UNK N   1      32.766  18.563   7.791  1.00  0.00     0.171 HD
HETATM    5  C   UNK N   1      34.761  15.665  11.088  0.00  0.00     0.164 C 
HETATM    6  C   UNK N   1      33.901  14.828  10.134  0.00  0.00     0.166 C 
HETATM    7  C   UNK N   1      35.516  16.778  10.331  0.00  0.00     0.212 C 
HETATM    8  C   UNK N   1      33.554  16.986   8.991  0.00  0.00     0.227 A 
HETATM    9  C   UNK N   1      32.053  15.499   8.567  0.00  0.00     0.149 A 
HETATM   10  C   UNK N   1      31.771  16.670   7.886  0.00  0.00     0.192 A 
ENDROOT
BRANCH   5  11
HETATM   11  O   UNK N   1      35.637  14.840  11.794  0.00  0.00    -0.378 OA
BRANCH  11  12
HETATM   12  C   UNK N   1      34.906  13.667  11.996  0.00  0.00     0.207 C 
BRANCH  12  13
HETATM   13  C   UNK N   1      35.334  12.974  13.237  0.00  0.00    -0.034 A 
HETATM   14  C   UNK N   1      36.213  13.606  14.116  0.00  0.00     0.012 A 
HETATM   15  C   UNK N   1      36.547  12.997  15.325  0.00  0.00     0.037 A 
HETATM   16  C   UNK N   1      35.994  11.751  15.670  0.00  0.00     0.078 A 
HETATM   17  C   UNK N   1      35.130  11.112  14.774  0.00  0.00     0.037 A 
HETATM   18  C   UNK N   1      34.800  11.722  13.559  0.00  0.00     0.012 A 
BRANCH  16  19
HETATM   19  O   UNK N   1      36.248  11.173  16.872  0.00  0.00    -0.255 OA
BRANCH  19  20
HETATM   20  C   UNK N   1      35.421  11.270  17.976  0.00  0.00     0.530 C 
HETATM   21  F   UNK N   1      36.171  11.195  19.136  0.00  0.00    -0.144 F 
HETATM   22  F   UNK N   1      34.721  12.465  17.950  0.00  0.00    -0.144 F 
HETATM   23  F   UNK N   1      34.516  10.228  17.956  0.00  0.00    -0.144 F 
ENDBRANCH  19  20
ENDBRANCH  16  19
ENDBRANCH  12  13
ENDBRANCH  11  12
ENDBRANCH   5  11
BRANCH  10  24
HETATM   24  N   UNK N   1      30.662  16.874   7.028  0.00  0.00    -0.096 N 
HETATM   25  O   UNK N   1      29.603  17.522   7.463  0.00  0.00    -0.530 OA
HETATM   26  O   UNK N   1      30.686  16.462   5.908  0.00  0.00    -0.530 OA
ENDBRANCH  10  24
TORSDOF 6
ENDMDL
