MODEL 1
REMARK VINA RESULT:      -7.8      0.000      0.000
REMARK  4 active torsions:
REMARK  status: ('A' for Active; 'I' for Inactive)
REMARK    1  A    between atoms: C_14  and  N_16 
REMARK       I    between atoms: N_16  and  C_17 
REMARK    2  A    between atoms: C_17  and  C_19 
REMARK    3  A    between atoms: C_19  and  C_20 
REMARK    4  A    between atoms: C_19  and  O_22 
ROOT
HETATM    1  C   UNK N   1      29.677  16.626   5.449  0.00  0.00     0.203 C 
HETATM    2  C   UNK N   1      30.962  16.608   4.720  0.00  0.00     0.063 A 
HETATM    3  C   UNK N   1      29.550  17.176   6.858  0.00  0.00     0.064 A 
HETATM    4  C   UNK N   1      32.182  17.075   5.178  0.00  0.00    -0.022 A 
HETATM    5  C   UNK N   1      32.353  17.558   6.577  0.00  0.00     0.185 C 
HETATM    6  C   UNK N   1      30.638  17.116   7.820  0.00  0.00     0.076 A 
HETATM    7  S   UNK N   1      32.178  16.043   7.560  0.00  0.00     0.180 S 
HETATM    8  S   UNK N   1      31.210  16.092   3.166  0.00  0.00    -0.097 SA
HETATM    9  C   UNK N   1      32.839  16.403   3.012  0.00  0.00     0.051 A 
HETATM   10  C   UNK N   1      33.243  16.957   4.237  0.00  0.00     0.017 A 
HETATM   11  C   UNK N   1      30.411  17.693   9.092  0.00  0.00     0.024 A 
HETATM   12  C   UNK N   1      29.209  18.287   9.434  0.00  0.00     0.004 A 
HETATM   13  C   UNK N   1      28.164  18.297   8.533  0.00  0.00     0.030 A 
HETATM   14  C   UNK N   1      28.304  17.778   7.248  0.00  0.00     0.050 A 
HETATM   15  O   UNK N   1      28.676  16.308   4.827  0.00  0.00    -0.286 OA
HETATM   16  O   UNK N   1      33.568  16.701   7.490  0.00  0.00    -0.222 OA
HETATM   17  O   UNK N   1      32.459  16.277   9.053  0.00  0.00    -0.222 OA
ENDROOT
BRANCH  14  18
HETATM   18  N   UNK N   1      27.201  17.758   6.339  0.00  0.00    -0.323 N 
HETATM   19  C   UNK N   1      26.638  18.633   5.445  0.00  0.00     0.265 C 
HETATM   20  O   UNK N   1      25.561  18.311   4.970  0.00  0.00    -0.269 OA
HETATM   21  H   UNK N   1      26.723  16.898   6.361  0.00  0.00     0.169 HD
BRANCH  19  22
HETATM   22  C   UNK N   1      27.230  19.964   4.952  0.00  0.00     0.233 C 
HETATM   23  C   UNK N   1      26.370  20.449   3.791  0.00  0.00     0.066 C 
BRANCH  22  24
HETATM   24  C   UNK N   1      27.199  21.020   6.078  0.00  0.00     0.427 C 
HETATM   25  F   UNK N   1      26.198  20.742   6.996  0.00  0.00    -0.167 F 
HETATM   26  F   UNK N   1      26.968  22.280   5.550  0.00  0.00    -0.167 F 
HETATM   27  F   UNK N   1      28.414  21.039   6.740  0.00  0.00    -0.167 F 
ENDBRANCH  22  24
BRANCH  22  28
HETATM   28  O   UNK N   1      28.524  19.861   4.460  0.00  0.00    -0.373 OA
HETATM   29  H   UNK N   1      29.347  19.816   4.973  0.00  0.00     0.211 HD
ENDBRANCH  22  28
ENDBRANCH  19  22
ENDBRANCH  14  18
TORSDOF 4
ENDMDL
MODEL 2
REMARK VINA RESULT:      -6.9      3.226      5.921
REMARK  4 active torsions:
REMARK  status: ('A' for Active; 'I' for Inactive)
REMARK    1  A    between atoms: C_14  and  N_16 
REMARK       I    between atoms: N_16  and  C_17 
REMARK    2  A    between atoms: C_17  and  C_19 
REMARK    3  A    between atoms: C_19  and  C_20 
REMARK    4  A    between atoms: C_19  and  O_22 
ROOT
HETATM    1  C   UNK N   1      29.723  16.461   5.251  0.00  0.00     0.203 C 
HETATM    2  C   UNK N   1      28.589  16.315   4.315  0.00  0.00     0.063 A 
HETATM    3  C   UNK N   1      29.575  17.121   6.610  0.00  0.00     0.064 A 
HETATM    4  C   UNK N   1      27.283  16.722   4.524  0.00  0.00    -0.022 A 
HETATM    5  C   UNK N   1      26.898  17.504   5.733  0.00  0.00     0.185 C 
HETATM    6  C   UNK N   1      28.615  18.184   6.861  0.00  0.00     0.076 A 
HETATM    7  S   UNK N   1      27.715  19.101   5.469  0.00  0.00     0.180 S 
HETATM    8  S   UNK N   1      28.616  15.563   2.839  0.00  0.00    -0.097 SA
HETATM    9  C   UNK N   1      27.021  15.737   2.395  0.00  0.00     0.051 A 
HETATM   10  C   UNK N   1      26.397  16.416   3.454  0.00  0.00     0.017 A 
HETATM   11  C   UNK N   1      28.546  18.697   8.177  0.00  0.00     0.024 A 
HETATM   12  C   UNK N   1      29.354  18.232   9.199  0.00  0.00     0.004 A 
HETATM   13  C   UNK N   1      30.297  17.257   8.943  0.00  0.00     0.030 A 
HETATM   14  C   UNK N   1      30.418  16.673   7.684  0.00  0.00     0.050 A 
HETATM   15  O   UNK N   1      30.769  15.905   4.955  0.00  0.00    -0.286 OA
HETATM   16  O   UNK N   1      26.179  19.056   5.387  0.00  0.00    -0.222 OA
HETATM   17  O   UNK N   1      27.340  20.137   6.541  0.00  0.00    -0.222 OA
ENDROOT
BRANCH  14  18
HETATM   18  N   UNK N   1      31.427  15.695   7.422  0.00  0.00    -0.323 N 
HETATM   19  C   UNK N   1      32.788  15.612   7.568  0.00  0.00     0.265 C 
HETATM   20  O   UNK N   1      33.337  14.655   7.046  0.00  0.00    -0.269 OA
HETATM   21  H   UNK N   1      31.049  14.870   7.040  0.00  0.00     0.169 HD
BRANCH  19  22
HETATM   22  C   UNK N   1      33.699  16.581   8.342  0.00  0.00     0.233 C 
HETATM   23  C   UNK N   1      35.096  15.973   8.373  0.00  0.00     0.066 C 
BRANCH  22  24
HETATM   24  C   UNK N   1      33.759  17.950   7.632  0.00  0.00     0.427 C 
HETATM   25  F   UNK N   1      33.549  17.816   6.269  0.00  0.00    -0.167 F 
HETATM   26  F   UNK N   1      34.999  18.537   7.825  0.00  0.00    -0.167 F 
HETATM   27  F   UNK N   1      32.791  18.792   8.149  0.00  0.00    -0.167 F 
ENDBRANCH  22  24
BRANCH  22  28
HETATM   28  O   UNK N   1      33.328  16.770   9.666  0.00  0.00    -0.373 OA
HETATM   29  H   UNK N   1      33.163  16.087  10.335  0.00  0.00     0.211 HD
ENDBRANCH  22  28
ENDBRANCH  19  22
ENDBRANCH  14  18
TORSDOF 4
ENDMDL
MODEL 3
REMARK VINA RESULT:      -6.9     11.677     13.689
REMARK  4 active torsions:
REMARK  status: ('A' for Active; 'I' for Inactive)
REMARK    1  A    between atoms: C_14  and  N_16 
REMARK       I    between atoms: N_16  and  C_17 
REMARK    2  A    between atoms: C_17  and  C_19 
REMARK    3  A    between atoms: C_19  and  C_20 
REMARK    4  A    between atoms: C_19  and  O_22 
ROOT
HETATM    1  C   UNK N   1      29.210  23.468  -4.648  0.00  0.00     0.203 C 
HETATM    2  C   UNK N   1      30.300  22.492  -4.437  0.00  0.00     0.063 A 
HETATM    3  C   UNK N   1      28.141  23.274  -5.708  0.00  0.00     0.064 A 
HETATM    4  C   UNK N   1      30.498  21.308  -5.125  0.00  0.00    -0.022 A 
HETATM    5  C   UNK N   1      29.654  20.941  -6.297  0.00  0.00     0.185 C 
HETATM    6  C   UNK N   1      28.397  22.574  -6.956  0.00  0.00     0.076 A 
HETATM    7  S   UNK N   1      30.144  22.152  -7.555  0.00  0.00     0.180 S 
HETATM    8  S   UNK N   1      31.482  22.566  -3.278  0.00  0.00    -0.097 SA
HETATM    9  C   UNK N   1      32.296  21.150  -3.603  0.00  0.00     0.051 A 
HETATM   10  C   UNK N   1      31.617  20.553  -4.677  0.00  0.00     0.017 A 
HETATM   11  C   UNK N   1      27.311  22.428  -7.851  0.00  0.00     0.024 A 
HETATM   12  C   UNK N   1      26.051  22.929  -7.578  0.00  0.00     0.004 A 
HETATM   13  C   UNK N   1      25.827  23.635  -6.414  0.00  0.00     0.030 A 
HETATM   14  C   UNK N   1      26.828  23.806  -5.461  0.00  0.00     0.050 A 
HETATM   15  O   UNK N   1      29.112  24.381  -3.843  0.00  0.00    -0.286 OA
HETATM   16  O   UNK N   1      30.546  20.683  -7.774  0.00  0.00    -0.222 OA
HETATM   17  O   UNK N   1      29.492  21.878  -8.920  0.00  0.00    -0.222 OA
ENDROOT
BRANCH  14  18
HETATM   18  N   UNK N   1      26.594  24.575  -4.279  0.00  0.00    -0.323 N 
HETATM   19  C   UNK N   1      26.290  25.881  -3.991  0.00  0.00     0.265 C 
HETATM   20  O   UNK N   1      26.350  26.210  -2.818  0.00  0.00    -0.269 OA
HETATM   21  H   UNK N   1      26.671  24.028  -3.464  0.00  0.00     0.169 HD
BRANCH  19  22
HETATM   22  C   UNK N   1      25.855  26.972  -4.984  0.00  0.00     0.233 C 
HETATM   23  C   UNK N   1      25.543  28.229  -4.180  0.00  0.00     0.066 C 
BRANCH  22  24
HETATM   24  C   UNK N   1      26.991  27.281  -5.982  0.00  0.00     0.427 C 
HETATM   25  F   UNK N   1      26.795  26.619  -7.184  0.00  0.00    -0.167 F 
HETATM   26  F   UNK N   1      28.211  26.882  -5.461  0.00  0.00    -0.167 F 
HETATM   27  F   UNK N   1      27.045  28.641  -6.230  0.00  0.00    -0.167 F 
ENDBRANCH  22  24
BRANCH  22  28
HETATM   28  O   UNK N   1      24.700  26.667  -5.691  0.00  0.00    -0.373 OA
HETATM   29  H   UNK N   1      24.622  26.104  -6.477  0.00  0.00     0.211 HD
ENDBRANCH  22  28
ENDBRANCH  19  22
ENDBRANCH  14  18
TORSDOF 4
ENDMDL
MODEL 4
REMARK VINA RESULT:      -6.8      4.563      6.156
REMARK  4 active torsions:
REMARK  status: ('A' for Active; 'I' for Inactive)
REMARK    1  A    between atoms: C_14  and  N_16 
REMARK       I    between atoms: N_16  and  C_17 
REMARK    2  A    between atoms: C_17  and  C_19 
REMARK    3  A    between atoms: C_19  and  C_20 
REMARK    4  A    between atoms: C_19  and  O_22 
ROOT
HETATM    1  C   UNK N   1      33.295  14.064   8.907  0.00  0.00     0.203 C 
HETATM    2  C   UNK N   1      34.428  13.272   9.431  0.00  0.00     0.063 A 
HETATM    3  C   UNK N   1      33.450  15.505   8.459  0.00  0.00     0.064 A 
HETATM    4  C   UNK N   1      35.738  13.694   9.576  0.00  0.00    -0.022 A 
HETATM    5  C   UNK N   1      36.131  15.108   9.318  0.00  0.00     0.185 C 
HETATM    6  C   UNK N   1      34.421  16.408   9.056  0.00  0.00     0.076 A 
HETATM    7  S   UNK N   1      35.330  16.013  10.671  0.00  0.00     0.180 S 
HETATM    8  S   UNK N   1      34.393  11.681   9.891  0.00  0.00    -0.097 SA
HETATM    9  C   UNK N   1      35.990  11.465  10.310  0.00  0.00     0.051 A 
HETATM   10  C   UNK N   1      36.620  12.697  10.078  0.00  0.00     0.017 A 
HETATM   11  C   UNK N   1      34.495  17.719   8.530  0.00  0.00     0.024 A 
HETATM   12  C   UNK N   1      33.682  18.153   7.498  0.00  0.00     0.004 A 
HETATM   13  C   UNK N   1      32.730  17.306   6.969  0.00  0.00     0.030 A 
HETATM   14  C   UNK N   1      32.602  15.989   7.403  0.00  0.00     0.050 A 
HETATM   15  O   UNK N   1      32.244  13.475   8.711  0.00  0.00    -0.286 OA
HETATM   16  O   UNK N   1      36.866  15.911  10.682  0.00  0.00    -0.222 OA
HETATM   17  O   UNK N   1      35.715  17.501  10.691  0.00  0.00    -0.222 OA
ENDROOT
BRANCH  14  18
HETATM   18  N   UNK N   1      31.584  15.137   6.876  0.00  0.00    -0.323 N 
HETATM   19  C   UNK N   1      31.103  14.821   5.630  0.00  0.00     0.265 C 
HETATM   20  O   UNK N   1      30.072  14.170   5.591  0.00  0.00    -0.269 OA
HETATM   21  H   UNK N   1      31.106  14.652   7.586  0.00  0.00     0.169 HD
BRANCH  19  22
HETATM   22  C   UNK N   1      31.737  15.176   4.274  0.00  0.00     0.233 C 
HETATM   23  C   UNK N   1      31.265  14.140   3.260  0.00  0.00     0.066 C 
BRANCH  22  24
HETATM   24  C   UNK N   1      31.282  16.577   3.814  0.00  0.00     0.427 C 
HETATM   25  F   UNK N   1      32.360  17.440   3.698  0.00  0.00    -0.167 F 
HETATM   26  F   UNK N   1      30.389  17.117   4.726  0.00  0.00    -0.167 F 
HETATM   27  F   UNK N   1      30.652  16.488   2.584  0.00  0.00    -0.167 F 
ENDBRANCH  22  24
BRANCH  22  28
HETATM   28  O   UNK N   1      33.124  15.123   4.267  0.00  0.00    -0.373 OA
HETATM   29  H   UNK N   1      33.715  15.061   5.033  0.00  0.00     0.211 HD
ENDBRANCH  22  28
ENDBRANCH  19  22
ENDBRANCH  14  18
TORSDOF 4
ENDMDL
MODEL 5
REMARK VINA RESULT:      -6.7      3.930      7.443
REMARK  4 active torsions:
REMARK  status: ('A' for Active; 'I' for Inactive)
REMARK    1  A    between atoms: C_14  and  N_16 
REMARK       I    between atoms: N_16  and  C_17 
REMARK    2  A    between atoms: C_17  and  C_19 
REMARK    3  A    between atoms: C_19  and  C_20 
REMARK    4  A    between atoms: C_19  and  O_22 
ROOT
HETATM    1  C   UNK N   1      24.754  16.485   4.501  0.00  0.00     0.203 C 
HETATM    2  C   UNK N   1      23.838  15.880   5.491  0.00  0.00     0.063 A 
HETATM    3  C   UNK N   1      24.550  17.887   3.957  0.00  0.00     0.064 A 
HETATM    4  C   UNK N   1      22.721  16.469   6.056  0.00  0.00    -0.022 A 
HETATM    5  C   UNK N   1      22.233  17.802   5.602  0.00  0.00     0.185 C 
HETATM    6  C   UNK N   1      23.232  18.482   3.807  0.00  0.00     0.076 A 
HETATM    7  S   UNK N   1      21.633  17.472   3.922  0.00  0.00     0.180 S 
HETATM    8  S   UNK N   1      23.992  14.390   6.199  0.00  0.00    -0.097 SA
HETATM    9  C   UNK N   1      22.668  14.410   7.208  0.00  0.00     0.051 A 
HETATM   10  C   UNK N   1      22.050  15.654   7.009  0.00  0.00     0.017 A 
HETATM   11  C   UNK N   1      23.172  19.809   3.321  0.00  0.00     0.024 A 
HETATM   12  C   UNK N   1      24.305  20.529   2.984  0.00  0.00     0.004 A 
HETATM   13  C   UNK N   1      25.549  19.941   3.083  0.00  0.00     0.030 A 
HETATM   14  C   UNK N   1      25.709  18.650   3.579  0.00  0.00     0.050 A 
HETATM   15  O   UNK N   1      25.773  15.869   4.231  0.00  0.00    -0.286 OA
HETATM   16  O   UNK N   1      20.593  17.804   5.007  0.00  0.00    -0.222 OA
HETATM   17  O   UNK N   1      20.944  18.695   3.295  0.00  0.00    -0.222 OA
ENDROOT
BRANCH  14  18
HETATM   18  N   UNK N   1      26.999  18.039   3.636  0.00  0.00    -0.323 N 
HETATM   19  C   UNK N   1      27.992  17.907   4.573  0.00  0.00     0.265 C 
HETATM   20  O   UNK N   1      29.059  17.461   4.181  0.00  0.00    -0.269 OA
HETATM   21  H   UNK N   1      27.236  17.600   2.787  0.00  0.00     0.169 HD
BRANCH  19  22
HETATM   22  C   UNK N   1      27.902  18.237   6.073  0.00  0.00     0.233 C 
HETATM   23  C   UNK N   1      29.223  17.829   6.714  0.00  0.00     0.066 C 
BRANCH  22  24
HETATM   24  C   UNK N   1      27.684  19.750   6.283  0.00  0.00     0.427 C 
HETATM   25  F   UNK N   1      28.228  20.483   5.239  0.00  0.00    -0.167 F 
HETATM   26  F   UNK N   1      28.283  20.163   7.462  0.00  0.00    -0.167 F 
HETATM   27  F   UNK N   1      26.330  20.026   6.358  0.00  0.00    -0.167 F 
ENDBRANCH  22  24
BRANCH  22  28
HETATM   28  O   UNK N   1      26.911  17.536   6.747  0.00  0.00    -0.373 OA
HETATM   29  H   UNK N   1      26.592  17.690   7.650  0.00  0.00     0.211 HD
ENDBRANCH  22  28
ENDBRANCH  19  22
ENDBRANCH  14  18
TORSDOF 4
ENDMDL
MODEL 6
REMARK VINA RESULT:      -6.7      4.377      6.689
REMARK  4 active torsions:
REMARK  status: ('A' for Active; 'I' for Inactive)
REMARK    1  A    between atoms: C_14  and  N_16 
REMARK       I    between atoms: N_16  and  C_17 
REMARK    2  A    between atoms: C_17  and  C_19 
REMARK    3  A    between atoms: C_19  and  C_20 
REMARK    4  A    between atoms: C_19  and  O_22 
ROOT
HETATM    1  C   UNK N   1      32.816  16.850   5.724  0.00  0.00     0.203 C 
HETATM    2  C   UNK N   1      32.690  15.770   4.722  0.00  0.00     0.063 A 
HETATM    3  C   UNK N   1      31.667  17.255   6.629  0.00  0.00     0.064 A 
HETATM    4  C   UNK N   1      31.572  14.995   4.474  0.00  0.00    -0.022 A 
HETATM    5  C   UNK N   1      30.271  15.271   5.148  0.00  0.00     0.185 C 
HETATM    6  C   UNK N   1      30.276  17.151   6.220  0.00  0.00     0.076 A 
HETATM    7  S   UNK N   1      29.758  16.852   4.422  0.00  0.00     0.180 S 
HETATM    8  S   UNK N   1      33.886  15.202   3.726  0.00  0.00    -0.097 SA
HETATM    9  C   UNK N   1      33.056  13.995   2.935  0.00  0.00     0.051 A 
HETATM   10  C   UNK N   1      31.758  14.006   3.469  0.00  0.00     0.017 A 
HETATM   11  C   UNK N   1      29.293  17.527   7.164  0.00  0.00     0.024 A 
HETATM   12  C   UNK N   1      29.614  17.989   8.428  0.00  0.00     0.004 A 
HETATM   13  C   UNK N   1      30.937  18.132   8.793  0.00  0.00     0.030 A 
HETATM   14  C   UNK N   1      31.974  17.759   7.941  0.00  0.00     0.050 A 
HETATM   15  O   UNK N   1      33.928  17.321   5.904  0.00  0.00    -0.286 OA
HETATM   16  O   UNK N   1      28.949  15.594   4.055  0.00  0.00    -0.222 OA
HETATM   17  O   UNK N   1      28.350  17.275   4.872  0.00  0.00    -0.222 OA
ENDROOT
BRANCH  14  18
HETATM   18  N   UNK N   1      33.339  17.952   8.316  0.00  0.00    -0.323 N 
HETATM   19  C   UNK N   1      34.262  17.278   9.075  0.00  0.00     0.265 C 
HETATM   20  O   UNK N   1      35.303  17.867   9.319  0.00  0.00    -0.269 OA
HETATM   21  H   UNK N   1      33.712  18.778   7.933  0.00  0.00     0.169 HD
BRANCH  19  22
HETATM   22  C   UNK N   1      34.141  15.849   9.630  0.00  0.00     0.233 C 
HETATM   23  C   UNK N   1      34.443  14.884   8.488  0.00  0.00     0.066 C 
BRANCH  22  24
HETATM   24  C   UNK N   1      35.159  15.621  10.766  0.00  0.00     0.427 C 
HETATM   25  F   UNK N   1      35.183  16.696  11.640  0.00  0.00    -0.167 F 
HETATM   26  F   UNK N   1      36.433  15.455  10.246  0.00  0.00    -0.167 F 
HETATM   27  F   UNK N   1      34.826  14.481  11.477  0.00  0.00    -0.167 F 
ENDBRANCH  22  24
BRANCH  22  28
HETATM   28  O   UNK N   1      32.870  15.524  10.085  0.00  0.00    -0.373 OA
HETATM   29  H   UNK N   1      32.612  15.289  10.990  0.00  0.00     0.211 HD
ENDBRANCH  22  28
ENDBRANCH  19  22
ENDBRANCH  14  18
TORSDOF 4
ENDMDL
MODEL 7
REMARK VINA RESULT:      -6.5     10.413     12.990
REMARK  4 active torsions:
REMARK  status: ('A' for Active; 'I' for Inactive)
REMARK    1  A    between atoms: C_14  and  N_16 
REMARK       I    between atoms: N_16  and  C_17 
REMARK    2  A    between atoms: C_17  and  C_19 
REMARK    3  A    between atoms: C_19  and  C_20 
REMARK    4  A    between atoms: C_19  and  O_22 
ROOT
HETATM    1  C   UNK N   1      35.451  12.332  15.300  0.00  0.00     0.203 C 
HETATM    2  C   UNK N   1      35.364  12.275  16.775  0.00  0.00     0.063 A 
HETATM    3  C   UNK N   1      35.370  11.089  14.434  0.00  0.00     0.064 A 
HETATM    4  C   UNK N   1      35.192  11.144  17.552  0.00  0.00    -0.022 A 
HETATM    5  C   UNK N   1      35.202   9.780  16.952  0.00  0.00     0.185 C 
HETATM    6  C   UNK N   1      35.843   9.790  14.885  0.00  0.00     0.076 A 
HETATM    7  S   UNK N   1      36.925   9.573  16.425  0.00  0.00     0.180 S 
HETATM    8  S   UNK N   1      35.379  13.563  17.816  0.00  0.00    -0.097 SA
HETATM    9  C   UNK N   1      35.199  12.766  19.267  0.00  0.00     0.051 A 
HETATM   10  C   UNK N   1      35.110  11.402  18.949  0.00  0.00     0.017 A 
HETATM   11  C   UNK N   1      35.683   8.699  14.000  0.00  0.00     0.024 A 
HETATM   12  C   UNK N   1      35.112   8.835  12.747  0.00  0.00     0.004 A 
HETATM   13  C   UNK N   1      34.710  10.080  12.306  0.00  0.00     0.030 A 
HETATM   14  C   UNK N   1      34.802  11.207  13.118  0.00  0.00     0.050 A 
HETATM   15  O   UNK N   1      35.451  13.437  14.781  0.00  0.00    -0.286 OA
HETATM   16  O   UNK N   1      36.423   8.716  17.601  0.00  0.00    -0.222 OA
HETATM   17  O   UNK N   1      37.211   8.160  15.892  0.00  0.00    -0.222 OA
ENDROOT
BRANCH  14  18
HETATM   18  N   UNK N   1      34.420  12.496  12.633  0.00  0.00    -0.323 N 
HETATM   19  C   UNK N   1      34.896  13.386  11.704  0.00  0.00     0.265 C 
HETATM   20  O   UNK N   1      34.389  14.496  11.701  0.00  0.00    -0.269 OA
HETATM   21  H   UNK N   1      33.608  12.830  13.078  0.00  0.00     0.169 HD
BRANCH  19  22
HETATM   22  C   UNK N   1      35.983  13.129  10.646  0.00  0.00     0.233 C 
HETATM   23  C   UNK N   1      36.071  14.370   9.766  0.00  0.00     0.066 C 
BRANCH  22  24
HETATM   24  C   UNK N   1      37.350  12.891  11.321  0.00  0.00     0.427 C 
HETATM   25  F   UNK N   1      38.376  13.465  10.588  0.00  0.00    -0.167 F 
HETATM   26  F   UNK N   1      37.602  11.533  11.432  0.00  0.00    -0.167 F 
HETATM   27  F   UNK N   1      37.352  13.442  12.590  0.00  0.00    -0.167 F 
ENDBRANCH  22  24
BRANCH  22  28
HETATM   28  O   UNK N   1      35.705  12.068   9.794  0.00  0.00    -0.373 OA
HETATM   29  H   UNK N   1      36.113  11.881   8.935  0.00  0.00     0.211 HD
ENDBRANCH  22  28
ENDBRANCH  19  22
ENDBRANCH  14  18
TORSDOF 4
ENDMDL
MODEL 8
REMARK VINA RESULT:      -6.3      4.096      5.664
REMARK  4 active torsions:
REMARK  status: ('A' for Active; 'I' for Inactive)
REMARK    1  A    between atoms: C_14  and  N_16 
REMARK       I    between atoms: N_16  and  C_17 
REMARK    2  A    between atoms: C_17  and  C_19 
REMARK    3  A    between atoms: C_19  and  C_20 
REMARK    4  A    between atoms: C_19  and  O_22 
ROOT
HETATM    1  C   UNK N   1      33.340  14.035   8.629  0.00  0.00     0.203 C 
HETATM    2  C   UNK N   1      34.387  13.299   9.369  0.00  0.00     0.063 A 
HETATM    3  C   UNK N   1      33.561  15.435   8.087  0.00  0.00     0.064 A 
HETATM    4  C   UNK N   1      35.666  13.742   9.656  0.00  0.00    -0.022 A 
HETATM    5  C   UNK N   1      36.097  15.132   9.336  0.00  0.00     0.185 C 
HETATM    6  C   UNK N   1      34.444  16.392   8.733  0.00  0.00     0.076 A 
HETATM    7  S   UNK N   1      35.121  16.141  10.485  0.00  0.00     0.180 S 
HETATM    8  S   UNK N   1      34.282  11.752   9.952  0.00  0.00    -0.097 SA
HETATM    9  C   UNK N   1      35.805  11.584  10.604  0.00  0.00     0.051 A 
HETATM   10  C   UNK N   1      36.467  12.797  10.357  0.00  0.00     0.017 A 
HETATM   11  C   UNK N   1      34.595  17.655   8.114  0.00  0.00     0.024 A 
HETATM   12  C   UNK N   1      33.935  17.995   6.947  0.00  0.00     0.004 A 
HETATM   13  C   UNK N   1      33.060  17.099   6.366  0.00  0.00     0.030 A 
HETATM   14  C   UNK N   1      32.869  15.822   6.888  0.00  0.00     0.050 A 
HETATM   15  O   UNK N   1      32.323  13.424   8.341  0.00  0.00    -0.286 OA
HETATM   16  O   UNK N   1      36.640  16.052  10.716  0.00  0.00    -0.222 OA
HETATM   17  O   UNK N   1      35.506  17.628  10.433  0.00  0.00    -0.222 OA
ENDROOT
BRANCH  14  18
HETATM   18  N   UNK N   1      31.929  14.921   6.299  0.00  0.00    -0.323 N 
HETATM   19  C   UNK N   1      30.639  14.996   5.839  0.00  0.00     0.265 C 
HETATM   20  O   UNK N   1      30.094  13.938   5.566  0.00  0.00    -0.269 OA
HETATM   21  H   UNK N   1      32.303  14.016   6.197  0.00  0.00     0.169 HD
BRANCH  19  22
HETATM   22  C   UNK N   1      29.811  16.270   5.604  0.00  0.00     0.233 C 
HETATM   23  C   UNK N   1      28.580  15.877   4.795  0.00  0.00     0.066 C 
BRANCH  22  24
HETATM   24  C   UNK N   1      29.358  16.878   6.948  0.00  0.00     0.427 C 
HETATM   25  F   UNK N   1      29.454  18.260   6.930  0.00  0.00    -0.167 F 
HETATM   26  F   UNK N   1      30.147  16.401   7.982  0.00  0.00    -0.167 F 
HETATM   27  F   UNK N   1      28.043  16.530   7.204  0.00  0.00    -0.167 F 
ENDBRANCH  22  24
BRANCH  22  28
HETATM   28  O   UNK N   1      30.468  17.244   4.863  0.00  0.00    -0.373 OA
HETATM   29  H   UNK N   1      30.679  18.149   5.137  0.00  0.00     0.211 HD
ENDBRANCH  22  28
ENDBRANCH  19  22
ENDBRANCH  14  18
TORSDOF 4
ENDMDL
MODEL 9
REMARK VINA RESULT:      -6.3      5.577      7.955
REMARK  4 active torsions:
REMARK  status: ('A' for Active; 'I' for Inactive)
REMARK    1  A    between atoms: C_14  and  N_16 
REMARK       I    between atoms: N_16  and  C_17 
REMARK    2  A    between atoms: C_17  and  C_19 
REMARK    3  A    between atoms: C_19  and  C_20 
REMARK    4  A    between atoms: C_19  and  O_22 
ROOT
HETATM    1  C   UNK N   1      23.332  17.163   5.396  0.00  0.00     0.203 C 
HETATM    2  C   UNK N   1      24.613  16.425   5.423  0.00  0.00     0.063 A 
HETATM    3  C   UNK N   1      23.089  18.332   4.460  0.00  0.00     0.064 A 
HETATM    4  C   UNK N   1      25.724  16.663   4.634  0.00  0.00    -0.022 A 
HETATM    5  C   UNK N   1      25.786  17.833   3.713  0.00  0.00     0.185 C 
HETATM    6  C   UNK N   1      24.155  19.221   4.026  0.00  0.00     0.076 A 
HETATM    7  S   UNK N   1      25.863  19.247   4.846  0.00  0.00     0.180 S 
HETATM    8  S   UNK N   1      24.972  15.102   6.353  0.00  0.00    -0.097 SA
HETATM    9  C   UNK N   1      26.523  14.793   5.832  0.00  0.00     0.051 A 
HETATM   10  C   UNK N   1      26.804  15.766   4.860  0.00  0.00     0.017 A 
HETATM   11  C   UNK N   1      23.810  20.255   3.126  0.00  0.00     0.024 A 
HETATM   12  C   UNK N   1      22.518  20.443   2.669  0.00  0.00     0.004 A 
HETATM   13  C   UNK N   1      21.502  19.627   3.122  0.00  0.00     0.030 A 
HETATM   14  C   UNK N   1      21.750  18.564   3.988  0.00  0.00     0.050 A 
HETATM   15  O   UNK N   1      22.412  16.713   6.060  0.00  0.00    -0.286 OA
HETATM   16  O   UNK N   1      27.117  18.919   4.017  0.00  0.00    -0.222 OA
HETATM   17  O   UNK N   1      26.075  20.580   4.109  0.00  0.00    -0.222 OA
ENDROOT
BRANCH  14  18
HETATM   18  N   UNK N   1      20.683  17.753   4.482  0.00  0.00    -0.323 N 
HETATM   19  C   UNK N   1      19.915  16.724   3.999  0.00  0.00     0.265 C 
HETATM   20  O   UNK N   1      18.949  16.400   4.671  0.00  0.00    -0.269 OA
HETATM   21  H   UNK N   1      20.435  17.994   5.403  0.00  0.00     0.169 HD
BRANCH  19  22
HETATM   22  C   UNK N   1      20.154  15.913   2.713  0.00  0.00     0.233 C 
HETATM   23  C   UNK N   1      20.286  16.904   1.562  0.00  0.00     0.066 C 
BRANCH  22  24
HETATM   24  C   UNK N   1      21.456  15.092   2.824  0.00  0.00     0.427 C 
HETATM   25  F   UNK N   1      22.560  15.859   2.489  0.00  0.00    -0.167 F 
HETATM   26  F   UNK N   1      21.410  14.000   1.973  0.00  0.00    -0.167 F 
HETATM   27  F   UNK N   1      21.614  14.632   4.120  0.00  0.00    -0.167 F 
ENDBRANCH  22  24
BRANCH  22  28
HETATM   28  O   UNK N   1      19.107  15.065   2.377  0.00  0.00    -0.373 OA
HETATM   29  H   UNK N   1      18.757  14.885   1.491  0.00  0.00     0.211 HD
ENDBRANCH  22  28
ENDBRANCH  19  22
ENDBRANCH  14  18
TORSDOF 4
ENDMDL
