MODEL 1
REMARK VINA RESULT:      -6.7      0.000      0.000
REMARK  10 active torsions:
REMARK  status: ('A' for Active; 'I' for Inactive)
REMARK    1  A    between atoms: C_12  and  C_8 
REMARK    2  A    between atoms: N_34  and  C_12 
REMARK    3  A    between atoms: C_24  and  O_42 
REMARK    4  A    between atoms: C_25  and  O_43 
REMARK    5  A    between atoms: N_34  and  C_26 
REMARK    6  A    between atoms: C_27  and  O_38 
REMARK    7  A    between atoms: C_29  and  O_44 
REMARK    8  A    between atoms: O_40  and  C_30 
REMARK    9  A    between atoms: O_41  and  C_31 
REMARK   10  A    between atoms: O_44  and  C_31 
ROOT
HETATM    1  C   UNK N   1      24.378  18.563   5.507  0.00  0.00     0.010 C 
HETATM    2  C   UNK N   1      27.611  10.693   2.393  0.00  0.00     0.052 C 
HETATM    3  C   UNK N   1      21.650  14.987   5.353  0.00  0.00     0.017 C 
HETATM    4  C   UNK N   1      22.380  14.486   0.816  0.00  0.00     0.046 C 
HETATM    5  C   UNK N   1      24.666  10.902   3.000  0.00  0.00    -0.001 C 
HETATM    6  C   UNK N   1      25.661  11.933   3.353  0.00  0.00     0.011 C 
HETATM    7  C   UNK N   1      23.329  11.050   3.186  0.00  0.00     0.008 C 
HETATM    8  C   UNK N   1      25.555  18.921   3.297  0.00  0.00     0.049 C 
HETATM    9  C   UNK N   1      23.016  19.324   3.583  0.00  0.00     0.039 C 
HETATM   10  C   UNK N   1      22.252  15.626   2.946  0.00  0.00    -0.015 C 
HETATM   11  C   UNK N   1      28.723  15.908   4.221  0.00  0.00     0.090 A 
HETATM   12  C   UNK N   1      24.238  18.528   3.995  0.00  0.00    -0.012 C 
HETATM   13  C   UNK N   1      26.993  11.879   3.066  0.00  0.00    -0.011 C 
HETATM   14  C   UNK N   1      22.125  16.055   4.408  0.00  0.00     0.035 C 
HETATM   15  C   UNK N   1      22.079  14.433   2.292  0.00  0.00    -0.055 C 
HETATM   16  C   UNK N   1      26.701  17.945   3.604  0.00  0.00     0.025 A 
HETATM   17  C   UNK N   1      27.530  15.509   3.767  0.00  0.00     0.089 A 
HETATM   18  C   UNK N   1      28.979  17.356   4.382  0.00  0.00     0.201 A 
HETATM   19  C   UNK N   1      22.575  12.257   3.834  0.00  0.00     0.177 C 
HETATM   20  C   UNK N   1      21.598  18.679   3.737  0.00  0.00     0.150 C 
HETATM   21  C   UNK N   1      27.917  18.363   4.064  0.00  0.00     0.089 A 
HETATM   22  C   UNK N   1      21.315  17.389   4.621  0.00  0.00     0.154 C 
HETATM   23  C   UNK N   1      26.497  16.485   3.411  0.00  0.00     0.207 A 
HETATM   24  C   UNK N   1      21.640  13.043   2.826  0.00  0.00     0.193 C 
HETATM   25  C   UNK N   1      27.810  13.099   3.317  0.00  0.00     0.146 C 
HETATM   26  N   UNK N   1      27.158  14.165   3.602  0.00  0.00    -0.333 N 
ATOM     27  HN  UNK N   1      26.160  14.002   3.738  1.00  0.00     0.168 HD
HETATM   28  O   UNK N   1      30.076  17.730   4.769  0.00  0.00    -0.286 OA
HETATM   29  O   UNK N   1      25.465  16.057   2.911  0.00  0.00    -0.285 OA
ENDROOT
BRANCH  24  30
HETATM   30  O   UNK N   1      20.256  12.903   2.888  0.00  0.00    -0.304 OA
BRANCH  30  31
HETATM   31  C   UNK N   1      19.227  13.768   2.680  0.00  0.00     0.256 C 
HETATM   32  N   UNK N   1      18.649  13.778   1.538  0.00  0.00    -0.359 N 
HETATM   33  H   UNK N   1      18.906  14.391   0.812  0.00  0.00     0.160 HD
ATOM     34  HN  UNK N   1      17.890  13.118   1.372  1.00  0.00     0.160 HD
BRANCH  31  35
HETATM   35  O   UNK N   1      18.744  14.552   3.656  0.00  0.00    -0.327 OA
HETATM   36  H   UNK N   1      18.493  15.269   4.204  0.00  0.00     0.221 HD
ENDBRANCH  31  35
ENDBRANCH  30  31
ENDBRANCH  24  30
BRANCH  19  37
HETATM   37  O   UNK N   1      21.913  11.867   5.026  0.00  0.00    -0.384 OA
HETATM   38  C   UNK N   1      22.840  11.592   6.049  0.00  0.00     0.202 C 
ENDBRANCH  19  37
BRANCH  22  39
HETATM   39  O   UNK N   1      19.956  17.087   4.484  0.00  0.00    -0.392 OA
HETATM   40  H   UNK N   1      19.511  17.190   3.627  0.00  0.00     0.210 HD
ENDBRANCH  22  39
BRANCH  20  41
HETATM   41  O   UNK N   1      20.804  19.731   4.260  0.00  0.00    -0.388 OA
HETATM   42  C   UNK N   1      20.344  20.563   3.227  0.00  0.00     0.202 C 
ENDBRANCH  20  41
BRANCH  25  43
HETATM   43  O   UNK N   1      29.138  13.132   3.078  0.00  0.00    -0.346 OA
HETATM   44  H   UNK N   1      29.726  13.495   3.710  0.00  0.00     0.219 HD
ENDBRANCH  25  43
BRANCH  21  45
HETATM   45  N   UNK N   1      28.236  19.737   4.244  0.00  0.00    -0.383 N 
HETATM   46  H   UNK N   1      28.498  20.261   3.453  0.00  0.00     0.160 HD
BRANCH  45  47
HETATM   47  C   UNK N   1      28.199  20.404   5.522  0.00  0.00     0.146 C 
BRANCH  47  48
HETATM   48  C   UNK N   1      26.943  21.222   5.664  0.00  0.00    -0.018 C 
HETATM   49  C   UNK N   1      26.392  21.496   6.849  0.00  0.00     0.008 C 
ENDBRANCH  47  48
ENDBRANCH  45  47
ENDBRANCH  21  45
TORSDOF 10
ENDMDL
MODEL 2
REMARK VINA RESULT:      -6.6      5.005      8.818
REMARK  10 active torsions:
REMARK  status: ('A' for Active; 'I' for Inactive)
REMARK    1  A    between atoms: C_12  and  C_8 
REMARK    2  A    between atoms: N_34  and  C_12 
REMARK    3  A    between atoms: C_24  and  O_42 
REMARK    4  A    between atoms: C_25  and  O_43 
REMARK    5  A    between atoms: N_34  and  C_26 
REMARK    6  A    between atoms: C_27  and  O_38 
REMARK    7  A    between atoms: C_29  and  O_44 
REMARK    8  A    between atoms: O_40  and  C_30 
REMARK    9  A    between atoms: O_41  and  C_31 
REMARK   10  A    between atoms: O_44  and  C_31 
ROOT
HETATM    1  C   UNK N   1      27.594  15.354   5.355  0.00  0.00     0.010 C 
HETATM    2  C   UNK N   1      35.924  15.012   8.901  0.00  0.00     0.052 C 
HETATM    3  C   UNK N   1      30.413  12.117   4.004  0.00  0.00     0.017 C 
HETATM    4  C   UNK N   1      33.553  15.246   2.691  0.00  0.00     0.046 C 
HETATM    5  C   UNK N   1      35.244  13.144   6.636  0.00  0.00    -0.001 C 
HETATM    6  C   UNK N   1      34.258  13.984   7.343  0.00  0.00     0.011 C 
HETATM    7  C   UNK N   1      34.946  12.382   5.552  0.00  0.00     0.008 C 
HETATM    8  C   UNK N   1      28.682  17.635   5.236  0.00  0.00     0.049 C 
HETATM    9  C   UNK N   1      28.059  16.297   3.112  0.00  0.00     0.039 C 
HETATM   10  C   UNK N   1      31.364  14.367   3.231  0.00  0.00    -0.015 C 
HETATM   11  C   UNK N   1      30.710  17.138   9.187  0.00  0.00     0.090 A 
HETATM   12  C   UNK N   1      28.515  16.261   4.557  0.00  0.00    -0.012 C 
HETATM   13  C   UNK N   1      34.540  14.859   8.349  0.00  0.00    -0.011 C 
HETATM   14  C   UNK N   1      30.143  13.558   3.669  0.00  0.00     0.035 C 
HETATM   15  C   UNK N   1      32.702  14.080   3.126  0.00  0.00    -0.055 C 
HETATM   16  C   UNK N   1      29.341  17.532   6.621  0.00  0.00     0.025 A 
HETATM   17  C   UNK N   1      31.240  16.589   8.088  0.00  0.00     0.089 A 
HETATM   18  C   UNK N   1      29.467  17.928   9.063  0.00  0.00     0.201 A 
HETATM   19  C   UNK N   1      33.554  12.183   4.868  0.00  0.00     0.177 C 
HETATM   20  C   UNK N   1      28.412  15.097   2.171  0.00  0.00     0.150 C 
HETATM   21  C   UNK N   1      28.794  18.099   7.737  0.00  0.00     0.089 A 
HETATM   22  C   UNK N   1      28.905  13.683   2.704  0.00  0.00     0.154 C 
HETATM   23  C   UNK N   1      30.616  16.784   6.777  0.00  0.00     0.207 A 
HETATM   24  C   UNK N   1      33.475  12.763   3.395  0.00  0.00     0.193 C 
HETATM   25  C   UNK N   1      33.455  15.772   8.805  0.00  0.00     0.146 C 
HETATM   26  N   UNK N   1      32.397  15.793   8.082  0.00  0.00    -0.333 N 
ATOM     27  HN  UNK N   1      32.395  15.083   7.349  1.00  0.00     0.168 HD
HETATM   28  O   UNK N   1      28.993  18.457  10.058  0.00  0.00    -0.286 OA
HETATM   29  O   UNK N   1      31.204  16.337   5.800  0.00  0.00    -0.285 OA
ENDROOT
BRANCH  24  30
HETATM   30  O   UNK N   1      33.480  11.906   2.297  0.00  0.00    -0.304 OA
BRANCH  30  31
HETATM   31  C   UNK N   1      32.996  12.021   1.032  0.00  0.00     0.256 C 
HETATM   32  N   UNK N   1      31.859  11.501   0.756  0.00  0.00    -0.359 N 
HETATM   33  H   UNK N   1      31.759  10.596   0.381  0.00  0.00     0.160 HD
ATOM     34  HN  UNK N   1      31.018  12.051   0.933  1.00  0.00     0.160 HD
BRANCH  31  35
HETATM   35  O   UNK N   1      33.630  12.729   0.085  0.00  0.00    -0.327 OA
HETATM   36  H   UNK N   1      34.014  13.044  -0.710  0.00  0.00     0.221 HD
ENDBRANCH  31  35
ENDBRANCH  30  31
ENDBRANCH  24  30
BRANCH  19  37
HETATM   37  O   UNK N   1      33.123  10.836   4.965  0.00  0.00    -0.384 OA
HETATM   38  C   UNK N   1      32.874  10.483   6.305  0.00  0.00     0.202 C 
ENDBRANCH  19  37
BRANCH  22  39
HETATM   39  O   UNK N   1      29.160  12.888   1.581  0.00  0.00    -0.392 OA
HETATM   40  H   UNK N   1      28.694  12.046   1.455  0.00  0.00     0.210 HD
ENDBRANCH  22  39
BRANCH  20  41
HETATM   41  O   UNK N   1      27.216  14.879   1.440  0.00  0.00    -0.388 OA
HETATM   42  C   UNK N   1      26.171  15.659   1.957  0.00  0.00     0.202 C 
ENDBRANCH  20  41
BRANCH  25  43
HETATM   43  O   UNK N   1      33.638  16.658   9.806  0.00  0.00    -0.346 OA
HETATM   44  H   UNK N   1      33.423  16.431  10.688  0.00  0.00     0.219 HD
ENDBRANCH  25  43
BRANCH  21  45
HETATM   45  N   UNK N   1      27.602  18.872   7.696  0.00  0.00    -0.383 N 
HETATM   46  H   UNK N   1      26.752  18.430   7.924  0.00  0.00     0.160 HD
BRANCH  45  47
HETATM   47  C   UNK N   1      27.569  20.270   7.339  0.00  0.00     0.146 C 
BRANCH  47  48
HETATM   48  C   UNK N   1      26.580  20.516   6.231  0.00  0.00    -0.018 C 
HETATM   49  C   UNK N   1      26.956  20.827   4.987  0.00  0.00     0.008 C 
ENDBRANCH  47  48
ENDBRANCH  45  47
ENDBRANCH  21  45
TORSDOF 10
ENDMDL
MODEL 3
REMARK VINA RESULT:      -6.4     12.669     14.993
REMARK  10 active torsions:
REMARK  status: ('A' for Active; 'I' for Inactive)
REMARK    1  A    between atoms: C_12  and  C_8 
REMARK    2  A    between atoms: N_34  and  C_12 
REMARK    3  A    between atoms: C_24  and  O_42 
REMARK    4  A    between atoms: C_25  and  O_43 
REMARK    5  A    between atoms: N_34  and  C_26 
REMARK    6  A    between atoms: C_27  and  O_38 
REMARK    7  A    between atoms: C_29  and  O_44 
REMARK    8  A    between atoms: O_40  and  C_30 
REMARK    9  A    between atoms: O_41  and  C_31 
REMARK   10  A    between atoms: O_44  and  C_31 
ROOT
HETATM    1  C   UNK N   1      26.380  22.755  -7.449  0.00  0.00     0.010 C 
HETATM    2  C   UNK N   1      34.242  20.659  -3.463  0.00  0.00     0.052 C 
HETATM    3  C   UNK N   1      29.249  20.017  -9.577  0.00  0.00     0.017 C 
HETATM    4  C   UNK N   1      32.599  23.196  -9.387  0.00  0.00     0.046 C 
HETATM    5  C   UNK N   1      33.775  19.746  -6.296  0.00  0.00    -0.001 C 
HETATM    6  C   UNK N   1      32.737  20.349  -5.438  0.00  0.00     0.011 C 
HETATM    7  C   UNK N   1      33.582  19.431  -7.604  0.00  0.00     0.008 C 
HETATM    8  C   UNK N   1      27.535  24.857  -6.646  0.00  0.00     0.049 C 
HETATM    9  C   UNK N   1      27.122  24.389  -9.156  0.00  0.00     0.039 C 
HETATM   10  C   UNK N   1      30.340  22.328  -9.408  0.00  0.00    -0.015 C 
HETATM   11  C   UNK N   1      29.088  22.884  -2.950  0.00  0.00     0.090 A 
HETATM   12  C   UNK N   1      27.410  23.821  -7.780  0.00  0.00    -0.012 C 
HETATM   13  C   UNK N   1      32.926  20.798  -4.164  0.00  0.00    -0.011 C 
HETATM   14  C   UNK N   1      29.057  21.498  -9.405  0.00  0.00     0.035 C 
HETATM   15  C   UNK N   1      31.673  22.010  -9.477  0.00  0.00    -0.055 C 
HETATM   16  C   UNK N   1      28.029  24.236  -5.331  0.00  0.00     0.025 A 
HETATM   17  C   UNK N   1      29.724  22.720  -4.115  0.00  0.00     0.089 A 
HETATM   18  C   UNK N   1      27.887  23.746  -2.906  0.00  0.00     0.201 A 
HETATM   19  C   UNK N   1      32.272  19.574  -8.445  0.00  0.00     0.177 C 
HETATM   20  C   UNK N   1      27.548  23.572 -10.422  0.00  0.00     0.150 C 
HETATM   21  C   UNK N   1      27.374  24.413  -4.145  0.00  0.00     0.089 A 
HETATM   22  C   UNK N   1      27.940  22.032 -10.379  0.00  0.00     0.154 C 
HETATM   23  C   UNK N   1      29.259  23.399  -5.327  0.00  0.00     0.207 A 
HETATM   24  C   UNK N   1      32.376  20.634  -9.618  0.00  0.00     0.193 C 
HETATM   25  C   UNK N   1      31.820  21.562  -3.522  0.00  0.00     0.146 C 
HETATM   26  N   UNK N   1      30.852  21.903  -4.290  0.00  0.00    -0.333 N 
ATOM     27  HN  UNK N   1      30.915  21.495  -5.224  1.00  0.00     0.168 HD
HETATM   28  O   UNK N   1      27.318  23.924  -1.839  0.00  0.00    -0.286 OA
HETATM   29  O   UNK N   1      29.941  23.284  -6.336  0.00  0.00    -0.285 OA
ENDROOT
BRANCH  24  30
HETATM   30  O   UNK N   1      32.483  20.216 -10.942  0.00  0.00    -0.304 OA
BRANCH  30  31
HETATM   31  C   UNK N   1      31.561  19.879 -11.883  0.00  0.00     0.256 C 
HETATM   32  N   UNK N   1      31.250  18.645 -12.030  0.00  0.00    -0.359 N 
HETATM   33  H   UNK N   1      31.685  18.057 -12.688  0.00  0.00     0.160 HD
ATOM     34  HN  UNK N   1      30.520  18.255 -11.435  1.00  0.00     0.160 HD
BRANCH  31  35
HETATM   35  O   UNK N   1      30.906  20.801 -12.605  0.00  0.00    -0.327 OA
HETATM   36  H   UNK N   1      30.415  21.542 -12.902  0.00  0.00     0.221 HD
ENDBRANCH  31  35
ENDBRANCH  30  31
ENDBRANCH  24  30
BRANCH  19  37
HETATM   37  O   UNK N   1      31.797  18.308  -8.873  0.00  0.00    -0.384 OA
HETATM   38  C   UNK N   1      32.863  17.406  -9.051  0.00  0.00     0.202 C 
ENDBRANCH  19  37
BRANCH  22  39
HETATM   39  O   UNK N   1      28.299  21.664 -11.680  0.00  0.00    -0.392 OA
HETATM   40  H   UNK N   1      27.841  22.044 -12.446  0.00  0.00     0.210 HD
ENDBRANCH  22  39
BRANCH  20  41
HETATM   41  O   UNK N   1      26.437  23.700 -11.295  0.00  0.00    -0.388 OA
HETATM   42  C   UNK N   1      25.606  24.754 -10.887  0.00  0.00     0.202 C 
ENDBRANCH  20  41
BRANCH  25  43
HETATM   43  O   UNK N   1      31.913  22.030  -2.260  0.00  0.00    -0.346 OA
HETATM   44  H   UNK N   1      32.369  21.542  -1.604  0.00  0.00     0.219 HD
ENDBRANCH  25  43
BRANCH  21  45
HETATM   45  N   UNK N   1      26.215  25.226  -4.025  0.00  0.00    -0.383 N 
HETATM   46  H   UNK N   1      25.339  24.819  -4.211  0.00  0.00     0.160 HD
BRANCH  45  47
HETATM   47  C   UNK N   1      26.253  26.618  -3.646  0.00  0.00     0.146 C 
BRANCH  47  48
HETATM   48  C   UNK N   1      25.547  27.471  -4.666  0.00  0.00    -0.018 C 
HETATM   49  C   UNK N   1      24.802  26.952  -5.647  0.00  0.00     0.008 C 
ENDBRANCH  47  48
ENDBRANCH  45  47
ENDBRANCH  21  45
TORSDOF 10
ENDMDL
MODEL 4
REMARK VINA RESULT:      -6.4      4.120      9.316
REMARK  10 active torsions:
REMARK  status: ('A' for Active; 'I' for Inactive)
REMARK    1  A    between atoms: C_12  and  C_8 
REMARK    2  A    between atoms: N_34  and  C_12 
REMARK    3  A    between atoms: C_24  and  O_42 
REMARK    4  A    between atoms: C_25  and  O_43 
REMARK    5  A    between atoms: N_34  and  C_26 
REMARK    6  A    between atoms: C_27  and  O_38 
REMARK    7  A    between atoms: C_29  and  O_44 
REMARK    8  A    between atoms: O_40  and  C_30 
REMARK    9  A    between atoms: O_41  and  C_31 
REMARK   10  A    between atoms: O_44  and  C_31 
ROOT
HETATM    1  C   UNK N   1      30.238  17.965   4.810  0.00  0.00     0.010 C 
HETATM    2  C   UNK N   1      27.945  10.264   0.624  0.00  0.00     0.052 C 
HETATM    3  C   UNK N   1      33.467  15.447   2.941  0.00  0.00     0.017 C 
HETATM    4  C   UNK N   1      32.232  11.784   5.476  0.00  0.00     0.046 C 
HETATM    5  C   UNK N   1      30.870  10.893   0.982  0.00  0.00    -0.001 C 
HETATM    6  C   UNK N   1      29.776  11.841   1.270  0.00  0.00     0.011 C 
HETATM    7  C   UNK N   1      32.179  11.150   1.243  0.00  0.00     0.008 C 
HETATM    8  C   UNK N   1      28.735  16.580   6.301  0.00  0.00     0.049 C 
HETATM    9  C   UNK N   1      31.190  17.101   6.928  0.00  0.00     0.039 C 
HETATM   10  C   UNK N   1      32.454  14.120   4.884  0.00  0.00    -0.015 C 
HETATM   11  C   UNK N   1      26.251  15.147   2.874  0.00  0.00     0.090 A 
HETATM   12  C   UNK N   1      30.179  16.840   5.829  0.00  0.00    -0.012 C 
HETATM   13  C   UNK N   1      28.445  11.575   1.146  0.00  0.00    -0.011 C 
HETATM   14  C   UNK N   1      32.702  15.481   4.235  0.00  0.00     0.035 C 
HETATM   15  C   UNK N   1      32.731  12.829   4.511  0.00  0.00    -0.055 C 
HETATM   16  C   UNK N   1      27.815  16.119   5.160  0.00  0.00     0.025 A 
HETATM   17  C   UNK N   1      27.422  14.560   3.145  0.00  0.00     0.089 A 
HETATM   18  C   UNK N   1      25.787  16.251   3.742  0.00  0.00     0.201 A 
HETATM   19  C   UNK N   1      32.805  12.459   1.824  0.00  0.00     0.177 C 
HETATM   20  C   UNK N   1      32.702  16.794   6.662  0.00  0.00     0.150 C 
HETATM   21  C   UNK N   1      26.618  16.723   4.895  0.00  0.00     0.089 A 
HETATM   22  C   UNK N   1      33.305  16.562   5.211  0.00  0.00     0.154 C 
HETATM   23  C   UNK N   1      28.226  14.983   4.294  0.00  0.00     0.207 A 
HETATM   24  C   UNK N   1      33.457  12.275   3.256  0.00  0.00     0.193 C 
HETATM   25  C   UNK N   1      27.481  12.580   1.674  0.00  0.00     0.146 C 
HETATM   26  N   UNK N   1      27.983  13.527   2.377  0.00  0.00    -0.333 N 
ATOM     27  HN  UNK N   1      29.003  13.529   2.380  1.00  0.00     0.168 HD
HETATM   28  O   UNK N   1      24.704  16.772   3.519  0.00  0.00    -0.286 OA
HETATM   29  O   UNK N   1      29.238  14.341   4.541  0.00  0.00    -0.285 OA
ENDROOT
BRANCH  24  30
HETATM   30  O   UNK N   1      34.842  12.245   3.404  0.00  0.00    -0.304 OA
BRANCH  30  31
HETATM   31  C   UNK N   1      35.790  13.220   3.446  0.00  0.00     0.256 C 
HETATM   32  N   UNK N   1      36.381  13.554   2.361  0.00  0.00    -0.359 N 
HETATM   33  H   UNK N   1      37.237  13.163   2.074  0.00  0.00     0.160 HD
ATOM     34  HN  UNK N   1      35.943  14.257   1.767  1.00  0.00     0.160 HD
BRANCH  31  35
HETATM   35  O   UNK N   1      36.067  13.899   4.570  0.00  0.00    -0.327 OA
HETATM   36  H   UNK N   1      36.208  14.557   5.222  0.00  0.00     0.221 HD
ENDBRANCH  31  35
ENDBRANCH  30  31
ENDBRANCH  24  30
BRANCH  19  37
HETATM   37  O   UNK N   1      33.674  13.072   0.886  0.00  0.00    -0.384 OA
HETATM   38  C   UNK N   1      34.076  12.152  -0.101  0.00  0.00     0.202 C 
ENDBRANCH  19  37
BRANCH  22  39
HETATM   39  O   UNK N   1      34.666  16.275   5.373  0.00  0.00    -0.392 OA
HETATM   40  H   UNK N   1      35.173  16.675   6.097  0.00  0.00     0.210 HD
ENDBRANCH  22  39
BRANCH  20  41
HETATM   41  O   UNK N   1      33.377  17.907   7.227  0.00  0.00    -0.388 OA
HETATM   42  C   UNK N   1      33.821  17.609   8.524  0.00  0.00     0.202 C 
ENDBRANCH  20  41
BRANCH  25  43
HETATM   43  O   UNK N   1      26.145  12.408   1.580  0.00  0.00    -0.346 OA
HETATM   44  H   UNK N   1      25.571  12.784   2.218  0.00  0.00     0.219 HD
ENDBRANCH  25  43
BRANCH  21  45
HETATM   45  N   UNK N   1      26.107  17.788   5.684  0.00  0.00    -0.383 N 
HETATM   46  H   UNK N   1      25.627  17.564   6.514  0.00  0.00     0.160 HD
BRANCH  45  47
HETATM   47  C   UNK N   1      26.250  19.181   5.335  0.00  0.00     0.146 C 
BRANCH  47  48
HETATM   48  C   UNK N   1      27.224  19.867   6.254  0.00  0.00    -0.018 C 
HETATM   49  C   UNK N   1      27.515  21.167   6.155  0.00  0.00     0.008 C 
ENDBRANCH  47  48
ENDBRANCH  45  47
ENDBRANCH  21  45
TORSDOF 10
ENDMDL
MODEL 5
REMARK VINA RESULT:      -6.4      5.443     10.375
REMARK  10 active torsions:
REMARK  status: ('A' for Active; 'I' for Inactive)
REMARK    1  A    between atoms: C_12  and  C_8 
REMARK    2  A    between atoms: N_34  and  C_12 
REMARK    3  A    between atoms: C_24  and  O_42 
REMARK    4  A    between atoms: C_25  and  O_43 
REMARK    5  A    between atoms: N_34  and  C_26 
REMARK    6  A    between atoms: C_27  and  O_38 
REMARK    7  A    between atoms: C_29  and  O_44 
REMARK    8  A    between atoms: O_40  and  C_30 
REMARK    9  A    between atoms: O_41  and  C_31 
REMARK   10  A    between atoms: O_44  and  C_31 
ROOT
HETATM    1  C   UNK N   1      29.913  17.516   5.492  0.00  0.00     0.010 C 
HETATM    2  C   UNK N   1      34.066   9.898   2.884  0.00  0.00     0.052 C 
HETATM    3  C   UNK N   1      34.218  16.871   6.636  0.00  0.00     0.017 C 
HETATM    4  C   UNK N   1      33.176  12.896   8.753  0.00  0.00     0.046 C 
HETATM    5  C   UNK N   1      35.522  11.767   4.746  0.00  0.00    -0.001 C 
HETATM    6  C   UNK N   1      34.250  12.092   4.071  0.00  0.00     0.011 C 
HETATM    7  C   UNK N   1      36.118  12.575   5.661  0.00  0.00     0.008 C 
HETATM    8  C   UNK N   1      28.492  15.507   6.078  0.00  0.00     0.049 C 
HETATM    9  C   UNK N   1      29.505  17.050   7.890  0.00  0.00     0.039 C 
HETATM   10  C   UNK N   1      32.806  15.108   7.845  0.00  0.00    -0.015 C 
HETATM   11  C   UNK N   1      29.618  13.319   2.349  0.00  0.00     0.090 A 
HETATM   12  C   UNK N   1      29.650  16.426   6.517  0.00  0.00    -0.012 C 
HETATM   13  C   UNK N   1      33.555  11.257   3.248  0.00  0.00    -0.011 C 
HETATM   14  C   UNK N   1      32.865  16.471   7.155  0.00  0.00     0.035 C 
HETATM   15  C   UNK N   1      33.726  14.112   8.053  0.00  0.00    -0.055 C 
HETATM   16  C   UNK N   1      28.799  14.751   4.777  0.00  0.00     0.025 A 
HETATM   17  C   UNK N   1      30.441  13.315   3.403  0.00  0.00     0.089 A 
HETATM   18  C   UNK N   1      28.327  14.032   2.453  0.00  0.00     0.201 A 
HETATM   19  C   UNK N   1      35.652  13.986   6.147  0.00  0.00     0.177 C 
HETATM   20  C   UNK N   1      30.793  17.483   8.670  0.00  0.00     0.150 C 
HETATM   21  C   UNK N   1      27.949  14.758   3.707  0.00  0.00     0.089 A 
HETATM   22  C   UNK N   1      32.217  17.644   7.985  0.00  0.00     0.154 C 
HETATM   23  C   UNK N   1      30.067  13.984   4.651  0.00  0.00     0.207 A 
HETATM   24  C   UNK N   1      35.228  14.030   7.673  0.00  0.00     0.193 C 
HETATM   25  C   UNK N   1      32.191  11.676   2.820  0.00  0.00     0.146 C 
HETATM   26  N   UNK N   1      31.704  12.701   3.415  0.00  0.00    -0.333 N 
ATOM     27  HN  UNK N   1      32.374  13.169   4.026  1.00  0.00     0.168 HD
HETATM   28  O   UNK N   1      27.556  14.016   1.504  0.00  0.00    -0.286 OA
HETATM   29  O   UNK N   1      30.821  13.861   5.606  0.00  0.00    -0.285 OA
ENDROOT
BRANCH  24  30
HETATM   30  O   UNK N   1      36.057  14.626   8.620  0.00  0.00    -0.304 OA
BRANCH  30  31
HETATM   31  C   UNK N   1      35.812  15.252   9.802  0.00  0.00     0.256 C 
HETATM   32  N   UNK N   1      35.924  14.586  10.889  0.00  0.00    -0.359 N 
HETATM   33  H   UNK N   1      35.164  14.136  11.324  0.00  0.00     0.160 HD
ATOM     34  HN  UNK N   1      36.844  14.518  11.324  1.00  0.00     0.160 HD
BRANCH  31  35
HETATM   35  O   UNK N   1      35.537  16.564   9.872  0.00  0.00    -0.327 OA
HETATM   36  H   UNK N   1      35.573  17.500   9.880  0.00  0.00     0.221 HD
ENDBRANCH  31  35
ENDBRANCH  30  31
ENDBRANCH  24  30
BRANCH  19  37
HETATM   37  O   UNK N   1      36.595  14.986   5.797  0.00  0.00    -0.384 OA
HETATM   38  C   UNK N   1      37.860  14.419   5.552  0.00  0.00     0.202 C 
ENDBRANCH  19  37
BRANCH  22  39
HETATM   39  O   UNK N   1      33.120  17.999   8.994  0.00  0.00    -0.392 OA
HETATM   40  H   UNK N   1      33.271  17.411   9.751  0.00  0.00     0.210 HD
ENDBRANCH  22  39
BRANCH  20  41
HETATM   41  O   UNK N   1      30.445  18.743   9.221  0.00  0.00    -0.388 OA
HETATM   42  C   UNK N   1      29.054  18.930   9.190  0.00  0.00     0.202 C 
ENDBRANCH  20  41
BRANCH  25  43
HETATM   43  O   UNK N   1      31.437  10.921   1.993  0.00  0.00    -0.346 OA
HETATM   44  H   UNK N   1      31.233  10.034   2.213  0.00  0.00     0.219 HD
ENDBRANCH  25  43
BRANCH  21  45
HETATM   45  N   UNK N   1      26.692  15.421   3.733  0.00  0.00    -0.383 N 
HETATM   46  H   UNK N   1      25.916  14.934   4.094  0.00  0.00     0.160 HD
BRANCH  45  47
HETATM   47  C   UNK N   1      26.490  16.768   3.256  0.00  0.00     0.146 C 
BRANCH  47  48
HETATM   48  C   UNK N   1      25.748  17.591   4.275  0.00  0.00    -0.018 C 
HETATM   49  C   UNK N   1      26.366  18.432   5.110  0.00  0.00     0.008 C 
ENDBRANCH  47  48
ENDBRANCH  45  47
ENDBRANCH  21  45
TORSDOF 10
ENDMDL
MODEL 6
REMARK VINA RESULT:      -6.3      4.926     11.200
REMARK  10 active torsions:
REMARK  status: ('A' for Active; 'I' for Inactive)
REMARK    1  A    between atoms: C_12  and  C_8 
REMARK    2  A    between atoms: N_34  and  C_12 
REMARK    3  A    between atoms: C_24  and  O_42 
REMARK    4  A    between atoms: C_25  and  O_43 
REMARK    5  A    between atoms: N_34  and  C_26 
REMARK    6  A    between atoms: C_27  and  O_38 
REMARK    7  A    between atoms: C_29  and  O_44 
REMARK    8  A    between atoms: O_40  and  C_30 
REMARK    9  A    between atoms: O_41  and  C_31 
REMARK   10  A    between atoms: O_44  and  C_31 
ROOT
HETATM    1  C   UNK N   1      32.620  11.401   4.517  0.00  0.00     0.010 C 
HETATM    2  C   UNK N   1      26.514  18.061   3.847  0.00  0.00     0.052 C 
HETATM    3  C   UNK N   1      32.325  14.437   7.826  0.00  0.00     0.017 C 
HETATM    4  C   UNK N   1      33.085  17.904   4.865  0.00  0.00     0.046 C 
HETATM    5  C   UNK N   1      28.482  18.134   6.129  0.00  0.00    -0.001 C 
HETATM    6  C   UNK N   1      28.314  16.988   5.215  0.00  0.00     0.011 C 
HETATM    7  C   UNK N   1      29.440  18.198   7.090  0.00  0.00     0.008 C 
HETATM    8  C   UNK N   1      32.797  12.518   2.254  0.00  0.00     0.049 C 
HETATM    9  C   UNK N   1      34.717  12.609   3.985  0.00  0.00     0.039 C 
HETATM   10  C   UNK N   1      33.147  15.641   5.720  0.00  0.00    -0.015 C 
HETATM   11  C   UNK N   1      28.379  13.100   1.927  0.00  0.00     0.090 A 
HETATM   12  C   UNK N   1      33.223  12.556   3.735  0.00  0.00    -0.012 C 
HETATM   13  C   UNK N   1      27.454  16.938   4.158  0.00  0.00    -0.011 C 
HETATM   14  C   UNK N   1      32.995  14.326   6.485  0.00  0.00     0.035 C 
HETATM   15  C   UNK N   1      32.746  16.930   5.965  0.00  0.00    -0.055 C 
HETATM   16  C   UNK N   1      31.280  12.674   2.071  0.00  0.00     0.025 A 
HETATM   17  C   UNK N   1      29.116  13.953   2.646  0.00  0.00     0.089 A 
HETATM   18  C   UNK N   1      29.055  11.987   1.226  0.00  0.00     0.201 A 
HETATM   19  C   UNK N   1      30.496  17.110   7.470  0.00  0.00     0.177 C 
HETATM   20  C   UNK N   1      35.243  13.229   5.323  0.00  0.00     0.150 C 
HETATM   21  C   UNK N   1      30.537  11.799   1.331  0.00  0.00     0.089 A 
HETATM   22  C   UNK N   1      34.322  13.484   6.592  0.00  0.00     0.154 C 
HETATM   23  C   UNK N   1      30.572  13.807   2.723  0.00  0.00     0.207 A 
HETATM   24  C   UNK N   1      31.993  17.540   7.176  0.00  0.00     0.193 C 
HETATM   25  C   UNK N   1      27.565  15.783   3.223  0.00  0.00     0.146 C 
HETATM   26  N   UNK N   1      28.588  15.028   3.380  0.00  0.00    -0.333 N 
ATOM     27  HN  UNK N   1      29.133  15.255   4.213  1.00  0.00     0.168 HD
HETATM   28  O   UNK N   1      28.391  11.220   0.542  0.00  0.00    -0.286 OA
HETATM   29  O   UNK N   1      31.196  14.677   3.318  0.00  0.00    -0.285 OA
ENDROOT
BRANCH  24  30
HETATM   30  O   UNK N   1      32.845  17.891   8.220  0.00  0.00    -0.304 OA
BRANCH  30  31
HETATM   31  C   UNK N   1      34.197  17.863   8.360  0.00  0.00     0.256 C 
HETATM   32  N   UNK N   1      34.745  16.823   8.867  0.00  0.00    -0.359 N 
HETATM   33  H   UNK N   1      34.953  16.739   9.825  0.00  0.00     0.160 HD
ATOM     34  HN  UNK N   1      34.975  16.046   8.248  1.00  0.00     0.160 HD
BRANCH  31  35
HETATM   35  O   UNK N   1      34.983  18.854   7.911  0.00  0.00    -0.327 OA
HETATM   36  H   UNK N   1      35.637  19.516   7.802  0.00  0.00     0.221 HD
ENDBRANCH  31  35
ENDBRANCH  30  31
ENDBRANCH  24  30
BRANCH  19  37
HETATM   37  O   UNK N   1      30.296  16.641   8.793  0.00  0.00    -0.384 OA
HETATM   38  C   UNK N   1      29.543  17.563   9.544  0.00  0.00     0.202 C 
ENDBRANCH  19  37
BRANCH  22  39
HETATM   39  O   UNK N   1      35.125  14.081   7.570  0.00  0.00    -0.392 OA
HETATM   40  H   UNK N   1      34.733  14.433   8.385  0.00  0.00     0.210 HD
ENDBRANCH  22  39
BRANCH  20  41
HETATM   41  O   UNK N   1      36.275  12.340   5.723  0.00  0.00    -0.388 OA
HETATM   42  C   UNK N   1      37.523  12.798   5.272  0.00  0.00     0.202 C 
ENDBRANCH  20  41
BRANCH  25  43
HETATM   43  O   UNK N   1      26.746  15.642   2.160  0.00  0.00    -0.346 OA
HETATM   44  H   UNK N   1      25.838  15.448   2.281  0.00  0.00     0.219 HD
ENDBRANCH  25  43
BRANCH  21  45
HETATM   45  N   UNK N   1      31.115  10.707   0.629  0.00  0.00    -0.383 N 
HETATM   46  H   UNK N   1      31.397   9.918   1.147  0.00  0.00     0.160 HD
BRANCH  45  47
HETATM   47  C   UNK N   1      31.311  10.690  -0.800  0.00  0.00     0.146 C 
BRANCH  47  48
HETATM   48  C   UNK N   1      32.709  11.121  -1.154  0.00  0.00    -0.018 C 
HETATM   49  C   UNK N   1      32.979  12.307  -1.707  0.00  0.00     0.008 C 
ENDBRANCH  47  48
ENDBRANCH  45  47
ENDBRANCH  21  45
TORSDOF 10
ENDMDL
MODEL 7
REMARK VINA RESULT:      -6.1      3.415      5.349
REMARK  10 active torsions:
REMARK  status: ('A' for Active; 'I' for Inactive)
REMARK    1  A    between atoms: C_12  and  C_8 
REMARK    2  A    between atoms: N_34  and  C_12 
REMARK    3  A    between atoms: C_24  and  O_42 
REMARK    4  A    between atoms: C_25  and  O_43 
REMARK    5  A    between atoms: N_34  and  C_26 
REMARK    6  A    between atoms: C_27  and  O_38 
REMARK    7  A    between atoms: C_29  and  O_44 
REMARK    8  A    between atoms: O_40  and  C_30 
REMARK    9  A    between atoms: O_41  and  C_31 
REMARK   10  A    between atoms: O_44  and  C_31 
ROOT
HETATM    1  C   UNK N   1      30.267  15.738   6.430  0.00  0.00     0.010 C 
HETATM    2  C   UNK N   1      29.249  10.093  -0.583  0.00  0.00     0.052 C 
HETATM    3  C   UNK N   1      26.263  13.801   5.746  0.00  0.00     0.017 C 
HETATM    4  C   UNK N   1      26.028  15.538   1.469  0.00  0.00     0.046 C 
HETATM    5  C   UNK N   1      26.815  10.845   1.026  0.00  0.00    -0.001 C 
HETATM    6  C   UNK N   1      28.200  11.179   1.412  0.00  0.00     0.011 C 
HETATM    7  C   UNK N   1      25.719  11.275   1.704  0.00  0.00     0.008 C 
HETATM    8  C   UNK N   1      31.145  16.813   4.315  0.00  0.00     0.049 C 
HETATM    9  C   UNK N   1      29.108  17.763   5.596  0.00  0.00     0.039 C 
HETATM   10  C   UNK N   1      26.724  15.378   3.781  0.00  0.00    -0.015 C 
HETATM   11  C   UNK N   1      32.779  12.961   2.747  0.00  0.00     0.090 A 
HETATM   12  C   UNK N   1      29.906  16.539   5.191  0.00  0.00    -0.012 C 
HETATM   13  C   UNK N   1      29.317  10.878   0.690  0.00  0.00    -0.011 C 
HETATM   14  C   UNK N   1      27.012  14.999   5.233  0.00  0.00     0.035 C 
HETATM   15  C   UNK N   1      25.954  14.820   2.792  0.00  0.00    -0.055 C 
HETATM   16  C   UNK N   1      31.781  15.524   3.773  0.00  0.00     0.025 A 
HETATM   17  C   UNK N   1      31.479  13.243   2.609  0.00  0.00     0.089 A 
HETATM   18  C   UNK N   1      33.661  13.953   3.399  0.00  0.00     0.201 A 
HETATM   19  C   UNK N   1      25.671  12.131   3.012  0.00  0.00     0.177 C 
HETATM   20  C   UNK N   1      27.590  17.601   5.944  0.00  0.00     0.150 C 
HETATM   21  C   UNK N   1      33.111  15.247   3.916  0.00  0.00     0.089 A 
HETATM   22  C   UNK N   1      26.907  16.200   6.248  0.00  0.00     0.154 C 
HETATM   23  C   UNK N   1      30.935  14.523   3.071  0.00  0.00     0.207 A 
HETATM   24  C   UNK N   1      25.036  13.569   2.813  0.00  0.00     0.193 C 
HETATM   25  C   UNK N   1      30.611  11.470   1.129  0.00  0.00     0.146 C 
HETATM   26  N   UNK N   1      30.539  12.371   2.038  0.00  0.00    -0.333 N 
ATOM     27  HN  UNK N   1      29.601  12.476   2.427  1.00  0.00     0.168 HD
HETATM   28  O   UNK N   1      34.855  13.715   3.503  0.00  0.00    -0.286 OA
HETATM   29  O   UNK N   1      29.759  14.757   2.827  0.00  0.00    -0.285 OA
ENDROOT
BRANCH  24  30
HETATM   30  O   UNK N   1      23.755  13.847   3.283  0.00  0.00    -0.304 OA
BRANCH  30  31
HETATM   31  C   UNK N   1      23.149  14.993   3.695  0.00  0.00     0.256 C 
HETATM   32  N   UNK N   1      22.383  15.615   2.880  0.00  0.00    -0.359 N 
HETATM   33  H   UNK N   1      22.694  16.351   2.307  0.00  0.00     0.160 HD
ATOM     34  HN  UNK N   1      21.404  15.333   2.823  1.00  0.00     0.160 HD
BRANCH  31  35
HETATM   35  O   UNK N   1      23.262  15.448   4.952  0.00  0.00    -0.327 OA
HETATM   36  H   UNK N   1      23.132  15.667   5.854  0.00  0.00     0.221 HD
ENDBRANCH  31  35
ENDBRANCH  30  31
ENDBRANCH  24  30
BRANCH  19  37
HETATM   37  O   UNK N   1      25.088  11.403   4.080  0.00  0.00    -0.384 OA
HETATM   38  C   UNK N   1      25.935  10.359   4.497  0.00  0.00     0.202 C 
ENDBRANCH  19  37
BRANCH  22  39
HETATM   39  O   UNK N   1      25.547  16.446   6.473  0.00  0.00    -0.392 OA
HETATM   40  H   UNK N   1      25.081  17.136   5.975  0.00  0.00     0.210 HD
ENDBRANCH  22  39
BRANCH  20  41
HETATM   41  O   UNK N   1      27.420  18.412   7.096  0.00  0.00    -0.388 OA
HETATM   42  C   UNK N   1      28.213  17.940   8.153  0.00  0.00     0.202 C 
ENDBRANCH  20  41
BRANCH  25  43
HETATM   43  O   UNK N   1      31.769  11.215   0.485  0.00  0.00    -0.346 OA
HETATM   44  H   UNK N   1      32.311  10.497   0.747  0.00  0.00     0.219 HD
ENDBRANCH  25  43
BRANCH  21  45
HETATM   45  N   UNK N   1      34.020  16.151   4.530  0.00  0.00    -0.383 N 
HETATM   46  H   UNK N   1      34.529  16.764   3.952  0.00  0.00     0.160 HD
BRANCH  45  47
HETATM   47  C   UNK N   1      34.238  16.218   5.955  0.00  0.00     0.146 C 
BRANCH  47  48
HETATM   48  C   UNK N   1      33.833  17.564   6.496  0.00  0.00    -0.018 C 
HETATM   49  C   UNK N   1      33.208  17.710   7.668  0.00  0.00     0.008 C 
ENDBRANCH  47  48
ENDBRANCH  45  47
ENDBRANCH  21  45
TORSDOF 10
ENDMDL
MODEL 8
REMARK VINA RESULT:      -6.0      1.782      2.371
REMARK  10 active torsions:
REMARK  status: ('A' for Active; 'I' for Inactive)
REMARK    1  A    between atoms: C_12  and  C_8 
REMARK    2  A    between atoms: N_34  and  C_12 
REMARK    3  A    between atoms: C_24  and  O_42 
REMARK    4  A    between atoms: C_25  and  O_43 
REMARK    5  A    between atoms: N_34  and  C_26 
REMARK    6  A    between atoms: C_27  and  O_38 
REMARK    7  A    between atoms: C_29  and  O_44 
REMARK    8  A    between atoms: O_40  and  C_30 
REMARK    9  A    between atoms: O_41  and  C_31 
REMARK   10  A    between atoms: O_44  and  C_31 
ROOT
HETATM    1  C   UNK N   1      25.130  16.315   5.538  0.00  0.00     0.010 C 
HETATM    2  C   UNK N   1      28.974  10.365  -0.110  0.00  0.00     0.052 C 
HETATM    3  C   UNK N   1      23.001  12.448   4.656  0.00  0.00     0.017 C 
HETATM    4  C   UNK N   1      23.030  13.339   0.120  0.00  0.00     0.046 C 
HETATM    5  C   UNK N   1      26.177   9.821   0.869  0.00  0.00    -0.001 C 
HETATM    6  C   UNK N   1      27.045  10.893   1.393  0.00  0.00     0.011 C 
HETATM    7  C   UNK N   1      24.883   9.648   1.246  0.00  0.00     0.008 C 
HETATM    8  C   UNK N   1      25.850  17.478   3.410  0.00  0.00     0.049 C 
HETATM    9  C   UNK N   1      23.364  17.282   4.096  0.00  0.00     0.039 C 
HETATM   10  C   UNK N   1      23.086  13.816   2.491  0.00  0.00    -0.015 C 
HETATM   11  C   UNK N   1      29.556  15.010   3.031  0.00  0.00     0.090 A 
HETATM   12  C   UNK N   1      24.746  16.661   4.110  0.00  0.00    -0.012 C 
HETATM   13  C   UNK N   1      28.302  11.181   0.950  0.00  0.00    -0.011 C 
HETATM   14  C   UNK N   1      23.141  13.803   4.019  0.00  0.00     0.035 C 
HETATM   15  C   UNK N   1      22.992  12.833   1.539  0.00  0.00    -0.055 C 
HETATM   16  C   UNK N   1      27.168  16.699   3.281  0.00  0.00     0.025 A 
HETATM   17  C   UNK N   1      28.380  14.521   2.621  0.00  0.00     0.089 A 
HETATM   18  C   UNK N   1      29.607  16.382   3.580  0.00  0.00     0.201 A 
HETATM   19  C   UNK N   1      24.070  10.464   2.303  0.00  0.00     0.177 C 
HETATM   20  C   UNK N   1      22.109  16.354   4.217  0.00  0.00     0.150 C 
HETATM   21  C   UNK N   1      28.365  17.209   3.699  0.00  0.00     0.089 A 
HETATM   22  C   UNK N   1      22.181  14.845   4.709  0.00  0.00     0.154 C 
HETATM   23  C   UNK N   1      27.163  15.334   2.691  0.00  0.00     0.207 A 
HETATM   24  C   UNK N   1      22.869  11.293   1.687  0.00  0.00     0.193 C 
HETATM   25  C   UNK N   1      28.951  12.425   1.452  0.00  0.00     0.146 C 
HETATM   26  N   UNK N   1      28.198  13.225   2.112  0.00  0.00    -0.333 N 
ATOM     27  HN  UNK N   1      27.274  12.839   2.310  1.00  0.00     0.168 HD
HETATM   28  O   UNK N   1      30.683  16.846   3.929  0.00  0.00    -0.286 OA
HETATM   29  O   UNK N   1      26.141  14.863   2.211  0.00  0.00    -0.285 OA
ENDROOT
BRANCH  24  30
HETATM   30  O   UNK N   1      21.554  10.872   1.867  0.00  0.00    -0.304 OA
BRANCH  30  31
HETATM   31  C   UNK N   1      20.362  11.527   1.851  0.00  0.00     0.256 C 
HETATM   32  N   UNK N   1      19.859  11.921   2.960  0.00  0.00    -0.359 N 
HETATM   33  H   UNK N   1      19.209  11.390   3.474  0.00  0.00     0.160 HD
ATOM     34  HN  UNK N   1      20.146  12.829   3.327  1.00  0.00     0.160 HD
BRANCH  31  35
HETATM   35  O   UNK N   1      19.736  11.845   0.707  0.00  0.00    -0.327 OA
HETATM   36  H   UNK N   1      19.113  11.987   0.022  0.00  0.00     0.221 HD
ENDBRANCH  31  35
ENDBRANCH  30  31
ENDBRANCH  24  30
BRANCH  19  37
HETATM   37  O   UNK N   1      23.686   9.646   3.396  0.00  0.00    -0.384 OA
HETATM   38  C   UNK N   1      24.807   9.265   4.157  0.00  0.00     0.202 C 
ENDBRANCH  19  37
BRANCH  22  39
HETATM   39  O   UNK N   1      20.881  14.330   4.647  0.00  0.00    -0.392 OA
HETATM   40  H   UNK N   1      20.171  14.715   5.185  0.00  0.00     0.210 HD
ENDBRANCH  22  39
BRANCH  20  41
HETATM   41  O   UNK N   1      21.260  17.050   5.115  0.00  0.00    -0.388 OA
HETATM   42  C   UNK N   1      21.365  18.436   4.921  0.00  0.00     0.202 C 
ENDBRANCH  20  41
BRANCH  25  43
HETATM   43  O   UNK N   1      30.198  12.781   1.080  0.00  0.00    -0.346 OA
HETATM   44  H   UNK N   1      30.929  12.608   1.639  0.00  0.00     0.219 HD
ENDBRANCH  25  43
BRANCH  21  45
HETATM   45  N   UNK N   1      28.493  18.518   4.237  0.00  0.00    -0.383 N 
HETATM   46  H   UNK N   1      28.704  19.256   3.620  0.00  0.00     0.160 HD
BRANCH  45  47
HETATM   47  C   UNK N   1      28.332  18.825   5.637  0.00  0.00     0.146 C 
BRANCH  47  48
HETATM   48  C   UNK N   1      27.316  19.918   5.833  0.00  0.00    -0.018 C 
HETATM   49  C   UNK N   1      26.867  20.673   4.826  0.00  0.00     0.008 C 
ENDBRANCH  47  48
ENDBRANCH  45  47
ENDBRANCH  21  45
TORSDOF 10
ENDMDL
MODEL 9
REMARK VINA RESULT:      -6.0     12.547     15.878
REMARK  10 active torsions:
REMARK  status: ('A' for Active; 'I' for Inactive)
REMARK    1  A    between atoms: C_12  and  C_8 
REMARK    2  A    between atoms: N_34  and  C_12 
REMARK    3  A    between atoms: C_24  and  O_42 
REMARK    4  A    between atoms: C_25  and  O_43 
REMARK    5  A    between atoms: N_34  and  C_26 
REMARK    6  A    between atoms: C_27  and  O_38 
REMARK    7  A    between atoms: C_29  and  O_44 
REMARK    8  A    between atoms: O_40  and  C_30 
REMARK    9  A    between atoms: O_41  and  C_31 
REMARK   10  A    between atoms: O_44  and  C_31 
ROOT
HETATM    1  C   UNK N   1      30.405  20.262  -5.364  0.00  0.00     0.010 C 
HETATM    2  C   UNK N   1      26.399  26.185 -10.928  0.00  0.00     0.052 C 
HETATM    3  C   UNK N   1      28.230  23.788  -3.605  0.00  0.00     0.017 C 
HETATM    4  C   UNK N   1      30.845  26.743  -6.013  0.00  0.00     0.046 C 
HETATM    5  C   UNK N   1      26.491  26.811  -7.982  0.00  0.00    -0.001 C 
HETATM    6  C   UNK N   1      26.884  25.514  -8.567  0.00  0.00     0.011 C 
HETATM    7  C   UNK N   1      26.631  27.117  -6.665  0.00  0.00     0.008 C 
HETATM    8  C   UNK N   1      32.020  20.983  -7.173  0.00  0.00     0.049 C 
HETATM    9  C   UNK N   1      32.421  21.528  -4.677  0.00  0.00     0.039 C 
HETATM   10  C   UNK N   1      30.250  24.674  -4.908  0.00  0.00    -0.015 C 
HETATM   11  C   UNK N   1      28.828  21.137 -10.296  0.00  0.00     0.090 A 
HETATM   12  C   UNK N   1      31.418  21.310  -5.792  0.00  0.00    -0.012 C 
HETATM   13  C   UNK N   1      26.881  25.213  -9.896  0.00  0.00    -0.011 C 
HETATM   14  C   UNK N   1      29.590  23.503  -4.181  0.00  0.00     0.035 C 
HETATM   15  C   UNK N   1      29.844  25.949  -5.212  0.00  0.00    -0.055 C 
HETATM   16  C   UNK N   1      30.966  20.981  -8.291  0.00  0.00     0.025 A 
HETATM   17  C   UNK N   1      28.985  22.158  -9.448  0.00  0.00     0.089 A 
HETATM   18  C   UNK N   1      29.742  19.978 -10.198  0.00  0.00     0.201 A 
HETATM   19  C   UNK N   1      27.161  26.201  -5.515  0.00  0.00     0.177 C 
HETATM   20  C   UNK N   1      32.015  22.410  -3.449  0.00  0.00     0.150 C 
HETATM   21  C   UNK N   1      30.816  19.934  -9.155  0.00  0.00     0.089 A 
HETATM   22  C   UNK N   1      30.512  22.803  -3.112  0.00  0.00     0.154 C 
HETATM   23  C   UNK N   1      30.058  22.148  -8.450  0.00  0.00     0.207 A 
HETATM   24  C   UNK N   1      28.525  26.695  -4.879  0.00  0.00     0.193 C 
HETATM   25  C   UNK N   1      27.503  23.927 -10.321  0.00  0.00     0.146 C 
HETATM   26  N   UNK N   1      28.162  23.296  -9.422  0.00  0.00    -0.333 N 
ATOM     27  HN  UNK N   1      28.071  23.707  -8.492  1.00  0.00     0.168 HD
HETATM   28  O   UNK N   1      29.623  19.054 -10.989  0.00  0.00    -0.286 OA
HETATM   29  O   UNK N   1      30.207  23.155  -7.771  0.00  0.00    -0.285 OA
ENDROOT
BRANCH  24  30
HETATM   30  O   UNK N   1      28.544  27.289  -3.620  0.00  0.00    -0.304 OA
BRANCH  30  31
HETATM   31  C   UNK N   1      27.929  28.387  -3.105  0.00  0.00     0.256 C 
HETATM   32  N   UNK N   1      28.622  29.443  -2.895  0.00  0.00    -0.359 N 
HETATM   33  H   UNK N   1      29.037  29.649  -2.027  0.00  0.00     0.160 HD
ATOM     34  HN  UNK N   1      28.750  30.099  -3.665  1.00  0.00     0.160 HD
BRANCH  31  35
HETATM   35  O   UNK N   1      26.606  28.428  -2.886  0.00  0.00    -0.327 OA
HETATM   36  H   UNK N   1      25.711  28.683  -2.776  0.00  0.00     0.221 HD
ENDBRANCH  31  35
ENDBRANCH  30  31
ENDBRANCH  24  30
BRANCH  19  37
HETATM   37  O   UNK N   1      26.150  25.952  -4.552  0.00  0.00    -0.384 OA
HETATM   38  C   UNK N   1      25.290  24.923  -4.980  0.00  0.00     0.202 C 
ENDBRANCH  19  37
BRANCH  22  39
HETATM   39  O   UNK N   1      30.547  23.623  -1.979  0.00  0.00    -0.392 OA
HETATM   40  H   UNK N   1      29.863  24.297  -1.835  0.00  0.00     0.210 HD
ENDBRANCH  22  39
BRANCH  20  41
HETATM   41  O   UNK N   1      32.522  21.691  -2.335  0.00  0.00    -0.388 OA
HETATM   42  C   UNK N   1      33.550  20.823  -2.734  0.00  0.00     0.202 C 
ENDBRANCH  20  41
BRANCH  25  43
HETATM   43  O   UNK N   1      27.531  23.539 -11.614  0.00  0.00    -0.346 OA
HETATM   44  H   UNK N   1      28.270  23.737 -12.154  0.00  0.00     0.219 HD
ENDBRANCH  25  43
BRANCH  21  45
HETATM   45  N   UNK N   1      31.656  18.788  -9.122  0.00  0.00    -0.383 N 
HETATM   46  H   UNK N   1      31.382  18.026  -8.562  0.00  0.00     0.160 HD
BRANCH  45  47
HETATM   47  C   UNK N   1      32.889  18.680  -9.864  0.00  0.00     0.146 C 
BRANCH  47  48
HETATM   48  C   UNK N   1      33.906  17.877  -9.098  0.00  0.00    -0.018 C 
HETATM   49  C   UNK N   1      34.279  18.186  -7.853  0.00  0.00     0.008 C 
ENDBRANCH  47  48
ENDBRANCH  45  47
ENDBRANCH  21  45
TORSDOF 10
ENDMDL
