MODEL 1
REMARK VINA RESULT:      -6.5      0.000      0.000
REMARK  11 active torsions:
REMARK  status: ('A' for Active; 'I' for Inactive)
REMARK    1  A    between atoms: C_2  and  C_3 
REMARK    2  A    between atoms: C_3  and  C_4 
REMARK    3  A    between atoms: C_4  and  C_5 
REMARK    4  A    between atoms: C_10  and  C_22 
REMARK    5  A    between atoms: N_14  and  C_15 
REMARK    6  A    between atoms: C_15  and  C_16 
REMARK    7  A    between atoms: C_16  and  N_17 
REMARK    8  A    between atoms: N_17  and  C_18 
REMARK    9  A    between atoms: N_17  and  C_20 
REMARK   10  A    between atoms: C_23  and  C_24 
REMARK       I    between atoms: C_24  and  N_26 
REMARK   11  A    between atoms: N_26  and  O_27 
ROOT
HETATM    1  C   UNK N   1      28.313  16.339   4.026  0.00  0.00     0.084 A 
HETATM    2  N   UNK N   1      29.639  16.172   4.295  0.00  0.00    -0.344 N 
ATOM      3  HN  UNK N   1      30.348  15.741   3.703  1.00  0.00     0.167 HD
HETATM    4  C   UNK N   1      29.800  16.706   5.523  0.00  0.00     0.061 A 
HETATM    5  C   UNK N   1      30.969  16.798   6.285  0.00  0.00     0.043 A 
HETATM    6  C   UNK N   1      30.872  17.414   7.555  0.00  0.00    -0.034 A 
HETATM    7  C   UNK N   1      29.617  17.906   8.006  0.00  0.00     0.014 A 
HETATM    8  C   UNK N   1      28.469  17.789   7.216  0.00  0.00     0.033 A 
HETATM    9  C   UNK N   1      28.607  17.180   5.977  0.00  0.00     0.062 A 
HETATM   10  N   UNK N   1      27.664  16.959   5.056  0.00  0.00    -0.333 N 
ENDROOT
BRANCH   6  11
HETATM   11  C   UNK N   1      32.061  17.545   8.419  0.00  0.00     0.017 C 
HETATM   12  C   UNK N   1      33.211  17.992   7.898  0.00  0.00     0.077 C 
BRANCH  12  13
HETATM   13  C   UNK N   1      34.448  18.189   8.665  0.00  0.00     0.264 C 
HETATM   14  O   UNK N   1      35.220  19.094   8.387  0.00  0.00    -0.266 OA
HETATM   15  N   UNK N   1      34.719  17.345   9.686  0.00  0.00    -0.234 N 
HETATM   16  H   UNK N   1      34.087  16.620   9.895  0.00  0.00     0.197 HD
BRANCH  15  17
HETATM   17  O   UNK N   1      35.833  17.480  10.418  0.00  0.00    -0.287 OA
HETATM   18  H   UNK N   1      36.703  17.391   9.999  0.00  0.00     0.244 HD
ENDBRANCH  15  17
ENDBRANCH  12  13
ENDBRANCH   6  11
BRANCH   1  19
HETATM   19  C   UNK N   1      27.705  15.860   2.731  0.00  0.00     0.076 C 
BRANCH  19  20
HETATM   20  C   UNK N   1      26.964  14.538   2.818  0.00  0.00     0.007 C 
BRANCH  20  21
HETATM   21  C   UNK N   1      27.943  13.392   2.938  0.00  0.00    -0.004 C 
HETATM   22  C   UNK N   1      28.729  13.274   1.649  0.00  0.00     0.005 C 
ENDBRANCH  20  21
ENDBRANCH  19  20
ENDBRANCH   1  19
BRANCH  10  23
HETATM   23  C   UNK N   1      26.258  17.315   5.218  0.00  0.00     0.161 C 
BRANCH  23  24
HETATM   24  C   UNK N   1      25.859  18.421   4.256  0.00  0.00     0.292 C 
BRANCH  24  25
HETATM   25  N   UNK N   1      26.707  19.577   4.494  0.00  0.00     0.089 N 
BRANCH  25  26
HETATM   26  C   UNK N   1      26.155  20.283   5.642  0.00  0.00     0.268 C 
HETATM   27  C   UNK N   1      27.182  21.252   6.201  0.00  0.00     0.037 C 
ENDBRANCH  25  26
BRANCH  25  28
HETATM   28  C   UNK N   1      26.588  20.437   3.325  0.00  0.00     0.268 C 
HETATM   29  C   UNK N   1      25.177  20.373   2.771  0.00  0.00     0.037 C 
ENDBRANCH  25  28
ENDBRANCH  24  25
ENDBRANCH  23  24
ENDBRANCH  10  23
TORSDOF 11
ENDMDL
MODEL 2
REMARK VINA RESULT:      -6.4      0.971      1.802
REMARK  11 active torsions:
REMARK  status: ('A' for Active; 'I' for Inactive)
REMARK    1  A    between atoms: C_2  and  C_3 
REMARK    2  A    between atoms: C_3  and  C_4 
REMARK    3  A    between atoms: C_4  and  C_5 
REMARK    4  A    between atoms: C_10  and  C_22 
REMARK    5  A    between atoms: N_14  and  C_15 
REMARK    6  A    between atoms: C_15  and  C_16 
REMARK    7  A    between atoms: C_16  and  N_17 
REMARK    8  A    between atoms: N_17  and  C_18 
REMARK    9  A    between atoms: N_17  and  C_20 
REMARK   10  A    between atoms: C_23  and  C_24 
REMARK       I    between atoms: C_24  and  N_26 
REMARK   11  A    between atoms: N_26  and  O_27 
ROOT
HETATM    1  C   UNK N   1      27.848  15.283   4.505  0.00  0.00     0.084 A 
HETATM    2  N   UNK N   1      29.106  14.860   4.817  0.00  0.00    -0.344 N 
ATOM      3  HN  UNK N   1      29.613  14.067   4.426  1.00  0.00     0.167 HD
HETATM    4  C   UNK N   1      29.527  15.730   5.757  0.00  0.00     0.061 A 
HETATM    5  C   UNK N   1      30.752  15.757   6.429  0.00  0.00     0.043 A 
HETATM    6  C   UNK N   1      30.951  16.787   7.379  0.00  0.00    -0.034 A 
HETATM    7  C   UNK N   1      29.922  17.737   7.616  0.00  0.00     0.014 A 
HETATM    8  C   UNK N   1      28.706  17.671   6.926  0.00  0.00     0.033 A 
HETATM    9  C   UNK N   1      28.552  16.647   6.003  0.00  0.00     0.062 A 
HETATM   10  N   UNK N   1      27.492  16.385   5.231  0.00  0.00    -0.333 N 
ENDROOT
BRANCH   6  11
HETATM   11  C   UNK N   1      32.217  16.880   8.132  0.00  0.00     0.017 C 
HETATM   12  C   UNK N   1      33.029  17.927   7.934  0.00  0.00     0.077 C 
BRANCH  12  13
HETATM   13  C   UNK N   1      34.297  18.140   8.644  0.00  0.00     0.264 C 
HETATM   14  O   UNK N   1      35.065  19.027   8.302  0.00  0.00    -0.266 OA
HETATM   15  N   UNK N   1      34.602  17.332   9.683  0.00  0.00    -0.234 N 
HETATM   16  H   UNK N   1      33.973  16.621   9.944  0.00  0.00     0.197 HD
BRANCH  15  17
HETATM   17  O   UNK N   1      35.745  17.482  10.365  0.00  0.00    -0.287 OA
HETATM   18  H   UNK N   1      35.796  18.118  11.094  0.00  0.00     0.244 HD
ENDBRANCH  15  17
ENDBRANCH  12  13
ENDBRANCH   6  11
BRANCH   1  19
HETATM   19  C   UNK N   1      27.005  14.564   3.481  0.00  0.00     0.076 C 
BRANCH  19  20
HETATM   20  C   UNK N   1      26.921  15.242   2.126  0.00  0.00     0.007 C 
BRANCH  20  21
HETATM   21  C   UNK N   1      25.543  15.061   1.530  0.00  0.00    -0.004 C 
HETATM   22  C   UNK N   1      24.509  15.165   2.633  0.00  0.00     0.005 C 
ENDBRANCH  20  21
ENDBRANCH  19  20
ENDBRANCH   1  19
BRANCH  10  23
HETATM   23  C   UNK N   1      26.252  17.154   5.249  0.00  0.00     0.161 C 
BRANCH  23  24
HETATM   24  C   UNK N   1      26.264  18.238   4.186  0.00  0.00     0.292 C 
BRANCH  24  25
HETATM   25  N   UNK N   1      25.935  19.509   4.808  0.00  0.00     0.089 N 
BRANCH  25  26
HETATM   26  C   UNK N   1      24.935  20.151   3.969  0.00  0.00     0.268 C 
HETATM   27  C   UNK N   1      25.536  20.509   2.621  0.00  0.00     0.037 C 
ENDBRANCH  25  26
BRANCH  25  28
HETATM   28  C   UNK N   1      27.146  20.319   4.782  0.00  0.00     0.268 C 
HETATM   29  C   UNK N   1      27.265  21.121   6.065  0.00  0.00     0.037 C 
ENDBRANCH  25  28
ENDBRANCH  24  25
ENDBRANCH  23  24
ENDBRANCH  10  23
TORSDOF 11
ENDMDL
MODEL 3
REMARK VINA RESULT:      -6.3      7.772     10.755
REMARK  11 active torsions:
REMARK  status: ('A' for Active; 'I' for Inactive)
REMARK    1  A    between atoms: C_2  and  C_3 
REMARK    2  A    between atoms: C_3  and  C_4 
REMARK    3  A    between atoms: C_4  and  C_5 
REMARK    4  A    between atoms: C_10  and  C_22 
REMARK    5  A    between atoms: N_14  and  C_15 
REMARK    6  A    between atoms: C_15  and  C_16 
REMARK    7  A    between atoms: C_16  and  N_17 
REMARK    8  A    between atoms: N_17  and  C_18 
REMARK    9  A    between atoms: N_17  and  C_20 
REMARK   10  A    between atoms: C_23  and  C_24 
REMARK       I    between atoms: C_24  and  N_26 
REMARK   11  A    between atoms: N_26  and  O_27 
ROOT
HETATM    1  C   UNK N   1      20.897  14.605   8.255  0.00  0.00     0.084 A 
HETATM    2  N   UNK N   1      20.985  15.964   8.250  0.00  0.00    -0.344 N 
ATOM      3  HN  UNK N   1      20.985  16.594   9.053  1.00  0.00     0.167 HD
HETATM    4  C   UNK N   1      21.076  16.289   6.945  0.00  0.00     0.061 A 
HETATM    5  C   UNK N   1      21.184  17.559   6.370  0.00  0.00     0.043 A 
HETATM    6  C   UNK N   1      21.267  17.630   4.960  0.00  0.00    -0.034 A 
HETATM    7  C   UNK N   1      21.236  16.437   4.190  0.00  0.00     0.014 A 
HETATM    8  C   UNK N   1      21.119  15.185   4.803  0.00  0.00     0.033 A 
HETATM    9  C   UNK N   1      21.042  15.158   6.188  0.00  0.00     0.062 A 
HETATM   10  N   UNK N   1      20.929  14.093   6.988  0.00  0.00    -0.333 N 
ENDROOT
BRANCH   6  11
HETATM   11  C   UNK N   1      21.381  18.935   4.278  0.00  0.00     0.017 C 
HETATM   12  C   UNK N   1      21.133  19.019   2.965  0.00  0.00     0.077 C 
BRANCH  12  13
HETATM   13  C   UNK N   1      21.188  20.264   2.188  0.00  0.00     0.264 C 
HETATM   14  O   UNK N   1      21.802  21.235   2.605  0.00  0.00    -0.266 OA
HETATM   15  N   UNK N   1      20.543  20.319   1.002  0.00  0.00    -0.234 N 
HETATM   16  H   UNK N   1      20.052  19.527   0.682  0.00  0.00     0.197 HD
BRANCH  15  17
HETATM   17  O   UNK N   1      20.561  21.429   0.254  0.00  0.00    -0.287 OA
HETATM   18  H   UNK N   1      20.049  21.469  -0.569  0.00  0.00     0.244 HD
ENDBRANCH  15  17
ENDBRANCH  12  13
ENDBRANCH   6  11
BRANCH   1  19
HETATM   19  C   UNK N   1      20.768  13.826   9.541  0.00  0.00     0.076 C 
BRANCH  19  20
HETATM   20  C   UNK N   1      22.082  13.389  10.163  0.00  0.00     0.007 C 
BRANCH  20  21
HETATM   21  C   UNK N   1      21.860  12.225  11.102  0.00  0.00    -0.004 C 
HETATM   22  C   UNK N   1      23.168  11.884  11.787  0.00  0.00     0.005 C 
ENDBRANCH  20  21
ENDBRANCH  19  20
ENDBRANCH   1  19
BRANCH  10  23
HETATM   23  C   UNK N   1      20.840  12.715   6.515  0.00  0.00     0.161 C 
BRANCH  23  24
HETATM   24  C   UNK N   1      22.074  11.922   6.904  0.00  0.00     0.292 C 
BRANCH  24  25
HETATM   25  N   UNK N   1      23.251  12.604   6.393  0.00  0.00     0.089 N 
BRANCH  25  26
HETATM   26  C   UNK N   1      23.624  11.942   5.152  0.00  0.00     0.268 C 
HETATM   27  C   UNK N   1      23.994  12.974   4.101  0.00  0.00     0.037 C 
ENDBRANCH  25  26
BRANCH  25  28
HETATM   28  C   UNK N   1      24.316  12.395   7.364  0.00  0.00     0.268 C 
HETATM   29  C   UNK N   1      24.922  13.726   7.769  0.00  0.00     0.037 C 
ENDBRANCH  25  28
ENDBRANCH  24  25
ENDBRANCH  23  24
ENDBRANCH  10  23
TORSDOF 11
ENDMDL
MODEL 4
REMARK VINA RESULT:      -6.1      1.464      4.102
REMARK  11 active torsions:
REMARK  status: ('A' for Active; 'I' for Inactive)
REMARK    1  A    between atoms: C_2  and  C_3 
REMARK    2  A    between atoms: C_3  and  C_4 
REMARK    3  A    between atoms: C_4  and  C_5 
REMARK    4  A    between atoms: C_10  and  C_22 
REMARK    5  A    between atoms: N_14  and  C_15 
REMARK    6  A    between atoms: C_15  and  C_16 
REMARK    7  A    between atoms: C_16  and  N_17 
REMARK    8  A    between atoms: N_17  and  C_18 
REMARK    9  A    between atoms: N_17  and  C_20 
REMARK   10  A    between atoms: C_23  and  C_24 
REMARK       I    between atoms: C_24  and  N_26 
REMARK   11  A    between atoms: N_26  and  O_27 
ROOT
HETATM    1  C   UNK N   1      26.917  18.208   5.358  0.00  0.00     0.084 A 
HETATM    2  N   UNK N   1      27.509  18.618   6.514  0.00  0.00    -0.344 N 
ATOM      3  HN  UNK N   1      27.122  19.229   7.233  1.00  0.00     0.167 HD
HETATM    4  C   UNK N   1      28.724  18.033   6.493  0.00  0.00     0.061 A 
HETATM    5  C   UNK N   1      29.748  18.120   7.440  0.00  0.00     0.043 A 
HETATM    6  C   UNK N   1      30.938  17.400   7.182  0.00  0.00    -0.034 A 
HETATM    7  C   UNK N   1      31.052  16.630   5.993  0.00  0.00     0.014 A 
HETATM    8  C   UNK N   1      30.006  16.573   5.066  0.00  0.00     0.033 A 
HETATM    9  C   UNK N   1      28.856  17.293   5.358  0.00  0.00     0.062 A 
HETATM   10  N   UNK N   1      27.737  17.390   4.633  0.00  0.00    -0.333 N 
ENDROOT
BRANCH   6  11
HETATM   11  C   UNK N   1      32.065  17.445   8.133  0.00  0.00     0.017 C 
HETATM   12  C   UNK N   1      33.219  18.017   7.764  0.00  0.00     0.077 C 
BRANCH  12  13
HETATM   13  C   UNK N   1      34.396  18.143   8.633  0.00  0.00     0.264 C 
HETATM   14  O   UNK N   1      35.220  19.027   8.446  0.00  0.00    -0.266 OA
HETATM   15  N   UNK N   1      34.555  17.261   9.644  0.00  0.00    -0.234 N 
HETATM   16  H   UNK N   1      33.882  16.555   9.779  0.00  0.00     0.197 HD
BRANCH  15  17
HETATM   17  O   UNK N   1      35.610  17.331  10.466  0.00  0.00    -0.287 OA
HETATM   18  H   UNK N   1      36.034  16.518  10.782  0.00  0.00     0.244 HD
ENDBRANCH  15  17
ENDBRANCH  12  13
ENDBRANCH   6  11
BRANCH   1  19
HETATM   19  C   UNK N   1      25.524  18.653   4.983  0.00  0.00     0.076 C 
BRANCH  19  20
HETATM   20  C   UNK N   1      25.415  20.090   4.504  0.00  0.00     0.007 C 
BRANCH  20  21
HETATM   21  C   UNK N   1      25.044  20.130   3.039  0.00  0.00    -0.004 C 
HETATM   22  C   UNK N   1      23.577  20.486   2.909  0.00  0.00     0.005 C 
ENDBRANCH  20  21
ENDBRANCH  19  20
ENDBRANCH   1  19
BRANCH  10  23
HETATM   23  C   UNK N   1      27.537  16.744   3.340  0.00  0.00     0.161 C 
BRANCH  23  24
HETATM   24  C   UNK N   1      26.722  15.471   3.484  0.00  0.00     0.292 C 
BRANCH  24  25
HETATM   25  N   UNK N   1      25.425  15.671   2.859  0.00  0.00     0.089 N 
BRANCH  25  26
HETATM   26  C   UNK N   1      24.415  15.356   3.859  0.00  0.00     0.268 C 
HETATM   27  C   UNK N   1      23.133  16.113   3.561  0.00  0.00     0.037 C 
ENDBRANCH  25  26
BRANCH  25  28
HETATM   28  C   UNK N   1      25.322  14.699   1.779  0.00  0.00     0.268 C 
HETATM   29  C   UNK N   1      26.157  13.473   2.098  0.00  0.00     0.037 C 
ENDBRANCH  25  28
ENDBRANCH  24  25
ENDBRANCH  23  24
ENDBRANCH  10  23
TORSDOF 11
ENDMDL
MODEL 5
REMARK VINA RESULT:      -6.0      1.355      4.408
REMARK  11 active torsions:
REMARK  status: ('A' for Active; 'I' for Inactive)
REMARK    1  A    between atoms: C_2  and  C_3 
REMARK    2  A    between atoms: C_3  and  C_4 
REMARK    3  A    between atoms: C_4  and  C_5 
REMARK    4  A    between atoms: C_10  and  C_22 
REMARK    5  A    between atoms: N_14  and  C_15 
REMARK    6  A    between atoms: C_15  and  C_16 
REMARK    7  A    between atoms: C_16  and  N_17 
REMARK    8  A    between atoms: N_17  and  C_18 
REMARK    9  A    between atoms: N_17  and  C_20 
REMARK   10  A    between atoms: C_23  and  C_24 
REMARK       I    between atoms: C_24  and  N_26 
REMARK   11  A    between atoms: N_26  and  O_27 
ROOT
HETATM    1  C   UNK N   1      26.655  17.265   5.361  0.00  0.00     0.084 A 
HETATM    2  N   UNK N   1      27.158  17.924   6.442  0.00  0.00    -0.344 N 
ATOM      3  HN  UNK N   1      26.668  18.558   7.073  1.00  0.00     0.167 HD
HETATM    4  C   UNK N   1      28.452  17.547   6.491  0.00  0.00     0.061 A 
HETATM    5  C   UNK N   1      29.436  17.933   7.406  0.00  0.00     0.043 A 
HETATM    6  C   UNK N   1      30.731  17.387   7.238  0.00  0.00    -0.034 A 
HETATM    7  C   UNK N   1      30.984  16.487   6.168  0.00  0.00     0.014 A 
HETATM    8  C   UNK N   1      29.973  16.131   5.269  0.00  0.00     0.033 A 
HETATM    9  C   UNK N   1      28.718  16.688   5.469  0.00  0.00     0.062 A 
HETATM   10  N   UNK N   1      27.607  16.498   4.750  0.00  0.00    -0.333 N 
ENDROOT
BRANCH   6  11
HETATM   11  C   UNK N   1      31.824  17.747   8.162  0.00  0.00     0.017 C 
HETATM   12  C   UNK N   1      33.095  17.655   7.751  0.00  0.00     0.077 C 
BRANCH  12  13
HETATM   13  C   UNK N   1      34.260  18.011   8.570  0.00  0.00     0.264 C 
HETATM   14  O   UNK N   1      34.953  18.978   8.288  0.00  0.00    -0.266 OA
HETATM   15  N   UNK N   1      34.556  17.246   9.645  0.00  0.00    -0.234 N 
HETATM   16  H   UNK N   1      33.989  16.470   9.856  0.00  0.00     0.197 HD
BRANCH  15  17
HETATM   17  O   UNK N   1      35.607  17.527  10.426  0.00  0.00    -0.287 OA
HETATM   18  H   UNK N   1      35.952  16.856  11.036  0.00  0.00     0.244 HD
ENDBRANCH  15  17
ENDBRANCH  12  13
ENDBRANCH   6  11
BRANCH   1  19
HETATM   19  C   UNK N   1      25.214  17.421   4.943  0.00  0.00     0.076 C 
BRANCH  19  20
HETATM   20  C   UNK N   1      24.818  18.819   4.504  0.00  0.00     0.007 C 
BRANCH  20  21
HETATM   21  C   UNK N   1      25.709  19.290   3.376  0.00  0.00    -0.004 C 
HETATM   22  C   UNK N   1      25.028  20.432   2.651  0.00  0.00     0.005 C 
ENDBRANCH  20  21
ENDBRANCH  19  20
ENDBRANCH   1  19
BRANCH  10  23
HETATM   23  C   UNK N   1      27.531  15.654   3.562  0.00  0.00     0.161 C 
BRANCH  23  24
HETATM   24  C   UNK N   1      26.997  14.274   3.905  0.00  0.00     0.292 C 
BRANCH  24  25
HETATM   25  N   UNK N   1      26.311  13.735   2.743  0.00  0.00     0.089 N 
BRANCH  25  26
HETATM   26  C   UNK N   1      27.301  13.010   1.960  0.00  0.00     0.268 C 
HETATM   27  C   UNK N   1      26.820  11.594   1.693  0.00  0.00     0.037 C 
ENDBRANCH  25  26
BRANCH  25  28
HETATM   28  C   UNK N   1      25.848  14.872   1.960  0.00  0.00     0.268 C 
HETATM   29  C   UNK N   1      24.545  14.529   1.262  0.00  0.00     0.037 C 
ENDBRANCH  25  28
ENDBRANCH  24  25
ENDBRANCH  23  24
ENDBRANCH  10  23
TORSDOF 11
ENDMDL
MODEL 6
REMARK VINA RESULT:      -5.9      4.166      7.839
REMARK  11 active torsions:
REMARK  status: ('A' for Active; 'I' for Inactive)
REMARK    1  A    between atoms: C_2  and  C_3 
REMARK    2  A    between atoms: C_3  and  C_4 
REMARK    3  A    between atoms: C_4  and  C_5 
REMARK    4  A    between atoms: C_10  and  C_22 
REMARK    5  A    between atoms: N_14  and  C_15 
REMARK    6  A    between atoms: C_15  and  C_16 
REMARK    7  A    between atoms: C_16  and  N_17 
REMARK    8  A    between atoms: N_17  and  C_18 
REMARK    9  A    between atoms: N_17  and  C_20 
REMARK   10  A    between atoms: C_23  and  C_24 
REMARK       I    between atoms: C_24  and  N_26 
REMARK   11  A    between atoms: N_26  and  O_27 
ROOT
HETATM    1  C   UNK N   1      30.695  15.742   6.015  0.00  0.00     0.084 A 
HETATM    2  N   UNK N   1      29.867  16.077   4.986  0.00  0.00    -0.344 N 
ATOM      3  HN  UNK N   1      29.829  15.665   4.054  1.00  0.00     0.167 HD
HETATM    4  C   UNK N   1      29.107  17.075   5.481  0.00  0.00     0.061 A 
HETATM    5  C   UNK N   1      28.090  17.791   4.843  0.00  0.00     0.043 A 
HETATM    6  C   UNK N   1      27.436  18.799   5.590  0.00  0.00    -0.034 A 
HETATM    7  C   UNK N   1      27.827  19.047   6.933  0.00  0.00     0.014 A 
HETATM    8  C   UNK N   1      28.854  18.311   7.534  0.00  0.00     0.033 A 
HETATM    9  C   UNK N   1      29.469  17.332   6.767  0.00  0.00     0.062 A 
HETATM   10  N   UNK N   1      30.462  16.510   7.121  0.00  0.00    -0.333 N 
ENDROOT
BRANCH   6  11
HETATM   11  C   UNK N   1      26.355  19.601   4.985  0.00  0.00     0.017 C 
HETATM   12  C   UNK N   1      26.174  19.573   3.658  0.00  0.00     0.077 C 
BRANCH  12  13
HETATM   13  C   UNK N   1      25.117  20.307   2.950  0.00  0.00     0.264 C 
HETATM   14  O   UNK N   1      25.362  20.921   1.921  0.00  0.00    -0.266 OA
HETATM   15  N   UNK N   1      23.865  20.294   3.459  0.00  0.00    -0.234 N 
HETATM   16  H   UNK N   1      23.686  19.796   4.289  0.00  0.00     0.197 HD
BRANCH  15  17
HETATM   17  O   UNK N   1      22.864  20.946   2.853  0.00  0.00    -0.287 OA
HETATM   18  H   UNK N   1      22.381  21.641   3.325  0.00  0.00     0.244 HD
ENDBRANCH  15  17
ENDBRANCH  12  13
ENDBRANCH   6  11
BRANCH   1  19
HETATM   19  C   UNK N   1      31.730  14.653   5.872  0.00  0.00     0.076 C 
BRANCH  19  20
HETATM   20  C   UNK N   1      33.137  15.137   5.572  0.00  0.00     0.007 C 
BRANCH  20  21
HETATM   21  C   UNK N   1      33.148  15.981   4.317  0.00  0.00    -0.004 C 
HETATM   22  C   UNK N   1      33.243  17.443   4.705  0.00  0.00     0.005 C 
ENDBRANCH  20  21
ENDBRANCH  19  20
ENDBRANCH   1  19
BRANCH  10  23
HETATM   23  C   UNK N   1      31.114  16.522   8.426  0.00  0.00     0.161 C 
BRANCH  23  24
HETATM   24  C   UNK N   1      32.397  17.334   8.390  0.00  0.00     0.292 C 
BRANCH  24  25
HETATM   25  N   UNK N   1      33.340  16.762   9.335  0.00  0.00     0.089 N 
BRANCH  25  26
HETATM   26  C   UNK N   1      34.673  17.156   8.902  0.00  0.00     0.268 C 
HETATM   27  C   UNK N   1      34.606  18.465   8.135  0.00  0.00     0.037 C 
ENDBRANCH  25  26
BRANCH  25  28
HETATM   28  C   UNK N   1      33.230  15.314   9.220  0.00  0.00     0.268 C 
HETATM   29  C   UNK N   1      34.583  14.711   8.891  0.00  0.00     0.037 C 
ENDBRANCH  25  28
ENDBRANCH  24  25
ENDBRANCH  23  24
ENDBRANCH  10  23
TORSDOF 11
ENDMDL
MODEL 7
REMARK VINA RESULT:      -5.9     10.982     12.522
REMARK  11 active torsions:
REMARK  status: ('A' for Active; 'I' for Inactive)
REMARK    1  A    between atoms: C_2  and  C_3 
REMARK    2  A    between atoms: C_3  and  C_4 
REMARK    3  A    between atoms: C_4  and  C_5 
REMARK    4  A    between atoms: C_10  and  C_22 
REMARK    5  A    between atoms: N_14  and  C_15 
REMARK    6  A    between atoms: C_15  and  C_16 
REMARK    7  A    between atoms: C_16  and  N_17 
REMARK    8  A    between atoms: N_17  and  C_18 
REMARK    9  A    between atoms: N_17  and  C_20 
REMARK   10  A    between atoms: C_23  and  C_24 
REMARK       I    between atoms: C_24  and  N_26 
REMARK   11  A    between atoms: N_26  and  O_27 
ROOT
HETATM    1  C   UNK N   1      27.888  23.398  -5.781  0.00  0.00     0.084 A 
HETATM    2  N   UNK N   1      28.797  22.433  -6.096  0.00  0.00    -0.344 N 
ATOM      3  HN  UNK N   1      28.823  21.845  -6.929  1.00  0.00     0.167 HD
HETATM    4  C   UNK N   1      29.659  22.435  -5.059  0.00  0.00     0.061 A 
HETATM    5  C   UNK N   1      30.787  21.634  -4.864  0.00  0.00     0.043 A 
HETATM    6  C   UNK N   1      31.533  21.836  -3.679  0.00  0.00    -0.034 A 
HETATM    7  C   UNK N   1      31.119  22.823  -2.745  0.00  0.00     0.014 A 
HETATM    8  C   UNK N   1      29.979  23.601  -2.973  0.00  0.00     0.033 A 
HETATM    9  C   UNK N   1      29.277  23.372  -4.148  0.00  0.00     0.062 A 
HETATM   10  N   UNK N   1      28.170  23.985  -4.580  0.00  0.00    -0.333 N 
ENDROOT
BRANCH   6  11
HETATM   11  C   UNK N   1      32.736  21.027  -3.401  0.00  0.00     0.017 C 
HETATM   12  C   UNK N   1      33.306  20.327  -4.390  0.00  0.00     0.077 C 
BRANCH  12  13
HETATM   13  C   UNK N   1      34.517  19.510  -4.238  0.00  0.00     0.264 C 
HETATM   14  O   UNK N   1      35.625  20.026  -4.243  0.00  0.00    -0.266 OA
HETATM   15  N   UNK N   1      34.384  18.173  -4.094  0.00  0.00    -0.234 N 
HETATM   16  H   UNK N   1      33.484  17.774  -4.093  0.00  0.00     0.197 HD
BRANCH  15  17
HETATM   17  O   UNK N   1      35.455  17.382  -3.951  0.00  0.00    -0.287 OA
HETATM   18  H   UNK N   1      35.945  17.082  -4.732  0.00  0.00     0.244 HD
ENDBRANCH  15  17
ENDBRANCH  12  13
ENDBRANCH   6  11
BRANCH   1  19
HETATM   19  C   UNK N   1      26.727  23.715  -6.692  0.00  0.00     0.076 C 
BRANCH  19  20
HETATM   20  C   UNK N   1      25.570  22.735  -6.625  0.00  0.00     0.007 C 
BRANCH  20  21
HETATM   21  C   UNK N   1      25.186  22.276  -8.014  0.00  0.00    -0.004 C 
HETATM   22  C   UNK N   1      25.573  20.821  -8.180  0.00  0.00     0.005 C 
ENDBRANCH  20  21
ENDBRANCH  19  20
ENDBRANCH   1  19
BRANCH  10  23
HETATM   23  C   UNK N   1      27.468  25.030  -3.843  0.00  0.00     0.161 C 
BRANCH  23  24
HETATM   24  C   UNK N   1      28.007  26.406  -4.196  0.00  0.00     0.292 C 
BRANCH  24  25
HETATM   25  N   UNK N   1      27.110  27.029  -5.154  0.00  0.00     0.089 N 
BRANCH  25  26
HETATM   26  C   UNK N   1      27.504  28.426  -5.264  0.00  0.00     0.268 C 
HETATM   27  C   UNK N   1      27.847  28.760  -6.704  0.00  0.00     0.037 C 
ENDBRANCH  25  26
BRANCH  25  28
HETATM   28  C   UNK N   1      25.772  26.971  -4.581  0.00  0.00     0.268 C 
HETATM   29  C   UNK N   1      24.730  27.001  -5.683  0.00  0.00     0.037 C 
ENDBRANCH  25  28
ENDBRANCH  24  25
ENDBRANCH  23  24
ENDBRANCH  10  23
TORSDOF 11
ENDMDL
MODEL 8
REMARK VINA RESULT:      -5.9      4.149      7.619
REMARK  11 active torsions:
REMARK  status: ('A' for Active; 'I' for Inactive)
REMARK    1  A    between atoms: C_2  and  C_3 
REMARK    2  A    between atoms: C_3  and  C_4 
REMARK    3  A    between atoms: C_4  and  C_5 
REMARK    4  A    between atoms: C_10  and  C_22 
REMARK    5  A    between atoms: N_14  and  C_15 
REMARK    6  A    between atoms: C_15  and  C_16 
REMARK    7  A    between atoms: C_16  and  N_17 
REMARK    8  A    between atoms: N_17  and  C_18 
REMARK    9  A    between atoms: N_17  and  C_20 
REMARK   10  A    between atoms: C_23  and  C_24 
REMARK       I    between atoms: C_24  and  N_26 
REMARK   11  A    between atoms: N_26  and  O_27 
ROOT
HETATM    1  C   UNK N   1      32.549  15.339   8.449  0.00  0.00     0.084 A 
HETATM    2  N   UNK N   1      31.907  16.238   9.247  0.00  0.00    -0.344 N 
ATOM      3  HN  UNK N   1      32.113  16.473  10.218  1.00  0.00     0.167 HD
HETATM    4  C   UNK N   1      30.939  16.750   8.460  0.00  0.00     0.061 A 
HETATM    5  C   UNK N   1      29.980  17.717   8.779  0.00  0.00     0.043 A 
HETATM    6  C   UNK N   1      29.067  18.088   7.764  0.00  0.00    -0.034 A 
HETATM    7  C   UNK N   1      29.150  17.478   6.483  0.00  0.00     0.014 A 
HETATM    8  C   UNK N   1      30.121  16.510   6.206  0.00  0.00     0.033 A 
HETATM    9  C   UNK N   1      30.997  16.175   7.228  0.00  0.00     0.062 A 
HETATM   10  N   UNK N   1      31.997  15.288   7.200  0.00  0.00    -0.333 N 
ENDROOT
BRANCH   6  11
HETATM   11  C   UNK N   1      28.024  19.099   8.024  0.00  0.00     0.017 C 
HETATM   12  C   UNK N   1      27.649  19.931   7.043  0.00  0.00     0.077 C 
BRANCH  12  13
HETATM   13  C   UNK N   1      26.606  20.955   7.177  0.00  0.00     0.264 C 
HETATM   14  O   UNK N   1      26.310  21.675   6.235  0.00  0.00    -0.266 OA
HETATM   15  N   UNK N   1      25.979  21.091   8.367  0.00  0.00    -0.234 N 
HETATM   16  H   UNK N   1      26.232  20.504   9.116  0.00  0.00     0.197 HD
BRANCH  15  17
HETATM   17  O   UNK N   1      25.021  22.009   8.544  0.00  0.00    -0.287 OA
HETATM   18  H   UNK N   1      24.964  22.773   7.950  0.00  0.00     0.244 HD
ENDBRANCH  15  17
ENDBRANCH  12  13
ENDBRANCH   6  11
BRANCH   1  19
HETATM   19  C   UNK N   1      33.713  14.524   8.957  0.00  0.00     0.076 C 
BRANCH  19  20
HETATM   20  C   UNK N   1      35.072  15.186   8.817  0.00  0.00     0.007 C 
BRANCH  20  21
HETATM   21  C   UNK N   1      35.215  16.315   9.814  0.00  0.00    -0.004 C 
HETATM   22  C   UNK N   1      36.140  15.875  10.930  0.00  0.00     0.005 C 
ENDBRANCH  20  21
ENDBRANCH  19  20
ENDBRANCH   1  19
BRANCH  10  23
HETATM   23  C   UNK N   1      32.335  14.466   6.043  0.00  0.00     0.161 C 
BRANCH  23  24
HETATM   24  C   UNK N   1      33.255  15.212   5.091  0.00  0.00     0.292 C 
BRANCH  24  25
HETATM   25  N   UNK N   1      32.649  15.230   3.771  0.00  0.00     0.089 N 
BRANCH  25  26
HETATM   26  C   UNK N   1      33.318  14.209   2.979  0.00  0.00     0.268 C 
HETATM   27  C   UNK N   1      32.295  13.263   2.375  0.00  0.00     0.037 C 
ENDBRANCH  25  26
BRANCH  25  28
HETATM   28  C   UNK N   1      32.944  16.532   3.187  0.00  0.00     0.268 C 
HETATM   29  C   UNK N   1      32.942  17.600   4.265  0.00  0.00     0.037 C 
ENDBRANCH  25  28
ENDBRANCH  24  25
ENDBRANCH  23  24
ENDBRANCH  10  23
TORSDOF 11
ENDMDL
MODEL 9
REMARK VINA RESULT:      -5.8      6.333      8.724
REMARK  11 active torsions:
REMARK  status: ('A' for Active; 'I' for Inactive)
REMARK    1  A    between atoms: C_2  and  C_3 
REMARK    2  A    between atoms: C_3  and  C_4 
REMARK    3  A    between atoms: C_4  and  C_5 
REMARK    4  A    between atoms: C_10  and  C_22 
REMARK    5  A    between atoms: N_14  and  C_15 
REMARK    6  A    between atoms: C_15  and  C_16 
REMARK    7  A    between atoms: C_16  and  N_17 
REMARK    8  A    between atoms: N_17  and  C_18 
REMARK    9  A    between atoms: N_17  and  C_20 
REMARK   10  A    between atoms: C_23  and  C_24 
REMARK       I    between atoms: C_24  and  N_26 
REMARK   11  A    between atoms: N_26  and  O_27 
ROOT
HETATM    1  C   UNK N   1      21.566  17.355   4.198  0.00  0.00     0.084 A 
HETATM    2  N   UNK N   1      20.638  16.778   5.012  0.00  0.00    -0.344 N 
ATOM      3  HN  UNK N   1      19.626  16.905   4.996  1.00  0.00     0.167 HD
HETATM    4  C   UNK N   1      21.360  15.998   5.842  0.00  0.00     0.061 A 
HETATM    5  C   UNK N   1      20.907  15.182   6.882  0.00  0.00     0.043 A 
HETATM    6  C   UNK N   1      21.878  14.454   7.609  0.00  0.00    -0.034 A 
HETATM    7  C   UNK N   1      23.252  14.577   7.269  0.00  0.00     0.014 A 
HETATM    8  C   UNK N   1      23.666  15.410   6.225  0.00  0.00     0.033 A 
HETATM    9  C   UNK N   1      22.682  16.105   5.536  0.00  0.00     0.062 A 
HETATM   10  N   UNK N   1      22.833  16.950   4.511  0.00  0.00    -0.333 N 
ENDROOT
BRANCH   6  11
HETATM   11  C   UNK N   1      21.478  13.573   8.724  0.00  0.00     0.017 C 
HETATM   12  C   UNK N   1      22.303  13.410   9.767  0.00  0.00     0.077 C 
BRANCH  12  13
HETATM   13  C   UNK N   1      22.001  12.582  10.941  0.00  0.00     0.264 C 
HETATM   14  O   UNK N   1      20.861  12.199  11.161  0.00  0.00    -0.266 OA
HETATM   15  N   UNK N   1      23.008  12.251  11.779  0.00  0.00    -0.234 N 
HETATM   16  H   UNK N   1      23.920  12.570  11.588  0.00  0.00     0.197 HD
BRANCH  15  17
HETATM   17  O   UNK N   1      22.788  11.498  12.864  0.00  0.00    -0.287 OA
HETATM   18  H   UNK N   1      22.387  10.620  12.773  0.00  0.00     0.244 HD
ENDBRANCH  15  17
ENDBRANCH  12  13
ENDBRANCH   6  11
BRANCH   1  19
HETATM   19  C   UNK N   1      21.169  18.326   3.113  0.00  0.00     0.076 C 
BRANCH  19  20
HETATM   20  C   UNK N   1      20.797  19.716   3.596  0.00  0.00     0.007 C 
BRANCH  20  21
HETATM   21  C   UNK N   1      21.311  20.764   2.636  0.00  0.00    -0.004 C 
HETATM   22  C   UNK N   1      20.907  20.385   1.226  0.00  0.00     0.005 C 
ENDBRANCH  20  21
ENDBRANCH  19  20
ENDBRANCH   1  19
BRANCH  10  23
HETATM   23  C   UNK N   1      24.121  17.321   3.934  0.00  0.00     0.161 C 
BRANCH  23  24
HETATM   24  C   UNK N   1      24.590  18.666   4.460  0.00  0.00     0.292 C 
BRANCH  24  25
HETATM   25  N   UNK N   1      25.975  18.865   4.071  0.00  0.00     0.089 N 
BRANCH  25  26
HETATM   26  C   UNK N   1      26.785  18.708   5.271  0.00  0.00     0.268 C 
HETATM   27  C   UNK N   1      27.231  20.067   5.781  0.00  0.00     0.037 C 
ENDBRANCH  25  26
BRANCH  25  28
HETATM   28  C   UNK N   1      26.093  20.243   3.614  0.00  0.00     0.268 C 
HETATM   29  C   UNK N   1      25.019  20.546   2.587  0.00  0.00     0.037 C 
ENDBRANCH  25  28
ENDBRANCH  24  25
ENDBRANCH  23  24
ENDBRANCH  10  23
TORSDOF 11
ENDMDL
