MODEL 1
REMARK VINA RESULT:      -5.5      0.000      0.000
REMARK  4 active torsions:
REMARK  status: ('A' for Active; 'I' for Inactive)
REMARK    1  A    between atoms: C_4  and  O_11 
REMARK    2  A    between atoms: N_7  and  O_8 
REMARK    3  A    between atoms: O_11  and  C_12 
REMARK    4  A    between atoms: C_12  and  C_14 
ROOT
HETATM    1  C   UNK N   1      28.009  17.394   9.074  0.00  0.00     0.034 C 
HETATM    2  C   UNK N   1      28.571  17.526   7.669  0.00  0.00     0.034 C 
HETATM    3  C   UNK N   1      30.065  17.220   7.759  0.00  0.00     0.059 C 
HETATM    4  C   UNK N   1      30.735  17.189   6.383  0.00  0.00     0.135 C 
HETATM    5  C   UNK N   1      29.999  16.185   5.499  0.00  0.00     0.059 C 
HETATM    6  C   UNK N   1      28.491  16.437   5.419  0.00  0.00     0.034 C 
HETATM    7  N   UNK N   1      27.912  16.542   6.780  0.00  0.00    -0.182 NA
HETATM    8  C   UNK N   1      28.207  17.669   4.562  0.00  0.00     0.034 C 
HETATM    9  C   UNK N   1      27.885  15.238   4.713  0.00  0.00     0.034 C 
HETATM   10  C   UNK N   1      28.350  18.969   7.219  0.00  0.00     0.034 C 
ENDROOT
BRANCH   4  11
HETATM   11  O   UNK N   1      32.040  16.753   6.506  0.00  0.00    -0.316 OA
BRANCH  11  12
HETATM   12  C   UNK N   1      33.115  17.562   6.702  0.00  0.00     0.263 C 
HETATM   13  O   UNK N   1      33.903  17.789   5.796  0.00  0.00    -0.265 OA
BRANCH  12  14
HETATM   14  C   UNK N   1      33.293  18.231   8.031  0.00  0.00     0.085 A 
HETATM   15  C   UNK N   1      34.761  18.522   8.289  0.00  0.00     0.015 A 
HETATM   16  C   UNK N   1      34.103  17.334   8.949  0.00  0.00     0.015 A 
ENDBRANCH  12  14
ENDBRANCH  11  12
ENDBRANCH   4  11
BRANCH   7  17
HETATM   17  O   UNK N   1      26.581  16.808   6.698  0.00  0.00    -0.312 OA
HETATM   18  H   UNK N   1      26.231  17.368   5.987  0.00  0.00     0.237 HD
ENDBRANCH   7  17
TORSDOF 4
ENDMDL
MODEL 2
REMARK VINA RESULT:      -5.3     12.010     13.760
REMARK  4 active torsions:
REMARK  status: ('A' for Active; 'I' for Inactive)
REMARK    1  A    between atoms: C_4  and  O_11 
REMARK    2  A    between atoms: N_7  and  O_8 
REMARK    3  A    between atoms: O_11  and  C_12 
REMARK    4  A    between atoms: C_12  and  C_14 
ROOT
HETATM    1  C   UNK N   1      26.646  23.429  -6.343  0.00  0.00     0.034 C 
HETATM    2  C   UNK N   1      27.242  24.322  -5.268  0.00  0.00     0.034 C 
HETATM    3  C   UNK N   1      28.543  23.662  -4.815  0.00  0.00     0.059 C 
HETATM    4  C   UNK N   1      29.317  24.529  -3.819  0.00  0.00     0.135 C 
HETATM    5  C   UNK N   1      29.562  25.900  -4.447  0.00  0.00     0.059 C 
HETATM    6  C   UNK N   1      28.284  26.574  -4.951  0.00  0.00     0.034 C 
HETATM    7  N   UNK N   1      27.532  25.656  -5.841  0.00  0.00    -0.182 NA
HETATM    8  C   UNK N   1      27.447  27.065  -3.772  0.00  0.00     0.034 C 
HETATM    9  C   UNK N   1      28.716  27.793  -5.745  0.00  0.00     0.034 C 
HETATM   10  C   UNK N   1      26.244  24.380  -4.113  0.00  0.00     0.034 C 
ENDROOT
BRANCH   4  11
HETATM   11  O   UNK N   1      30.553  23.964  -3.567  0.00  0.00    -0.316 OA
BRANCH  11  12
HETATM   12  C   UNK N   1      30.800  23.034  -2.606  0.00  0.00     0.263 C 
HETATM   13  O   UNK N   1      30.304  23.135  -1.493  0.00  0.00    -0.265 OA
BRANCH  12  14
HETATM   14  C   UNK N   1      31.641  21.841  -2.942  0.00  0.00     0.085 A 
HETATM   15  C   UNK N   1      31.858  21.747  -4.442  0.00  0.00     0.015 A 
HETATM   16  C   UNK N   1      30.830  20.864  -3.775  0.00  0.00     0.015 A 
ENDBRANCH  12  14
ENDBRANCH  11  12
ENDBRANCH   4  11
BRANCH   7  17
HETATM   17  O   UNK N   1      26.378  26.248  -6.250  0.00  0.00    -0.312 OA
HETATM   18  H   UNK N   1      25.801  26.698  -5.612  0.00  0.00     0.237 HD
ENDBRANCH   7  17
TORSDOF 4
ENDMDL
MODEL 3
REMARK VINA RESULT:      -5.3     14.497     16.307
REMARK  4 active torsions:
REMARK  status: ('A' for Active; 'I' for Inactive)
REMARK    1  A    between atoms: C_4  and  O_11 
REMARK    2  A    between atoms: N_7  and  O_8 
REMARK    3  A    between atoms: O_11  and  C_12 
REMARK    4  A    between atoms: C_12  and  C_14 
ROOT
HETATM    1  C   UNK N   1      25.432  25.666  -9.650  0.00  0.00     0.034 C 
HETATM    2  C   UNK N   1      26.046  24.796  -8.568  0.00  0.00     0.034 C 
HETATM    3  C   UNK N   1      25.765  25.484  -7.234  0.00  0.00     0.059 C 
HETATM    4  C   UNK N   1      26.220  24.641  -6.039  0.00  0.00     0.135 C 
HETATM    5  C   UNK N   1      25.556  23.269  -6.123  0.00  0.00     0.059 C 
HETATM    6  C   UNK N   1      25.781  22.567  -7.465  0.00  0.00     0.034 C 
HETATM    7  N   UNK N   1      25.405  23.461  -8.586  0.00  0.00    -0.182 NA
HETATM    8  C   UNK N   1      27.223  22.072  -7.565  0.00  0.00     0.034 C 
HETATM    9  C   UNK N   1      24.878  21.347  -7.477  0.00  0.00     0.034 C 
HETATM   10  C   UNK N   1      27.550  24.731  -8.828  0.00  0.00     0.034 C 
ENDROOT
BRANCH   4  11
HETATM   11  O   UNK N   1      25.801  25.231  -4.862  0.00  0.00    -0.316 OA
BRANCH  11  12
HETATM   12  C   UNK N   1      26.629  25.700  -3.890  0.00  0.00     0.263 C 
HETATM   13  O   UNK N   1      27.622  25.071  -3.555  0.00  0.00    -0.265 OA
BRANCH  12  14
HETATM   14  C   UNK N   1      26.347  27.035  -3.271  0.00  0.00     0.085 A 
HETATM   15  C   UNK N   1      25.480  27.877  -4.190  0.00  0.00     0.015 A 
HETATM   16  C   UNK N   1      26.967  28.131  -4.119  0.00  0.00     0.015 A 
ENDBRANCH  12  14
ENDBRANCH  11  12
ENDBRANCH   4  11
BRANCH   7  17
HETATM   17  O   UNK N   1      25.649  22.844  -9.773  0.00  0.00    -0.312 OA
HETATM   18  H   UNK N   1      25.277  21.967  -9.960  0.00  0.00     0.237 HD
ENDBRANCH   7  17
TORSDOF 4
ENDMDL
MODEL 4
REMARK VINA RESULT:      -5.2     14.041     16.516
REMARK  4 active torsions:
REMARK  status: ('A' for Active; 'I' for Inactive)
REMARK    1  A    between atoms: C_4  and  O_11 
REMARK    2  A    between atoms: N_7  and  O_8 
REMARK    3  A    between atoms: O_11  and  C_12 
REMARK    4  A    between atoms: C_12  and  C_14 
ROOT
HETATM    1  C   UNK N   1      27.227  27.823  -6.721  0.00  0.00     0.034 C 
HETATM    2  C   UNK N   1      26.682  26.499  -6.217  0.00  0.00     0.034 C 
HETATM    3  C   UNK N   1      26.392  25.641  -7.447  0.00  0.00     0.059 C 
HETATM    4  C   UNK N   1      25.956  24.221  -7.075  0.00  0.00     0.135 C 
HETATM    5  C   UNK N   1      27.026  23.595  -6.184  0.00  0.00     0.059 C 
HETATM    6  C   UNK N   1      27.374  24.449  -4.962  0.00  0.00     0.034 C 
HETATM    7  N   UNK N   1      27.703  25.834  -5.375  0.00  0.00    -0.182 NA
HETATM    8  C   UNK N   1      26.239  24.393  -3.941  0.00  0.00     0.034 C 
HETATM    9  C   UNK N   1      28.597  23.817  -4.321  0.00  0.00     0.034 C 
HETATM   10  C   UNK N   1      25.390  26.793  -5.456  0.00  0.00     0.034 C 
ENDROOT
BRANCH   4  11
HETATM   11  O   UNK N   1      25.862  23.446  -8.215  0.00  0.00    -0.316 OA
BRANCH  11  12
HETATM   12  C   UNK N   1      25.134  22.302  -8.319  0.00  0.00     0.263 C 
HETATM   13  O   UNK N   1      23.940  22.293  -8.059  0.00  0.00    -0.265 OA
BRANCH  12  14
HETATM   14  C   UNK N   1      25.798  21.056  -8.820  0.00  0.00     0.085 A 
HETATM   15  C   UNK N   1      27.184  21.368  -9.353  0.00  0.00     0.015 A 
HETATM   16  C   UNK N   1      26.036  21.171 -10.315  0.00  0.00     0.015 A 
ENDBRANCH  12  14
ENDBRANCH  11  12
ENDBRANCH   4  11
BRANCH   7  17
HETATM   17  O   UNK N   1      27.968  26.594  -4.279  0.00  0.00    -0.312 OA
HETATM   18  H   UNK N   1      27.385  26.565  -3.504  0.00  0.00     0.237 HD
ENDBRANCH   7  17
TORSDOF 4
ENDMDL
MODEL 5
REMARK VINA RESULT:      -5.2      2.139      5.407
REMARK  4 active torsions:
REMARK  status: ('A' for Active; 'I' for Inactive)
REMARK    1  A    between atoms: C_4  and  O_11 
REMARK    2  A    between atoms: N_7  and  O_8 
REMARK    3  A    between atoms: O_11  and  C_12 
REMARK    4  A    between atoms: C_12  and  C_14 
ROOT
HETATM    1  C   UNK N   1      34.227  17.747   8.687  0.00  0.00     0.034 C 
HETATM    2  C   UNK N   1      33.158  17.074   7.844  0.00  0.00     0.034 C 
HETATM    3  C   UNK N   1      31.824  17.713   8.228  0.00  0.00     0.059 C 
HETATM    4  C   UNK N   1      30.670  17.216   7.353  0.00  0.00     0.135 C 
HETATM    5  C   UNK N   1      31.020  17.463   5.888  0.00  0.00     0.059 C 
HETATM    6  C   UNK N   1      32.371  16.872   5.478  0.00  0.00     0.034 C 
HETATM    7  N   UNK N   1      33.435  17.319   6.410  0.00  0.00    -0.182 NA
HETATM    8  C   UNK N   1      32.274  15.351   5.383  0.00  0.00     0.034 C 
HETATM    9  C   UNK N   1      32.675  17.400   4.088  0.00  0.00     0.034 C 
HETATM   10  C   UNK N   1      33.158  15.589   8.200  0.00  0.00     0.034 C 
ENDROOT
BRANCH   4  11
HETATM   11  O   UNK N   1      29.525  17.938   7.633  0.00  0.00    -0.316 OA
BRANCH  11  12
HETATM   12  C   UNK N   1      28.392  17.920   6.881  0.00  0.00     0.263 C 
HETATM   13  O   UNK N   1      27.817  16.869   6.639  0.00  0.00    -0.265 OA
BRANCH  12  14
HETATM   14  C   UNK N   1      27.813  19.215   6.401  0.00  0.00     0.085 A 
HETATM   15  C   UNK N   1      26.793  18.970   5.304  0.00  0.00     0.015 A 
HETATM   16  C   UNK N   1      28.185  19.432   4.945  0.00  0.00     0.015 A 
ENDBRANCH  12  14
ENDBRANCH  11  12
ENDBRANCH   4  11
BRANCH   7  17
HETATM   17  O   UNK N   1      34.622  16.756   6.063  0.00  0.00    -0.312 OA
HETATM   18  H   UNK N   1      35.415  16.902   6.603  0.00  0.00     0.237 HD
ENDBRANCH   7  17
TORSDOF 4
ENDMDL
MODEL 6
REMARK VINA RESULT:      -5.2      4.133      6.587
REMARK  4 active torsions:
REMARK  status: ('A' for Active; 'I' for Inactive)
REMARK    1  A    between atoms: C_4  and  O_11 
REMARK    2  A    between atoms: N_7  and  O_8 
REMARK    3  A    between atoms: O_11  and  C_12 
REMARK    4  A    between atoms: C_12  and  C_14 
ROOT
HETATM    1  C   UNK N   1      35.020  15.048   5.344  0.00  0.00     0.034 C 
HETATM    2  C   UNK N   1      34.415  15.464   6.673  0.00  0.00     0.034 C 
HETATM    3  C   UNK N   1      35.110  14.637   7.753  0.00  0.00     0.059 C 
HETATM    4  C   UNK N   1      34.685  15.052   9.164  0.00  0.00     0.135 C 
HETATM    5  C   UNK N   1      34.943  16.547   9.337  0.00  0.00     0.059 C 
HETATM    6  C   UNK N   1      34.296  17.405   8.246  0.00  0.00     0.034 C 
HETATM    7  N   UNK N   1      34.674  16.904   6.903  0.00  0.00    -0.182 NA
HETATM    8  C   UNK N   1      32.783  17.462   8.449  0.00  0.00     0.034 C 
HETATM    9  C   UNK N   1      34.835  18.813   8.421  0.00  0.00     0.034 C 
HETATM   10  C   UNK N   1      32.925  15.133   6.625  0.00  0.00     0.034 C 
ENDROOT
BRANCH   4  11
HETATM   11  O   UNK N   1      35.455  14.389  10.100  0.00  0.00    -0.316 OA
BRANCH  11  12
HETATM   12  C   UNK N   1      34.996  13.428  10.945  0.00  0.00     0.263 C 
HETATM   13  O   UNK N   1      34.563  12.369  10.514  0.00  0.00    -0.265 OA
BRANCH  12  14
HETATM   14  C   UNK N   1      35.083  13.651  12.424  0.00  0.00     0.085 A 
HETATM   15  C   UNK N   1      36.078  14.753  12.739  0.00  0.00     0.015 A 
HETATM   16  C   UNK N   1      36.480  13.307  12.910  0.00  0.00     0.015 A 
ENDBRANCH  12  14
ENDBRANCH  11  12
ENDBRANCH   4  11
BRANCH   7  17
HETATM   17  O   UNK N   1      34.061  17.645   5.942  0.00  0.00    -0.312 OA
HETATM   18  H   UNK N   1      34.583  18.152   5.300  0.00  0.00     0.237 HD
ENDBRANCH   7  17
TORSDOF 4
ENDMDL
MODEL 7
REMARK VINA RESULT:      -5.1     15.074     17.456
REMARK  4 active torsions:
REMARK  status: ('A' for Active; 'I' for Inactive)
REMARK    1  A    between atoms: C_4  and  O_11 
REMARK    2  A    between atoms: N_7  and  O_8 
REMARK    3  A    between atoms: O_11  and  C_12 
REMARK    4  A    between atoms: C_12  and  C_14 
ROOT
HETATM    1  C   UNK N   1      27.126  28.742  -5.771  0.00  0.00     0.034 C 
HETATM    2  C   UNK N   1      26.635  27.306  -5.755  0.00  0.00     0.034 C 
HETATM    3  C   UNK N   1      26.600  26.833  -7.207  0.00  0.00     0.059 C 
HETATM    4  C   UNK N   1      26.244  25.349  -7.325  0.00  0.00     0.135 C 
HETATM    5  C   UNK N   1      27.229  24.538  -6.486  0.00  0.00     0.059 C 
HETATM    6  C   UNK N   1      27.321  25.011  -5.033  0.00  0.00     0.034 C 
HETATM    7  N   UNK N   1      27.581  26.470  -4.980  0.00  0.00    -0.182 NA
HETATM    8  C   UNK N   1      26.062  24.610  -4.267  0.00  0.00     0.034 C 
HETATM    9  C   UNK N   1      28.491  24.275  -4.406  0.00  0.00     0.034 C 
HETATM   10  C   UNK N   1      25.227  27.307  -5.161  0.00  0.00     0.034 C 
ENDROOT
BRANCH   4  11
HETATM   11  O   UNK N   1      26.383  24.936  -8.637  0.00  0.00    -0.316 OA
BRANCH  11  12
HETATM   12  C   UNK N   1      25.382  24.421  -9.399  0.00  0.00     0.263 C 
HETATM   13  O   UNK N   1      24.592  23.613  -8.935  0.00  0.00    -0.265 OA
BRANCH  12  14
HETATM   14  C   UNK N   1      25.214  24.903 -10.808  0.00  0.00     0.085 A 
HETATM   15  C   UNK N   1      26.021  26.168 -11.039  0.00  0.00     0.015 A 
HETATM   16  C   UNK N   1      24.532  26.260 -10.805  0.00  0.00     0.015 A 
ENDBRANCH  12  14
ENDBRANCH  11  12
ENDBRANCH   4  11
BRANCH   7  17
HETATM   17  O   UNK N   1      27.619  26.888  -3.687  0.00  0.00    -0.312 OA
HETATM   18  H   UNK N   1      27.020  26.506  -3.026  0.00  0.00     0.237 HD
ENDBRANCH   7  17
TORSDOF 4
ENDMDL
MODEL 8
REMARK VINA RESULT:      -5.0     13.877     15.889
REMARK  4 active torsions:
REMARK  status: ('A' for Active; 'I' for Inactive)
REMARK    1  A    between atoms: C_4  and  O_11 
REMARK    2  A    between atoms: N_7  and  O_8 
REMARK    3  A    between atoms: O_11  and  C_12 
REMARK    4  A    between atoms: C_12  and  C_14 
ROOT
HETATM    1  C   UNK N   1      29.484  24.987  -3.803  0.00  0.00     0.034 C 
HETATM    2  C   UNK N   1      28.407  25.337  -4.814  0.00  0.00     0.034 C 
HETATM    3  C   UNK N   1      27.540  24.091  -4.987  0.00  0.00     0.059 C 
HETATM    4  C   UNK N   1      26.329  24.348  -5.887  0.00  0.00     0.135 C 
HETATM    5  C   UNK N   1      25.533  25.520  -5.320  0.00  0.00     0.059 C 
HETATM    6  C   UNK N   1      26.380  26.775  -5.093  0.00  0.00     0.034 C 
HETATM    7  N   UNK N   1      27.582  26.450  -4.289  0.00  0.00    -0.182 NA
HETATM    8  C   UNK N   1      26.726  27.427  -6.431  0.00  0.00     0.034 C 
HETATM    9  C   UNK N   1      25.514  27.753  -4.319  0.00  0.00     0.034 C 
HETATM   10  C   UNK N   1      29.104  25.688  -6.127  0.00  0.00     0.034 C 
ENDROOT
BRANCH   4  11
HETATM   11  O   UNK N   1      25.498  23.243  -5.882  0.00  0.00    -0.316 OA
BRANCH  11  12
HETATM   12  C   UNK N   1      25.329  22.393  -6.929  0.00  0.00     0.263 C 
HETATM   13  O   UNK N   1      24.393  21.606  -6.953  0.00  0.00    -0.265 OA
BRANCH  12  14
HETATM   14  C   UNK N   1      26.268  22.471  -8.093  0.00  0.00     0.085 A 
HETATM   15  C   UNK N   1      26.258  21.170  -8.875  0.00  0.00     0.015 A 
HETATM   16  C   UNK N   1      27.387  21.460  -7.915  0.00  0.00     0.015 A 
ENDBRANCH  12  14
ENDBRANCH  11  12
ENDBRANCH   4  11
BRANCH   7  17
HETATM   17  O   UNK N   1      28.348  27.561  -4.130  0.00  0.00    -0.312 OA
HETATM   18  H   UNK N   1      29.153  27.533  -3.588  0.00  0.00     0.237 HD
ENDBRANCH   7  17
TORSDOF 4
ENDMDL
MODEL 9
REMARK VINA RESULT:      -5.0      5.042      8.135
REMARK  4 active torsions:
REMARK  status: ('A' for Active; 'I' for Inactive)
REMARK    1  A    between atoms: C_4  and  O_11 
REMARK    2  A    between atoms: N_7  and  O_8 
REMARK    3  A    between atoms: O_11  and  C_12 
REMARK    4  A    between atoms: C_12  and  C_14 
ROOT
HETATM    1  C   UNK N   1      36.202  14.147  13.735  0.00  0.00     0.034 C 
HETATM    2  C   UNK N   1      35.910  13.871  12.271  0.00  0.00     0.034 C 
HETATM    3  C   UNK N   1      35.010  15.003  11.778  0.00  0.00     0.059 C 
HETATM    4  C   UNK N   1      34.744  14.918  10.273  0.00  0.00     0.135 C 
HETATM    5  C   UNK N   1      36.081  14.891   9.537  0.00  0.00     0.059 C 
HETATM    6  C   UNK N   1      37.026  13.795  10.034  0.00  0.00     0.034 C 
HETATM    7  N   UNK N   1      37.179  13.872  11.507  0.00  0.00    -0.182 NA
HETATM    8  C   UNK N   1      36.539  12.425   9.565  0.00  0.00     0.034 C 
HETATM    9  C   UNK N   1      38.373  14.049   9.381  0.00  0.00     0.034 C 
HETATM   10  C   UNK N   1      35.176  12.534  12.192  0.00  0.00     0.034 C 
ENDROOT
BRANCH   4  11
HETATM   11  O   UNK N   1      34.063  16.045   9.853  0.00  0.00    -0.316 OA
BRANCH  11  12
HETATM   12  C   UNK N   1      33.335  16.131   8.708  0.00  0.00     0.263 C 
HETATM   13  O   UNK N   1      32.887  15.129   8.172  0.00  0.00    -0.265 OA
BRANCH  12  14
HETATM   14  C   UNK N   1      33.029  17.482   8.137  0.00  0.00     0.085 A 
HETATM   15  C   UNK N   1      33.600  17.613   6.737  0.00  0.00     0.015 A 
HETATM   16  C   UNK N   1      34.321  18.243   7.905  0.00  0.00     0.015 A 
ENDBRANCH  12  14
ENDBRANCH  11  12
ENDBRANCH   4  11
BRANCH   7  17
HETATM   17  O   UNK N   1      37.986  12.869  11.943  0.00  0.00    -0.312 OA
HETATM   18  H   UNK N   1      37.907  11.975  11.574  0.00  0.00     0.237 HD
ENDBRANCH   7  17
TORSDOF 4
ENDMDL
