MODEL 1
REMARK VINA RESULT:      -9.0      0.000      0.000
REMARK  5 active torsions:
REMARK  status: ('A' for Active; 'I' for Inactive)
REMARK    1  A    between atoms: C_5  and  N_8 
REMARK       I    between atoms: N_11  and  C_14 
REMARK    2  A    between atoms: C_14  and  C_16 
REMARK    3  A    between atoms: C_16  and  C_17 
REMARK    4  A    between atoms: C_16  and  N_23 
REMARK       I    between atoms: N_23  and  C_24 
REMARK    5  A    between atoms: C_24  and  C_26 
ROOT
HETATM    1  C   UNK N   1      32.525  16.268   6.352  0.00  0.00     0.210 C 
ENDROOT
BRANCH   1   2
HETATM    2  C   UNK N   1      33.537  17.027   7.192  0.00  0.00     0.247 C 
HETATM    3  N   UNK N   1      33.722  16.752   8.508  0.00  0.00    -0.347 N 
HETATM    4  C   UNK N   1      32.963  15.720   9.165  0.00  0.00     0.156 C 
HETATM    5  C   UNK N   1      34.721  17.466   9.271  0.00  0.00     0.156 C 
HETATM    6  C   UNK N   1      33.924  14.650   9.663  0.00  0.00     0.292 C 
HETATM    7  N   UNK N   1      35.289  15.149   9.957  0.00  0.00     0.096 N 
HETATM    8  C   UNK N   1      35.313  16.567  10.354  0.00  0.00     0.292 C 
HETATM    9  O   UNK N   1      34.187  17.929   6.673  0.00  0.00    -0.271 OA
BRANCH   7  10
HETATM   10  C   UNK N   1      35.846  14.356  11.060  0.00  0.00     0.226 C 
HETATM   11  C   UNK N   1      34.939  13.146  11.351  0.00  0.00     0.066 C 
HETATM   12  C   UNK N   1      35.338  12.463  12.656  0.00  0.00     0.274 C 
HETATM   13  N   UNK N   1      35.308  13.436  13.743  0.00  0.00     0.084 N 
HETATM   14  C   UNK N   1      35.591  12.732  14.978  0.00  0.00     0.309 C 
HETATM   15  C   UNK N   1      36.393  14.382  13.525  0.00  0.00     0.274 C 
HETATM   16  C   UNK N   1      36.064  15.233  12.314  0.00  0.00     0.066 C 
ENDBRANCH   7  10
ENDBRANCH   1   2
BRANCH   1  17
HETATM   17  C   UNK N   1      33.123  15.683   5.096  0.00  0.00    -0.026 A 
HETATM   18  C   UNK N   1      33.907  14.524   5.189  0.00  0.00     0.010 A 
HETATM   19  C   UNK N   1      34.465  13.955   4.042  0.00  0.00     0.001 A 
HETATM   20  C   UNK N   1      34.226  14.530   2.791  0.00  0.00     0.000 A 
HETATM   21  C   UNK N   1      33.438  15.680   2.689  0.00  0.00     0.001 A 
HETATM   22  C   UNK N   1      32.891  16.261   3.839  0.00  0.00     0.010 A 
ENDBRANCH   1  17
BRANCH   1  23
HETATM   23  N   UNK N   1      31.428  17.165   6.087  0.00  0.00    -0.340 N 
HETATM   24  C   UNK N   1      30.108  16.888   6.010  0.00  0.00     0.252 C 
HETATM   25  O   UNK N   1      29.697  15.737   6.067  0.00  0.00    -0.268 OA
HETATM   26  H   UNK N   1      31.673  18.108   5.943  0.00  0.00     0.164 HD
BRANCH  24  27
HETATM   27  C   UNK N   1      29.183  18.026   5.880  0.00  0.00     0.034 A 
HETATM   28  C   UNK N   1      28.807  18.548   4.619  0.00  0.00     0.018 A 
HETATM   29  C   UNK N   1      27.878  19.607   4.540  0.00  0.00     0.015 A 
HETATM   30  C   UNK N   1      27.344  20.098   5.731  0.00  0.00    -0.008 A 
HETATM   31  C   UNK N   1      26.419  21.089   5.954  0.00  0.00     0.030 A 
HETATM   32  C   UNK N   1      27.707  19.595   6.940  0.00  0.00     0.043 A 
HETATM   33  C   UNK N   1      26.262  21.134   7.343  0.00  0.00     0.089 A 
HETATM   34  N   UNK N   1      27.058  20.212   7.937  0.00  0.00    -0.365 N 
HETATM   35  H   UNK N   1      27.143  20.033   8.902  0.00  0.00     0.165 HD
HETATM   36  C   UNK N   1      28.623  18.567   7.058  0.00  0.00     0.047 A 
ENDBRANCH  24  27
ENDBRANCH   1  23
TORSDOF 5
ENDMDL
MODEL 2
REMARK VINA RESULT:      -8.2      5.212      9.416
REMARK  5 active torsions:
REMARK  status: ('A' for Active; 'I' for Inactive)
REMARK    1  A    between atoms: C_5  and  N_8 
REMARK       I    between atoms: N_11  and  C_14 
REMARK    2  A    between atoms: C_14  and  C_16 
REMARK    3  A    between atoms: C_16  and  C_17 
REMARK    4  A    between atoms: C_16  and  N_23 
REMARK       I    between atoms: N_23  and  C_24 
REMARK    5  A    between atoms: C_24  and  C_26 
ROOT
HETATM    1  C   UNK N   1      26.511  17.335   5.392  0.00  0.00     0.210 C 
ENDROOT
BRANCH   1   2
HETATM    2  C   UNK N   1      26.201  15.965   4.815  0.00  0.00     0.247 C 
HETATM    3  N   UNK N   1      25.972  14.890   5.610  0.00  0.00    -0.347 N 
HETATM    4  C   UNK N   1      26.013  15.006   7.045  0.00  0.00     0.156 C 
HETATM    5  C   UNK N   1      25.640  13.608   5.031  0.00  0.00     0.156 C 
HETATM    6  C   UNK N   1      24.640  14.660   7.602  0.00  0.00     0.292 C 
HETATM    7  N   UNK N   1      23.857  13.731   6.752  0.00  0.00     0.096 N 
HETATM    8  C   UNK N   1      24.701  12.830   5.950  0.00  0.00     0.292 C 
HETATM    9  O   UNK N   1      26.179  15.822   3.595  0.00  0.00    -0.271 OA
BRANCH   7  10
HETATM   10  C   UNK N   1      23.009  12.907   7.624  0.00  0.00     0.226 C 
HETATM   11  C   UNK N   1      21.851  13.752   8.186  0.00  0.00     0.066 C 
HETATM   12  C   UNK N   1      21.120  13.007   9.299  0.00  0.00     0.274 C 
HETATM   13  N   UNK N   1      22.071  12.632  10.340  0.00  0.00     0.084 N 
HETATM   14  C   UNK N   1      21.326  12.021  11.423  0.00  0.00     0.309 C 
HETATM   15  C   UNK N   1      22.953  11.612   9.791  0.00  0.00     0.274 C 
HETATM   16  C   UNK N   1      23.846  12.250   8.745  0.00  0.00     0.066 C 
ENDBRANCH   7  10
ENDBRANCH   1   2
BRANCH   1  17
HETATM   17  C   UNK N   1      25.984  18.465   4.543  0.00  0.00    -0.026 A 
HETATM   18  C   UNK N   1      26.892  19.350   3.945  0.00  0.00     0.010 A 
HETATM   19  C   UNK N   1      26.432  20.401   3.146  0.00  0.00     0.001 A 
HETATM   20  C   UNK N   1      25.062  20.561   2.923  0.00  0.00     0.000 A 
HETATM   21  C   UNK N   1      24.151  19.676   3.509  0.00  0.00     0.001 A 
HETATM   22  C   UNK N   1      24.608  18.633   4.323  0.00  0.00     0.010 A 
ENDBRANCH   1  17
BRANCH   1  23
HETATM   23  N   UNK N   1      27.937  17.402   5.593  0.00  0.00    -0.340 N 
HETATM   24  C   UNK N   1      28.623  17.553   6.748  0.00  0.00     0.252 C 
HETATM   25  O   UNK N   1      28.045  17.762   7.806  0.00  0.00    -0.268 OA
HETATM   26  H   UNK N   1      28.487  17.327   4.780  0.00  0.00     0.164 HD
BRANCH  24  27
HETATM   27  C   UNK N   1      30.089  17.432   6.687  0.00  0.00     0.034 A 
HETATM   28  C   UNK N   1      30.783  17.324   5.457  0.00  0.00     0.018 A 
HETATM   29  C   UNK N   1      32.192  17.262   5.444  0.00  0.00     0.015 A 
HETATM   30  C   UNK N   1      32.860  17.327   6.666  0.00  0.00    -0.008 A 
HETATM   31  C   UNK N   1      34.205  17.313   6.951  0.00  0.00     0.030 A 
HETATM   32  C   UNK N   1      32.192  17.430   7.844  0.00  0.00     0.043 A 
HETATM   33  C   UNK N   1      34.283  17.416   8.343  0.00  0.00     0.089 A 
HETATM   34  N   UNK N   1      33.040  17.487   8.880  0.00  0.00    -0.365 N 
HETATM   35  H   UNK N   1      32.809  17.564   9.834  0.00  0.00     0.165 HD
HETATM   36  C   UNK N   1      30.812  17.481   7.899  0.00  0.00     0.047 A 
ENDBRANCH  24  27
ENDBRANCH   1  23
TORSDOF 5
ENDMDL
MODEL 3
REMARK VINA RESULT:      -8.1      4.312      6.998
REMARK  5 active torsions:
REMARK  status: ('A' for Active; 'I' for Inactive)
REMARK    1  A    between atoms: C_5  and  N_8 
REMARK       I    between atoms: N_11  and  C_14 
REMARK    2  A    between atoms: C_14  and  C_16 
REMARK    3  A    between atoms: C_16  and  C_17 
REMARK    4  A    between atoms: C_16  and  N_23 
REMARK       I    between atoms: N_23  and  C_24 
REMARK    5  A    between atoms: C_24  and  C_26 
ROOT
HETATM    1  C   UNK N   1      26.810  17.933   5.468  0.00  0.00     0.210 C 
ENDROOT
BRANCH   1   2
HETATM    2  C   UNK N   1      27.517  18.626   6.619  0.00  0.00     0.247 C 
HETATM    3  N   UNK N   1      28.426  17.980   7.392  0.00  0.00    -0.347 N 
HETATM    4  C   UNK N   1      28.761  16.601   7.148  0.00  0.00     0.156 C 
HETATM    5  C   UNK N   1      29.111  18.678   8.456  0.00  0.00     0.156 C 
HETATM    6  C   UNK N   1      30.239  16.512   6.796  0.00  0.00     0.292 C 
HETATM    7  N   UNK N   1      31.067  17.596   7.378  0.00  0.00     0.096 N 
HETATM    8  C   UNK N   1      30.523  18.126   8.639  0.00  0.00     0.292 C 
HETATM    9  O   UNK N   1      27.242  19.796   6.872  0.00  0.00    -0.271 OA
BRANCH   7  10
HETATM   10  C   UNK N   1      32.408  17.061   7.649  0.00  0.00     0.226 C 
HETATM   11  C   UNK N   1      32.317  15.880   8.633  0.00  0.00     0.066 C 
HETATM   12  C   UNK N   1      33.700  15.484   9.143  0.00  0.00     0.274 C 
HETATM   13  N   UNK N   1      34.346  16.643   9.747  0.00  0.00     0.084 N 
HETATM   14  C   UNK N   1      35.609  16.206  10.309  0.00  0.00     0.309 C 
HETATM   15  C   UNK N   1      34.650  17.589   8.683  0.00  0.00     0.274 C 
HETATM   16  C   UNK N   1      33.351  18.173   8.162  0.00  0.00     0.066 C 
ENDBRANCH   7  10
ENDBRANCH   1   2
BRANCH   1  17
HETATM   17  C   UNK N   1      26.115  18.897   4.538  0.00  0.00    -0.026 A 
HETATM   18  C   UNK N   1      26.887  19.775   3.764  0.00  0.00     0.010 A 
HETATM   19  C   UNK N   1      26.271  20.672   2.888  0.00  0.00     0.001 A 
HETATM   20  C   UNK N   1      24.879  20.683   2.764  0.00  0.00     0.000 A 
HETATM   21  C   UNK N   1      24.103  19.803   3.526  0.00  0.00     0.001 A 
HETATM   22  C   UNK N   1      24.717  18.916   4.416  0.00  0.00     0.010 A 
ENDBRANCH   1  17
BRANCH   1  23
HETATM   23  N   UNK N   1      25.914  16.959   6.039  0.00  0.00    -0.340 N 
HETATM   24  C   UNK N   1      25.754  15.659   5.706  0.00  0.00     0.252 C 
HETATM   25  O   UNK N   1      26.334  15.174   4.745  0.00  0.00    -0.268 OA
HETATM   26  H   UNK N   1      25.341  17.284   6.771  0.00  0.00     0.164 HD
BRANCH  24  27
HETATM   27  C   UNK N   1      24.874  14.844   6.561  0.00  0.00     0.034 A 
HETATM   28  C   UNK N   1      25.372  13.784   7.357  0.00  0.00     0.018 A 
HETATM   29  C   UNK N   1      24.500  13.064   8.200  0.00  0.00     0.015 A 
HETATM   30  C   UNK N   1      23.157  13.441   8.227  0.00  0.00    -0.008 A 
HETATM   31  C   UNK N   1      22.104  12.944   8.957  0.00  0.00     0.030 A 
HETATM   32  C   UNK N   1      22.683  14.458   7.462  0.00  0.00     0.043 A 
HETATM   33  C   UNK N   1      21.003  13.719   8.581  0.00  0.00     0.089 A 
HETATM   34  N   UNK N   1      21.371  14.645   7.662  0.00  0.00    -0.365 N 
HETATM   35  H   UNK N   1      20.794  15.316   7.231  0.00  0.00     0.165 HD
HETATM   36  C   UNK N   1      23.503  15.179   6.615  0.00  0.00     0.047 A 
ENDBRANCH  24  27
ENDBRANCH   1  23
TORSDOF 5
ENDMDL
MODEL 4
REMARK VINA RESULT:      -8.0      5.701     11.348
REMARK  5 active torsions:
REMARK  status: ('A' for Active; 'I' for Inactive)
REMARK    1  A    between atoms: C_5  and  N_8 
REMARK       I    between atoms: N_11  and  C_14 
REMARK    2  A    between atoms: C_14  and  C_16 
REMARK    3  A    between atoms: C_16  and  C_17 
REMARK    4  A    between atoms: C_16  and  N_23 
REMARK       I    between atoms: N_23  and  C_24 
REMARK    5  A    between atoms: C_24  and  C_26 
ROOT
HETATM    1  C   UNK N   1      26.859  16.955   4.594  0.00  0.00     0.210 C 
ENDROOT
BRANCH   1   2
HETATM    2  C   UNK N   1      26.847  15.855   3.547  0.00  0.00     0.247 C 
HETATM    3  N   UNK N   1      25.944  14.843   3.585  0.00  0.00    -0.347 N 
HETATM    4  C   UNK N   1      24.952  14.772   4.626  0.00  0.00     0.156 C 
HETATM    5  C   UNK N   1      25.934  13.832   2.551  0.00  0.00     0.156 C 
HETATM    6  C   UNK N   1      23.572  14.864   3.992  0.00  0.00     0.292 C 
HETATM    7  N   UNK N   1      23.512  14.370   2.595  0.00  0.00     0.096 N 
HETATM    8  C   UNK N   1      24.513  13.330   2.305  0.00  0.00     0.292 C 
HETATM    9  O   UNK N   1      27.692  15.870   2.656  0.00  0.00    -0.271 OA
BRANCH   7  10
HETATM   10  C   UNK N   1      22.179  13.798   2.362  0.00  0.00     0.226 C 
HETATM   11  C   UNK N   1      22.037  13.375   0.888  0.00  0.00     0.066 C 
HETATM   12  C   UNK N   1      20.587  13.036   0.552  0.00  0.00     0.274 C 
HETATM   13  N   UNK N   1      19.734  14.175   0.873  0.00  0.00     0.084 N 
HETATM   14  C   UNK N   1      18.386  13.855   0.448  0.00  0.00     0.309 C 
HETATM   15  C   UNK N   1      19.709  14.319   2.322  0.00  0.00     0.274 C 
HETATM   16  C   UNK N   1      21.072  14.788   2.791  0.00  0.00     0.066 C 
ENDBRANCH   7  10
ENDBRANCH   1   2
BRANCH   1  17
HETATM   17  C   UNK N   1      26.225  18.236   4.110  0.00  0.00    -0.026 A 
HETATM   18  C   UNK N   1      27.048  19.319   3.774  0.00  0.00     0.010 A 
HETATM   19  C   UNK N   1      26.489  20.515   3.314  0.00  0.00     0.001 A 
HETATM   20  C   UNK N   1      25.104  20.627   3.167  0.00  0.00     0.000 A 
HETATM   21  C   UNK N   1      24.278  19.546   3.492  0.00  0.00     0.001 A 
HETATM   22  C   UNK N   1      24.834  18.354   3.968  0.00  0.00     0.010 A 
ENDBRANCH   1  17
BRANCH   1  23
HETATM   23  N   UNK N   1      28.227  17.130   5.017  0.00  0.00    -0.340 N 
HETATM   24  C   UNK N   1      28.737  17.092   6.268  0.00  0.00     0.252 C 
HETATM   25  O   UNK N   1      28.010  16.995   7.246  0.00  0.00    -0.268 OA
HETATM   26  H   UNK N   1      28.877  17.299   4.297  0.00  0.00     0.164 HD
BRANCH  24  27
HETATM   27  C   UNK N   1      30.202  17.148   6.403  0.00  0.00     0.034 A 
HETATM   28  C   UNK N   1      31.058  17.237   5.279  0.00  0.00     0.018 A 
HETATM   29  C   UNK N   1      32.453  17.341   5.458  0.00  0.00     0.015 A 
HETATM   30  C   UNK N   1      32.943  17.367   6.764  0.00  0.00    -0.008 A 
HETATM   31  C   UNK N   1      34.230  17.482   7.233  0.00  0.00     0.030 A 
HETATM   32  C   UNK N   1      32.120  17.281   7.840  0.00  0.00     0.043 A 
HETATM   33  C   UNK N   1      34.113  17.462   8.625  0.00  0.00     0.089 A 
HETATM   34  N   UNK N   1      32.812  17.337   8.986  0.00  0.00    -0.365 N 
HETATM   35  H   UNK N   1      32.451  17.297   9.902  0.00  0.00     0.165 HD
HETATM   36  C   UNK N   1      30.749  17.166   7.705  0.00  0.00     0.047 A 
ENDBRANCH  24  27
ENDBRANCH   1  23
TORSDOF 5
ENDMDL
MODEL 5
REMARK VINA RESULT:      -8.0      2.232      2.634
REMARK  5 active torsions:
REMARK  status: ('A' for Active; 'I' for Inactive)
REMARK    1  A    between atoms: C_5  and  N_8 
REMARK       I    between atoms: N_11  and  C_14 
REMARK    2  A    between atoms: C_14  and  C_16 
REMARK    3  A    between atoms: C_16  and  C_17 
REMARK    4  A    between atoms: C_16  and  N_23 
REMARK       I    between atoms: N_23  and  C_24 
REMARK    5  A    between atoms: C_24  and  C_26 
ROOT
HETATM    1  C   UNK N   1      30.409  15.999   5.807  0.00  0.00     0.210 C 
ENDROOT
BRANCH   1   2
HETATM    2  C   UNK N   1      31.605  16.908   6.030  0.00  0.00     0.247 C 
HETATM    3  N   UNK N   1      32.219  16.996   7.237  0.00  0.00    -0.347 N 
HETATM    4  C   UNK N   1      31.759  16.225   8.362  0.00  0.00     0.156 C 
HETATM    5  C   UNK N   1      33.380  17.841   7.408  0.00  0.00     0.156 C 
HETATM    6  C   UNK N   1      32.875  15.286   8.798  0.00  0.00     0.292 C 
HETATM    7  N   UNK N   1      34.238  15.777   8.485  0.00  0.00     0.096 N 
HETATM    8  C   UNK N   1      34.329  17.246   8.444  0.00  0.00     0.292 C 
HETATM    9  O   UNK N   1      32.012  17.598   5.100  0.00  0.00    -0.271 OA
BRANCH   7  10
HETATM   10  C   UNK N   1      35.158  15.291   9.522  0.00  0.00     0.226 C 
HETATM   11  C   UNK N   1      34.762  13.866   9.952  0.00  0.00     0.066 C 
HETATM   12  C   UNK N   1      35.518  13.443  11.208  0.00  0.00     0.274 C 
HETATM   13  N   UNK N   1      35.280  14.414  12.270  0.00  0.00     0.084 N 
HETATM   14  C   UNK N   1      35.928  13.927  13.471  0.00  0.00     0.309 C 
HETATM   15  C   UNK N   1      35.941  15.656  11.894  0.00  0.00     0.274 C 
HETATM   16  C   UNK N   1      35.203  16.267  10.719  0.00  0.00     0.066 C 
ENDBRANCH   7  10
ENDBRANCH   1   2
BRANCH   1  17
HETATM   17  C   UNK N   1      30.723  14.821   4.918  0.00  0.00    -0.026 A 
HETATM   18  C   UNK N   1      31.603  13.833   5.381  0.00  0.00     0.010 A 
HETATM   19  C   UNK N   1      31.905  12.726   4.582  0.00  0.00     0.001 A 
HETATM   20  C   UNK N   1      31.312  12.589   3.325  0.00  0.00     0.000 A 
HETATM   21  C   UNK N   1      30.425  13.567   2.861  0.00  0.00     0.001 A 
HETATM   22  C   UNK N   1      30.134  14.684   3.651  0.00  0.00     0.010 A 
ENDBRANCH   1  17
BRANCH   1  23
HETATM   23  N   UNK N   1      29.337  16.818   5.297  0.00  0.00    -0.340 N 
HETATM   24  C   UNK N   1      28.339  17.424   5.977  0.00  0.00     0.252 C 
HETATM   25  O   UNK N   1      28.184  17.239   7.175  0.00  0.00    -0.268 OA
HETATM   26  H   UNK N   1      29.332  16.954   4.322  0.00  0.00     0.164 HD
BRANCH  24  27
HETATM   27  C   UNK N   1      27.461  18.335   5.222  0.00  0.00     0.034 A 
HETATM   28  C   UNK N   1      27.964  19.471   4.542  0.00  0.00     0.018 A 
HETATM   29  C   UNK N   1      27.094  20.286   3.788  0.00  0.00     0.015 A 
HETATM   30  C   UNK N   1      25.748  19.926   3.730  0.00  0.00    -0.008 A 
HETATM   31  C   UNK N   1      24.695  20.509   3.066  0.00  0.00     0.030 A 
HETATM   32  C   UNK N   1      25.269  18.836   4.384  0.00  0.00     0.043 A 
HETATM   33  C   UNK N   1      23.590  19.707   3.363  0.00  0.00     0.089 A 
HETATM   34  N   UNK N   1      23.954  18.684   4.174  0.00  0.00    -0.365 N 
HETATM   35  H   UNK N   1      23.373  17.974   4.533  0.00  0.00     0.165 HD
HETATM   36  C   UNK N   1      26.087  18.020   5.141  0.00  0.00     0.047 A 
ENDBRANCH  24  27
ENDBRANCH   1  23
TORSDOF 5
ENDMDL
MODEL 6
REMARK VINA RESULT:      -8.0      4.662      8.005
REMARK  5 active torsions:
REMARK  status: ('A' for Active; 'I' for Inactive)
REMARK    1  A    between atoms: C_5  and  N_8 
REMARK       I    between atoms: N_11  and  C_14 
REMARK    2  A    between atoms: C_14  and  C_16 
REMARK    3  A    between atoms: C_16  and  C_17 
REMARK    4  A    between atoms: C_16  and  N_23 
REMARK       I    between atoms: N_23  and  C_24 
REMARK    5  A    between atoms: C_24  and  C_26 
ROOT
HETATM    1  C   UNK N   1      26.618  16.846   5.547  0.00  0.00     0.210 C 
ENDROOT
BRANCH   1   2
HETATM    2  C   UNK N   1      27.769  17.361   6.392  0.00  0.00     0.247 C 
HETATM    3  N   UNK N   1      28.957  16.709   6.454  0.00  0.00    -0.347 N 
HETATM    4  C   UNK N   1      29.177  15.494   5.714  0.00  0.00     0.156 C 
HETATM    5  C   UNK N   1      30.048  17.246   7.236  0.00  0.00     0.156 C 
HETATM    6  C   UNK N   1      30.305  15.725   4.719  0.00  0.00     0.292 C 
HETATM    7  N   UNK N   1      31.277  16.765   5.135  0.00  0.00     0.096 N 
HETATM    8  C   UNK N   1      31.390  16.899   6.596  0.00  0.00     0.292 C 
HETATM    9  O   UNK N   1      27.613  18.383   7.055  0.00  0.00    -0.271 OA
BRANCH   7  10
HETATM   10  C   UNK N   1      32.598  16.404   4.605  0.00  0.00     0.226 C 
HETATM   11  C   UNK N   1      32.455  15.800   3.196  0.00  0.00     0.066 C 
HETATM   12  C   UNK N   1      33.766  15.168   2.735  0.00  0.00     0.274 C 
HETATM   13  N   UNK N   1      34.194  14.171   3.710  0.00  0.00     0.084 N 
HETATM   14  C   UNK N   1      35.382  13.523   3.190  0.00  0.00     0.309 C 
HETATM   15  C   UNK N   1      34.581  14.873   4.925  0.00  0.00     0.274 C 
HETATM   16  C   UNK N   1      33.338  15.452   5.572  0.00  0.00     0.066 C 
ENDBRANCH   7  10
ENDBRANCH   1   2
BRANCH   1  17
HETATM   17  C   UNK N   1      25.910  17.939   4.786  0.00  0.00    -0.026 A 
HETATM   18  C   UNK N   1      24.510  18.002   4.826  0.00  0.00     0.010 A 
HETATM   19  C   UNK N   1      23.829  19.010   4.137  0.00  0.00     0.001 A 
HETATM   20  C   UNK N   1      24.544  19.973   3.421  0.00  0.00     0.000 A 
HETATM   21  C   UNK N   1      25.941  19.922   3.385  0.00  0.00     0.001 A 
HETATM   22  C   UNK N   1      26.625  18.904   4.059  0.00  0.00     0.010 A 
ENDBRANCH   1  17
BRANCH   1  23
HETATM   23  N   UNK N   1      25.738  16.112   6.423  0.00  0.00    -0.340 N 
HETATM   24  C   UNK N   1      25.319  14.831   6.322  0.00  0.00     0.252 C 
HETATM   25  O   UNK N   1      25.592  14.150   5.343  0.00  0.00    -0.268 OA
HETATM   26  H   UNK N   1      25.398  16.610   7.201  0.00  0.00     0.164 HD
BRANCH  24  27
HETATM   27  C   UNK N   1      24.542  14.282   7.445  0.00  0.00     0.034 A 
HETATM   28  C   UNK N   1      23.126  14.260   7.439  0.00  0.00     0.018 A 
HETATM   29  C   UNK N   1      22.423  13.676   8.515  0.00  0.00     0.015 A 
HETATM   30  C   UNK N   1      23.167  13.121   9.556  0.00  0.00    -0.008 A 
HETATM   31  C   UNK N   1      22.760  12.477  10.700  0.00  0.00     0.030 A 
HETATM   32  C   UNK N   1      24.525  13.144   9.559  0.00  0.00     0.043 A 
HETATM   33  C   UNK N   1      23.941  12.129  11.361  0.00  0.00     0.089 A 
HETATM   34  N   UNK N   1      25.018  12.544  10.651  0.00  0.00    -0.365 N 
HETATM   35  H   UNK N   1      25.967  12.429  10.888  0.00  0.00     0.165 HD
HETATM   36  C   UNK N   1      25.248  13.717   8.530  0.00  0.00     0.047 A 
ENDBRANCH  24  27
ENDBRANCH   1  23
TORSDOF 5
ENDMDL
MODEL 7
REMARK VINA RESULT:      -7.9      4.763     12.556
REMARK  5 active torsions:
REMARK  status: ('A' for Active; 'I' for Inactive)
REMARK    1  A    between atoms: C_5  and  N_8 
REMARK       I    between atoms: N_11  and  C_14 
REMARK    2  A    between atoms: C_14  and  C_16 
REMARK    3  A    between atoms: C_16  and  C_17 
REMARK    4  A    between atoms: C_16  and  N_23 
REMARK       I    between atoms: N_23  and  C_24 
REMARK    5  A    between atoms: C_24  and  C_26 
ROOT
HETATM    1  C   UNK N   1      35.676  12.567  15.261  0.00  0.00     0.210 C 
ENDROOT
BRANCH   1   2
HETATM    2  C   UNK N   1      36.622  12.306  14.103  0.00  0.00     0.247 C 
HETATM    3  N   UNK N   1      36.245  12.505  12.815  0.00  0.00    -0.347 N 
HETATM    4  C   UNK N   1      34.924  12.976  12.492  0.00  0.00     0.156 C 
HETATM    5  C   UNK N   1      37.182  12.285  11.736  0.00  0.00     0.156 C 
HETATM    6  C   UNK N   1      35.044  14.320  11.788  0.00  0.00     0.292 C 
HETATM    7  N   UNK N   1      36.319  14.509  11.055  0.00  0.00     0.096 N 
HETATM    8  C   UNK N   1      36.907  13.245  10.582  0.00  0.00     0.292 C 
HETATM    9  O   UNK N   1      37.750  11.882  14.337  0.00  0.00    -0.271 OA
BRANCH   7  10
HETATM   10  C   UNK N   1      36.060  15.359   9.885  0.00  0.00     0.226 C 
HETATM   11  C   UNK N   1      35.161  16.545  10.282  0.00  0.00     0.066 C 
HETATM   12  C   UNK N   1      34.653  17.285   9.048  0.00  0.00     0.274 C 
HETATM   13  N   UNK N   1      33.958  16.349   8.171  0.00  0.00     0.084 N 
HETATM   14  C   UNK N   1      33.403  17.104   7.065  0.00  0.00     0.309 C 
HETATM   15  C   UNK N   1      34.948  15.436   7.619  0.00  0.00     0.274 C 
HETATM   16  C   UNK N   1      35.453  14.533   8.728  0.00  0.00     0.066 C 
ENDBRANCH   7  10
ENDBRANCH   1   2
BRANCH   1  17
HETATM   17  C   UNK N   1      36.067  13.772  16.082  0.00  0.00    -0.026 A 
HETATM   18  C   UNK N   1      35.501  13.945  17.352  0.00  0.00     0.010 A 
HETATM   19  C   UNK N   1      35.851  15.047  18.137  0.00  0.00     0.001 A 
HETATM   20  C   UNK N   1      36.787  15.971  17.666  0.00  0.00     0.000 A 
HETATM   21  C   UNK N   1      37.363  15.800  16.402  0.00  0.00     0.001 A 
HETATM   22  C   UNK N   1      37.000  14.707  15.608  0.00  0.00     0.010 A 
ENDBRANCH   1  17
BRANCH   1  23
HETATM   23  N   UNK N   1      35.607  11.356  16.041  0.00  0.00    -0.340 N 
HETATM   24  C   UNK N   1      34.742  10.324  15.927  0.00  0.00     0.252 C 
HETATM   25  O   UNK N   1      33.797  10.371  15.151  0.00  0.00    -0.268 OA
HETATM   26  H   UNK N   1      36.282  11.267  16.752  0.00  0.00     0.164 HD
BRANCH  24  27
HETATM   27  C   UNK N   1      34.994   9.133  16.755  0.00  0.00     0.034 A 
HETATM   28  C   UNK N   1      35.669   7.996  16.248  0.00  0.00     0.018 A 
HETATM   29  C   UNK N   1      35.935   6.897  17.093  0.00  0.00     0.015 A 
HETATM   30  C   UNK N   1      35.527   6.983  18.424  0.00  0.00    -0.008 A 
HETATM   31  C   UNK N   1      35.671   6.093  19.461  0.00  0.00     0.030 A 
HETATM   32  C   UNK N   1      34.880   8.075  18.907  0.00  0.00     0.043 A 
HETATM   33  C   UNK N   1      35.081   6.720  20.563  0.00  0.00     0.089 A 
HETATM   34  N   UNK N   1      34.598   7.937  20.209  0.00  0.00    -0.365 N 
HETATM   35  H   UNK N   1      34.137   8.585  20.790  0.00  0.00     0.165 HD
HETATM   36  C   UNK N   1      34.591   9.166  18.108  0.00  0.00     0.047 A 
ENDBRANCH  24  27
ENDBRANCH   1  23
TORSDOF 5
ENDMDL
MODEL 8
REMARK VINA RESULT:      -7.8      5.166     10.337
REMARK  5 active torsions:
REMARK  status: ('A' for Active; 'I' for Inactive)
REMARK    1  A    between atoms: C_5  and  N_8 
REMARK       I    between atoms: N_11  and  C_14 
REMARK    2  A    between atoms: C_14  and  C_16 
REMARK    3  A    between atoms: C_16  and  C_17 
REMARK    4  A    between atoms: C_16  and  N_23 
REMARK       I    between atoms: N_23  and  C_24 
REMARK    5  A    between atoms: C_24  and  C_26 
ROOT
HETATM    1  C   UNK N   1      36.365  13.046  14.664  0.00  0.00     0.210 C 
ENDROOT
BRANCH   1   2
HETATM    2  C   UNK N   1      35.262  12.020  14.848  0.00  0.00     0.247 C 
HETATM    3  N   UNK N   1      35.461  10.875  15.550  0.00  0.00    -0.347 N 
HETATM    4  C   UNK N   1      36.736  10.587  16.154  0.00  0.00     0.156 C 
HETATM    5  C   UNK N   1      34.379   9.936  15.741  0.00  0.00     0.156 C 
HETATM    6  C   UNK N   1      36.551  10.493  17.661  0.00  0.00     0.292 C 
HETATM    7  N   UNK N   1      35.192  10.075  18.081  0.00  0.00     0.096 N 
HETATM    8  C   UNK N   1      34.514   9.228  17.086  0.00  0.00     0.292 C 
HETATM    9  O   UNK N   1      34.167  12.220  14.329  0.00  0.00    -0.271 OA
BRANCH   7  10
HETATM   10  C   UNK N   1      35.306   9.311  19.331  0.00  0.00     0.226 C 
HETATM   11  C   UNK N   1      33.924   9.185  20.000  0.00  0.00     0.066 C 
HETATM   12  C   UNK N   1      34.051   8.641  21.420  0.00  0.00     0.274 C 
HETATM   13  N   UNK N   1      34.948   9.496  22.189  0.00  0.00     0.084 N 
HETATM   14  C   UNK N   1      34.963   9.010  23.555  0.00  0.00     0.309 C 
HETATM   15  C   UNK N   1      36.292   9.327  21.655  0.00  0.00     0.274 C 
HETATM   16  C   UNK N   1      36.350   9.949  20.273  0.00  0.00     0.066 C 
ENDBRANCH   7  10
ENDBRANCH   1   2
BRANCH   1  17
HETATM   17  C   UNK N   1      36.430  14.050  15.788  0.00  0.00    -0.026 A 
HETATM   18  C   UNK N   1      35.631  13.855  16.923  0.00  0.00     0.010 A 
HETATM   19  C   UNK N   1      35.677  14.764  17.984  0.00  0.00     0.001 A 
HETATM   20  C   UNK N   1      36.538  15.863  17.925  0.00  0.00     0.000 A 
HETATM   21  C   UNK N   1      37.344  16.059  16.799  0.00  0.00     0.001 A 
HETATM   22  C   UNK N   1      37.287  15.159  15.729  0.00  0.00     0.010 A 
ENDBRANCH   1  17
BRANCH   1  23
HETATM   23  N   UNK N   1      36.170  13.659  13.373  0.00  0.00    -0.340 N 
HETATM   24  C   UNK N   1      36.716  13.320  12.184  0.00  0.00     0.252 C 
HETATM   25  O   UNK N   1      37.573  12.451  12.104  0.00  0.00    -0.268 OA
HETATM   26  H   UNK N   1      35.556  14.428  13.355  0.00  0.00     0.164 HD
BRANCH  24  27
HETATM   27  C   UNK N   1      36.222  14.022  10.988  0.00  0.00     0.034 A 
HETATM   28  C   UNK N   1      36.205  13.409   9.711  0.00  0.00     0.018 A 
HETATM   29  C   UNK N   1      35.674  14.100   8.602  0.00  0.00     0.015 A 
HETATM   30  C   UNK N   1      35.163  15.381   8.814  0.00  0.00    -0.008 A 
HETATM   31  C   UNK N   1      34.574  16.263   7.940  0.00  0.00     0.030 A 
HETATM   32  C   UNK N   1      35.182  15.966  10.039  0.00  0.00     0.043 A 
HETATM   33  C   UNK N   1      34.251  17.381   8.715  0.00  0.00     0.089 A 
HETATM   34  N   UNK N   1      34.630  17.186  10.002  0.00  0.00    -0.365 N 
HETATM   35  H   UNK N   1      34.521  17.813  10.755  0.00  0.00     0.165 HD
HETATM   36  C   UNK N   1      35.704  15.326  11.147  0.00  0.00     0.047 A 
ENDBRANCH  24  27
ENDBRANCH   1  23
TORSDOF 5
ENDMDL
MODEL 9
REMARK VINA RESULT:      -7.7      3.480      5.174
REMARK  5 active torsions:
REMARK  status: ('A' for Active; 'I' for Inactive)
REMARK    1  A    between atoms: C_5  and  N_8 
REMARK       I    between atoms: N_11  and  C_14 
REMARK    2  A    between atoms: C_14  and  C_16 
REMARK    3  A    between atoms: C_16  and  C_17 
REMARK    4  A    between atoms: C_16  and  N_23 
REMARK       I    between atoms: N_23  and  C_24 
REMARK    5  A    between atoms: C_24  and  C_26 
ROOT
HETATM    1  C   UNK N   1      28.555  15.834   4.296  0.00  0.00     0.210 C 
ENDROOT
BRANCH   1   2
HETATM    2  C   UNK N   1      29.816  16.493   3.768  0.00  0.00     0.247 C 
HETATM    3  N   UNK N   1      30.692  17.122   4.592  0.00  0.00    -0.347 N 
HETATM    4  C   UNK N   1      30.460  17.188   6.011  0.00  0.00     0.156 C 
HETATM    5  C   UNK N   1      31.904  17.707   4.063  0.00  0.00     0.156 C 
HETATM    6  C   UNK N   1      31.595  16.468   6.725  0.00  0.00     0.292 C 
HETATM    7  N   UNK N   1      32.875  16.462   5.977  0.00  0.00     0.096 N 
HETATM    8  C   UNK N   1      33.031  17.626   5.089  0.00  0.00     0.292 C 
HETATM    9  O   UNK N   1      30.037  16.477   2.560  0.00  0.00    -0.271 OA
BRANCH   7  10
HETATM   10  C   UNK N   1      33.979  16.475   6.946  0.00  0.00     0.226 C 
HETATM   11  C   UNK N   1      33.967  15.179   7.777  0.00  0.00     0.066 C 
HETATM   12  C   UNK N   1      34.921  15.280   8.964  0.00  0.00     0.274 C 
HETATM   13  N   UNK N   1      34.570  16.444   9.772  0.00  0.00     0.084 N 
HETATM   14  C   UNK N   1      35.428  16.449  10.940  0.00  0.00     0.309 C 
HETATM   15  C   UNK N   1      34.886  17.635   8.997  0.00  0.00     0.274 C 
HETATM   16  C   UNK N   1      33.915  17.736   7.837  0.00  0.00     0.066 C 
ENDBRANCH   7  10
ENDBRANCH   1   2
BRANCH   1  17
HETATM   17  C   UNK N   1      28.337  14.449   3.739  0.00  0.00    -0.026 A 
HETATM   18  C   UNK N   1      27.314  14.244   2.801  0.00  0.00     0.010 A 
HETATM   19  C   UNK N   1      27.095  12.974   2.261  0.00  0.00     0.001 A 
HETATM   20  C   UNK N   1      27.911  11.905   2.639  0.00  0.00     0.000 A 
HETATM   21  C   UNK N   1      28.938  12.103   3.567  0.00  0.00     0.001 A 
HETATM   22  C   UNK N   1      29.149  13.370   4.122  0.00  0.00     0.010 A 
ENDBRANCH   1  17
BRANCH   1  23
HETATM   23  N   UNK N   1      27.457  16.728   4.025  0.00  0.00    -0.340 N 
HETATM   24  C   UNK N   1      26.814  17.560   4.874  0.00  0.00     0.252 C 
HETATM   25  O   UNK N   1      27.061  17.560   6.072  0.00  0.00    -0.268 OA
HETATM   26  H   UNK N   1      27.132  16.734   3.096  0.00  0.00     0.164 HD
BRANCH  24  27
HETATM   27  C   UNK N   1      25.823  18.483   4.296  0.00  0.00     0.034 A 
HETATM   28  C   UNK N   1      26.205  19.634   3.565  0.00  0.00     0.018 A 
HETATM   29  C   UNK N   1      25.221  20.463   2.986  0.00  0.00     0.015 A 
HETATM   30  C   UNK N   1      23.884  20.100   3.147  0.00  0.00    -0.008 A 
HETATM   31  C   UNK N   1      22.735  20.693   2.681  0.00  0.00     0.030 A 
HETATM   32  C   UNK N   1      23.521  18.996   3.849  0.00  0.00     0.043 A 
HETATM   33  C   UNK N   1      21.695  19.882   3.143  0.00  0.00     0.089 A 
HETATM   34  N   UNK N   1      22.189  18.844   3.859  0.00  0.00    -0.365 N 
HETATM   35  H   UNK N   1      21.677  18.125   4.297  0.00  0.00     0.165 HD
HETATM   36  C   UNK N   1      24.454  18.166   4.441  0.00  0.00     0.047 A 
ENDBRANCH  24  27
ENDBRANCH   1  23
TORSDOF 5
ENDMDL
