MODEL 1
REMARK VINA RESULT:      -6.9      0.000      0.000
REMARK  5 active torsions:
REMARK  status: ('A' for Active; 'I' for Inactive)
REMARK    1  A    between atoms: S_2  and  N_10 
REMARK    2  A    between atoms: S_2  and  C_14 
REMARK    3  A    between atoms: O_4  and  C_25 
REMARK    4  A    between atoms: N_7  and  C_12 
REMARK    5  A    between atoms: C_11  and  C_13 
ROOT
HETATM    1 Cl   UNK N   1      29.346  18.362   9.104  0.00  0.00    -0.062 Cl
HETATM    2  N   UNK N   1      30.699  16.586   5.869  0.00  0.00    -0.304 N 
HETATM    3  N   UNK N   1      28.760  17.409   6.610  0.00  0.00    -0.341 N 
ATOM      4  HN  UNK N   1      27.777  17.677   6.653  1.00  0.00     0.167 HD
HETATM    5  C   UNK N   1      30.902  17.087   7.120  0.00  0.00     0.089 A 
HETATM    6  C   UNK N   1      29.391  16.777   5.597  0.00  0.00     0.190 A 
HETATM    7  C   UNK N   1      29.700  17.613   7.554  0.00  0.00     0.132 A 
ENDROOT
BRANCH   2   8
HETATM    8  C   UNK N   1      31.649  16.023   4.936  0.00  0.00     0.040 A 
HETATM    9  C   UNK N   1      31.997  14.669   5.015  0.00  0.00     0.031 A 
HETATM   10  C   UNK N   1      32.873  14.096   4.104  0.00  0.00     0.027 A 
HETATM   11  C   UNK N   1      33.436  14.874   3.101  0.00  0.00     0.079 A 
HETATM   12  C   UNK N   1      33.153  16.246   3.036  0.00  0.00     0.027 A 
HETATM   13  C   UNK N   1      32.273  16.825   3.964  0.00  0.00     0.031 A 
BRANCH  11  14
HETATM   14  S   UNK N   1      34.482  14.082   1.889  0.00  0.00     0.256 S 
HETATM   15  O   UNK N   1      35.098  15.105   0.923  0.00  0.00    -0.201 OA
HETATM   16  O   UNK N   1      33.718  13.155   0.933  0.00  0.00    -0.201 OA
BRANCH  14  17
HETATM   17  N   UNK N   1      35.859  13.145   2.468  0.00  0.00    -0.324 N 
HETATM   18  H   UNK N   1      36.848  13.297   2.664  0.00  0.00     0.169 HD
HETATM   19  H   UNK N   1      35.591  12.180   2.661  0.00  0.00     0.169 HD
ENDBRANCH  14  17
ENDBRANCH  11  14
ENDBRANCH   2   8
BRANCH   5  20
HETATM   20  C   UNK N   1      32.169  17.008   7.914  0.00  0.00    -0.003 A 
HETATM   21  C   UNK N   1      33.142  18.008   7.786  0.00  0.00     0.059 A 
HETATM   22  C   UNK N   1      34.332  17.969   8.501  0.00  0.00     0.150 A 
HETATM   23  F   UNK N   1      35.227  18.978   8.363  0.00  0.00    -0.203 F 
HETATM   24  C   UNK N   1      34.592  16.902   9.362  0.00  0.00     0.106 A 
HETATM   25  C   UNK N   1      33.645  15.865   9.475  0.00  0.00     0.041 A 
HETATM   26  C   UNK N   1      32.449  15.914   8.745  0.00  0.00     0.017 A 
BRANCH  24  27
HETATM   27  O   UNK N   1      35.749  16.894  10.067  0.00  0.00    -0.353 OA
HETATM   28  C   UNK N   1      36.050  15.944  11.014  0.00  0.00     0.210 C 
ENDBRANCH  24  27
ENDBRANCH   5  20
TORSDOF 5
ENDMDL
MODEL 2
REMARK VINA RESULT:      -6.7      3.241      6.101
REMARK  5 active torsions:
REMARK  status: ('A' for Active; 'I' for Inactive)
REMARK    1  A    between atoms: S_2  and  N_10 
REMARK    2  A    between atoms: S_2  and  C_14 
REMARK    3  A    between atoms: O_4  and  C_25 
REMARK    4  A    between atoms: N_7  and  C_12 
REMARK    5  A    between atoms: C_11  and  C_13 
ROOT
HETATM    1 Cl   UNK N   1      28.154  17.757   4.368  0.00  0.00    -0.062 Cl
HETATM    2  N   UNK N   1      30.676  17.390   7.360  0.00  0.00    -0.304 N 
HETATM    3  N   UNK N   1      28.646  18.252   7.010  0.00  0.00    -0.341 N 
ATOM      4  HN  UNK N   1      27.753  18.719   7.170  1.00  0.00     0.167 HD
HETATM    5  C   UNK N   1      30.349  17.186   6.053  0.00  0.00     0.089 A 
HETATM    6  C   UNK N   1      29.637  18.055   7.907  0.00  0.00     0.190 A 
HETATM    7  C   UNK N   1      29.081  17.703   5.859  0.00  0.00     0.132 A 
ENDROOT
BRANCH   2   8
HETATM    8  C   UNK N   1      31.838  16.951   8.098  0.00  0.00     0.040 A 
HETATM    9  C   UNK N   1      31.850  15.693   8.714  0.00  0.00     0.031 A 
HETATM   10  C   UNK N   1      32.969  15.232   9.391  0.00  0.00     0.027 A 
HETATM   11  C   UNK N   1      34.101  16.032   9.483  0.00  0.00     0.079 A 
HETATM   12  C   UNK N   1      34.095  17.320   8.930  0.00  0.00     0.027 A 
HETATM   13  C   UNK N   1      32.958  17.787   8.252  0.00  0.00     0.031 A 
BRANCH  11  14
HETATM   14  S   UNK N   1      35.555  15.367  10.278  0.00  0.00     0.256 S 
HETATM   15  O   UNK N   1      36.506  16.484  10.738  0.00  0.00    -0.201 OA
HETATM   16  O   UNK N   1      36.450  14.550   9.335  0.00  0.00    -0.201 OA
BRANCH  14  17
HETATM   17  N   UNK N   1      35.333  14.367  11.713  0.00  0.00    -0.324 N 
HETATM   18  H   UNK N   1      34.887  14.445  12.627  0.00  0.00     0.169 HD
HETATM   19  H   UNK N   1      35.773  13.454  11.596  0.00  0.00     0.169 HD
ENDBRANCH  14  17
ENDBRANCH  11  14
ENDBRANCH   2   8
BRANCH   5  20
HETATM   20  C   UNK N   1      31.229  16.587   5.000  0.00  0.00    -0.003 A 
HETATM   21  C   UNK N   1      31.131  15.224   4.693  0.00  0.00     0.059 A 
HETATM   22  C   UNK N   1      31.933  14.631   3.727  0.00  0.00     0.150 A 
HETATM   23  F   UNK N   1      31.777  13.313   3.447  0.00  0.00    -0.203 F 
HETATM   24  C   UNK N   1      32.881  15.395   3.043  0.00  0.00     0.106 A 
HETATM   25  C   UNK N   1      33.023  16.759   3.365  0.00  0.00     0.041 A 
HETATM   26  C   UNK N   1      32.210  17.345   4.345  0.00  0.00     0.017 A 
BRANCH  24  27
HETATM   27  O   UNK N   1      33.637  14.802   2.089  0.00  0.00    -0.353 OA
HETATM   28  C   UNK N   1      34.783  14.095   2.364  0.00  0.00     0.210 C 
ENDBRANCH  24  27
ENDBRANCH   5  20
TORSDOF 5
ENDMDL
MODEL 3
REMARK VINA RESULT:      -6.7     13.701     15.984
REMARK  5 active torsions:
REMARK  status: ('A' for Active; 'I' for Inactive)
REMARK    1  A    between atoms: S_2  and  N_10 
REMARK    2  A    between atoms: S_2  and  C_14 
REMARK    3  A    between atoms: O_4  and  C_25 
REMARK    4  A    between atoms: N_7  and  C_12 
REMARK    5  A    between atoms: C_11  and  C_13 
ROOT
HETATM    1 Cl   UNK N   1      24.077  27.501  -5.642  0.00  0.00    -0.062 Cl
HETATM    2  N   UNK N   1      27.473  26.000  -4.352  0.00  0.00    -0.304 N 
HETATM    3  N   UNK N   1      26.240  27.830  -4.005  0.00  0.00    -0.341 N 
ATOM      4  HN  UNK N   1      25.928  28.731  -3.642  1.00  0.00     0.167 HD
HETATM    5  C   UNK N   1      26.362  25.919  -5.138  0.00  0.00     0.089 A 
HETATM    6  C   UNK N   1      27.381  27.176  -3.695  0.00  0.00     0.190 A 
HETATM    7  C   UNK N   1      25.599  27.045  -4.893  0.00  0.00     0.132 A 
ENDROOT
BRANCH   2   8
HETATM    8  C   UNK N   1      28.533  25.039  -4.152  0.00  0.00     0.040 A 
HETATM    9  C   UNK N   1      28.368  23.986  -3.244  0.00  0.00     0.031 A 
HETATM   10  C   UNK N   1      29.353  23.026  -3.067  0.00  0.00     0.027 A 
HETATM   11  C   UNK N   1      30.540  23.110  -3.784  0.00  0.00     0.079 A 
HETATM   12  C   UNK N   1      30.757  24.188  -4.654  0.00  0.00     0.027 A 
HETATM   13  C   UNK N   1      29.761  25.163  -4.826  0.00  0.00     0.031 A 
BRANCH  11  14
HETATM   14  S   UNK N   1      31.744  21.804  -3.602  0.00  0.00     0.256 S 
HETATM   15  O   UNK N   1      32.239  21.694  -2.152  0.00  0.00    -0.201 OA
HETATM   16  O   UNK N   1      33.048  22.063  -4.370  0.00  0.00    -0.201 OA
BRANCH  14  17
HETATM   17  N   UNK N   1      31.258  20.162  -4.023  0.00  0.00    -0.324 N 
HETATM   18  H   UNK N   1      31.668  19.345  -4.475  0.00  0.00     0.169 HD
HETATM   19  H   UNK N   1      30.298  19.978  -3.732  0.00  0.00     0.169 HD
ENDBRANCH  14  17
ENDBRANCH  11  14
ENDBRANCH   2   8
BRANCH   5  20
HETATM   20  C   UNK N   1      26.061  24.850  -6.143  0.00  0.00    -0.003 A 
HETATM   21  C   UNK N   1      25.878  25.184  -7.490  0.00  0.00     0.059 A 
HETATM   22  C   UNK N   1      25.593  24.222  -8.451  0.00  0.00     0.150 A 
HETATM   23  F   UNK N   1      25.454  24.594  -9.748  0.00  0.00    -0.203 F 
HETATM   24  C   UNK N   1      25.464  22.883  -8.080  0.00  0.00     0.106 A 
HETATM   25  C   UNK N   1      25.604  22.532  -6.723  0.00  0.00     0.041 A 
HETATM   26  C   UNK N   1      25.889  23.512  -5.762  0.00  0.00     0.017 A 
BRANCH  24  27
HETATM   27  O   UNK N   1      25.207  21.958  -9.036  0.00  0.00    -0.353 OA
HETATM   28  C   UNK N   1      26.183  21.194  -9.629  0.00  0.00     0.210 C 
ENDBRANCH  24  27
ENDBRANCH   5  20
TORSDOF 5
ENDMDL
MODEL 4
REMARK VINA RESULT:      -6.5      7.632     10.259
REMARK  5 active torsions:
REMARK  status: ('A' for Active; 'I' for Inactive)
REMARK    1  A    between atoms: S_2  and  N_10 
REMARK    2  A    between atoms: S_2  and  C_14 
REMARK    3  A    between atoms: O_4  and  C_25 
REMARK    4  A    between atoms: N_7  and  C_12 
REMARK    5  A    between atoms: C_11  and  C_13 
ROOT
HETATM    1 Cl   UNK N   1      29.693  17.167   6.124  0.00  0.00    -0.062 Cl
HETATM    2  N   UNK N   1      26.336  19.000   5.216  0.00  0.00    -0.304 N 
HETATM    3  N   UNK N   1      28.133  19.382   6.486  0.00  0.00    -0.341 N 
ATOM      4  HN  UNK N   1      28.784  19.832   7.129  1.00  0.00     0.167 HD
HETATM    5  C   UNK N   1      27.176  17.933   5.094  0.00  0.00     0.089 A 
HETATM    6  C   UNK N   1      26.932  19.848   6.079  0.00  0.00     0.190 A 
HETATM    7  C   UNK N   1      28.292  18.196   5.866  0.00  0.00     0.132 A 
ENDROOT
BRANCH   2   8
HETATM    8  C   UNK N   1      25.090  19.273   4.539  0.00  0.00     0.040 A 
HETATM    9  C   UNK N   1      23.946  18.521   4.834  0.00  0.00     0.031 A 
HETATM   10  C   UNK N   1      22.728  18.793   4.229  0.00  0.00     0.027 A 
HETATM   11  C   UNK N   1      22.631  19.818   3.296  0.00  0.00     0.079 A 
HETATM   12  C   UNK N   1      23.773  20.547   2.935  0.00  0.00     0.027 A 
HETATM   13  C   UNK N   1      25.007  20.264   3.544  0.00  0.00     0.031 A 
BRANCH  11  14
HETATM   14  S   UNK N   1      21.028  20.203   2.611  0.00  0.00     0.256 S 
HETATM   15  O   UNK N   1      21.118  21.318   1.558  0.00  0.00    -0.201 OA
HETATM   16  O   UNK N   1      20.052  20.803   3.634  0.00  0.00    -0.201 OA
BRANCH  14  17
HETATM   17  N   UNK N   1      20.140  18.912   1.802  0.00  0.00    -0.324 N 
HETATM   18  H   UNK N   1      19.314  18.818   1.211  0.00  0.00     0.169 HD
HETATM   19  H   UNK N   1      20.573  18.005   1.974  0.00  0.00     0.169 HD
ENDBRANCH  14  17
ENDBRANCH  11  14
ENDBRANCH   2   8
BRANCH   5  20
HETATM   20  C   UNK N   1      26.906  16.672   4.332  0.00  0.00    -0.003 A 
HETATM   21  C   UNK N   1      26.590  16.729   2.969  0.00  0.00     0.059 A 
HETATM   22  C   UNK N   1      26.329  15.583   2.229  0.00  0.00     0.150 A 
HETATM   23  F   UNK N   1      26.058  15.691   0.904  0.00  0.00    -0.203 F 
HETATM   24  C   UNK N   1      26.359  14.332   2.848  0.00  0.00     0.106 A 
HETATM   25  C   UNK N   1      26.635  14.257   4.227  0.00  0.00     0.041 A 
HETATM   26  C   UNK N   1      26.893  15.421   4.964  0.00  0.00     0.017 A 
BRANCH  24  27
HETATM   27  O   UNK N   1      26.123  13.225   2.103  0.00  0.00    -0.353 OA
HETATM   28  C   UNK N   1      24.918  12.565   2.094  0.00  0.00     0.210 C 
ENDBRANCH  24  27
ENDBRANCH   5  20
TORSDOF 5
ENDMDL
MODEL 5
REMARK VINA RESULT:      -6.3      3.084      5.345
REMARK  5 active torsions:
REMARK  status: ('A' for Active; 'I' for Inactive)
REMARK    1  A    between atoms: S_2  and  N_10 
REMARK    2  A    between atoms: S_2  and  C_14 
REMARK    3  A    between atoms: O_4  and  C_25 
REMARK    4  A    between atoms: N_7  and  C_12 
REMARK    5  A    between atoms: C_11  and  C_13 
ROOT
HETATM    1 Cl   UNK N   1      28.366  18.377   9.109  0.00  0.00    -0.062 Cl
HETATM    2  N   UNK N   1      31.404  17.070   6.985  0.00  0.00    -0.304 N 
HETATM    3  N   UNK N   1      31.058  17.918   9.023  0.00  0.00    -0.341 N 
ATOM      4  HN  UNK N   1      31.227  18.261   9.968  1.00  0.00     0.167 HD
HETATM    5  C   UNK N   1      30.073  17.332   7.115  0.00  0.00     0.089 A 
HETATM    6  C   UNK N   1      31.976  17.454   8.146  0.00  0.00     0.190 A 
HETATM    7  C   UNK N   1      29.873  17.832   8.388  0.00  0.00     0.132 A 
ENDROOT
BRANCH   2   8
HETATM    8  C   UNK N   1      32.118  16.444   5.897  0.00  0.00     0.040 A 
HETATM    9  C   UNK N   1      32.543  15.114   6.003  0.00  0.00     0.031 A 
HETATM   10  C   UNK N   1      33.191  14.478   4.955  0.00  0.00     0.027 A 
HETATM   11  C   UNK N   1      33.447  15.168   3.777  0.00  0.00     0.079 A 
HETATM   12  C   UNK N   1      33.088  16.519   3.666  0.00  0.00     0.027 A 
HETATM   13  C   UNK N   1      32.439  17.163   4.731  0.00  0.00     0.031 A 
BRANCH  11  14
HETATM   14  S   UNK N   1      34.196  14.290   2.415  0.00  0.00     0.256 S 
HETATM   15  O   UNK N   1      34.706  15.255   1.335  0.00  0.00    -0.201 OA
HETATM   16  O   UNK N   1      33.205  13.419   1.629  0.00  0.00    -0.201 OA
BRANCH  14  17
HETATM   17  N   UNK N   1      35.578  13.250   2.759  0.00  0.00    -0.324 N 
HETATM   18  H   UNK N   1      36.094  12.924   3.575  0.00  0.00     0.169 HD
HETATM   19  H   UNK N   1      35.972  12.868   1.899  0.00  0.00     0.169 HD
ENDBRANCH  14  17
ENDBRANCH  11  14
ENDBRANCH   2   8
BRANCH   5  20
HETATM   20  C   UNK N   1      29.030  17.184   6.051  0.00  0.00    -0.003 A 
HETATM   21  C   UNK N   1      28.653  18.290   5.279  0.00  0.00     0.059 A 
HETATM   22  C   UNK N   1      27.687  18.194   4.286  0.00  0.00     0.150 A 
HETATM   23  F   UNK N   1      27.379  19.289   3.546  0.00  0.00    -0.203 F 
HETATM   24  C   UNK N   1      27.050  16.975   4.047  0.00  0.00     0.106 A 
HETATM   25  C   UNK N   1      27.386  15.860   4.840  0.00  0.00     0.041 A 
HETATM   26  C   UNK N   1      28.361  15.970   5.842  0.00  0.00     0.017 A 
BRANCH  24  27
HETATM   27  O   UNK N   1      26.127  16.898   3.059  0.00  0.00    -0.353 OA
HETATM   28  C   UNK N   1      25.991  15.807   2.235  0.00  0.00     0.210 C 
ENDBRANCH  24  27
ENDBRANCH   5  20
TORSDOF 5
ENDMDL
MODEL 6
REMARK VINA RESULT:      -6.3      6.121      8.845
REMARK  5 active torsions:
REMARK  status: ('A' for Active; 'I' for Inactive)
REMARK    1  A    between atoms: S_2  and  N_10 
REMARK    2  A    between atoms: S_2  and  C_14 
REMARK    3  A    between atoms: O_4  and  C_25 
REMARK    4  A    between atoms: N_7  and  C_12 
REMARK    5  A    between atoms: C_11  and  C_13 
ROOT
HETATM    1 Cl   UNK N   1      37.023   8.539  13.608  0.00  0.00    -0.062 Cl
HETATM    2  N   UNK N   1      36.360  11.514  11.125  0.00  0.00    -0.304 N 
HETATM    3  N   UNK N   1      37.190   9.443  11.034  0.00  0.00    -0.341 N 
ATOM      4  HN  UNK N   1      37.603   8.582  10.675  1.00  0.00     0.167 HD
HETATM    5  C   UNK N   1      36.314  10.983  12.380  0.00  0.00     0.089 A 
HETATM    6  C   UNK N   1      36.913  10.568  10.338  0.00  0.00     0.190 A 
HETATM    7  C   UNK N   1      36.809   9.695  12.301  0.00  0.00     0.132 A 
ENDROOT
BRANCH   2   8
HETATM    8  C   UNK N   1      35.869  12.785  10.645  0.00  0.00     0.040 A 
HETATM    9  C   UNK N   1      36.677  13.927  10.717  0.00  0.00     0.031 A 
HETATM   10  C   UNK N   1      36.245  15.148  10.222  0.00  0.00     0.027 A 
HETATM   11  C   UNK N   1      34.981  15.259   9.657  0.00  0.00     0.079 A 
HETATM   12  C   UNK N   1      34.128  14.147   9.628  0.00  0.00     0.027 A 
HETATM   13  C   UNK N   1      34.564  12.914  10.136  0.00  0.00     0.031 A 
BRANCH  11  14
HETATM   14  S   UNK N   1      34.497  16.823   8.944  0.00  0.00     0.256 S 
HETATM   15  O   UNK N   1      34.828  16.884   7.444  0.00  0.00    -0.201 OA
HETATM   16  O   UNK N   1      35.285  18.019   9.497  0.00  0.00    -0.201 OA
BRANCH  14  17
HETATM   17  N   UNK N   1      32.798  17.286   9.034  0.00  0.00    -0.324 N 
HETATM   18  H   UNK N   1      32.037  17.240   9.712  0.00  0.00     0.169 HD
HETATM   19  H   UNK N   1      32.490  17.722   8.165  0.00  0.00     0.169 HD
ENDBRANCH  14  17
ENDBRANCH  11  14
ENDBRANCH   2   8
BRANCH   5  20
HETATM   20  C   UNK N   1      35.887  11.690  13.629  0.00  0.00    -0.003 A 
HETATM   21  C   UNK N   1      36.718  12.656  14.209  0.00  0.00     0.059 A 
HETATM   22  C   UNK N   1      36.360  13.330  15.370  0.00  0.00     0.150 A 
HETATM   23  F   UNK N   1      37.188  14.278  15.874  0.00  0.00    -0.203 F 
HETATM   24  C   UNK N   1      35.149  13.038  15.999  0.00  0.00     0.106 A 
HETATM   25  C   UNK N   1      34.316  12.040  15.454  0.00  0.00     0.041 A 
HETATM   26  C   UNK N   1      34.691  11.365  14.284  0.00  0.00     0.017 A 
BRANCH  24  27
HETATM   27  O   UNK N   1      34.808  13.722  17.118  0.00  0.00    -0.353 OA
HETATM   28  C   UNK N   1      35.134  13.306  18.386  0.00  0.00     0.210 C 
ENDBRANCH  24  27
ENDBRANCH   5  20
TORSDOF 5
ENDMDL
MODEL 7
REMARK VINA RESULT:      -6.3     13.205     15.426
REMARK  5 active torsions:
REMARK  status: ('A' for Active; 'I' for Inactive)
REMARK    1  A    between atoms: S_2  and  N_10 
REMARK    2  A    between atoms: S_2  and  C_14 
REMARK    3  A    between atoms: O_4  and  C_25 
REMARK    4  A    between atoms: N_7  and  C_12 
REMARK    5  A    between atoms: C_11  and  C_13 
ROOT
HETATM    1 Cl   UNK N   1      26.823  29.205  -4.570  0.00  0.00    -0.062 Cl
HETATM    2  N   UNK N   1      29.691  26.600  -3.905  0.00  0.00    -0.304 N 
HETATM    3  N   UNK N   1      29.309  28.767  -3.522  0.00  0.00    -0.341 N 
ATOM      4  HN  UNK N   1      29.435  29.731  -3.214  1.00  0.00     0.167 HD
HETATM    5  C   UNK N   1      28.460  26.908  -4.402  0.00  0.00     0.089 A 
HETATM    6  C   UNK N   1      30.188  27.748  -3.399  0.00  0.00     0.190 A 
HETATM    7  C   UNK N   1      28.229  28.244  -4.135  0.00  0.00     0.132 A 
ENDROOT
BRANCH   2   8
HETATM    8  C   UNK N   1      30.361  25.322  -3.831  0.00  0.00     0.040 A 
HETATM    9  C   UNK N   1      31.491  25.071  -4.619  0.00  0.00     0.031 A 
HETATM   10  C   UNK N   1      32.177  23.869  -4.533  0.00  0.00     0.027 A 
HETATM   11  C   UNK N   1      31.735  22.879  -3.664  0.00  0.00     0.079 A 
HETATM   12  C   UNK N   1      30.571  23.080  -2.908  0.00  0.00     0.027 A 
HETATM   13  C   UNK N   1      29.874  24.295  -3.004  0.00  0.00     0.031 A 
BRANCH  11  14
HETATM   14  S   UNK N   1      32.698  21.384  -3.509  0.00  0.00     0.256 S 
HETATM   15  O   UNK N   1      33.088  21.115  -2.047  0.00  0.00    -0.201 OA
HETATM   16  O   UNK N   1      34.068  21.463  -4.199  0.00  0.00    -0.201 OA
BRANCH  14  17
HETATM   17  N   UNK N   1      31.975  19.870  -4.052  0.00  0.00    -0.324 N 
HETATM   18  H   UNK N   1      31.408  19.120  -3.659  0.00  0.00     0.169 HD
HETATM   19  H   UNK N   1      32.182  19.697  -5.036  0.00  0.00     0.169 HD
ENDBRANCH  14  17
ENDBRANCH  11  14
ENDBRANCH   2   8
BRANCH   5  20
HETATM   20  C   UNK N   1      27.557  25.992  -5.169  0.00  0.00    -0.003 A 
HETATM   21  C   UNK N   1      27.522  26.048  -6.568  0.00  0.00     0.059 A 
HETATM   22  C   UNK N   1      26.695  25.219  -7.314  0.00  0.00     0.150 A 
HETATM   23  F   UNK N   1      26.721  25.293  -8.668  0.00  0.00    -0.203 F 
HETATM   24  C   UNK N   1      25.854  24.310  -6.670  0.00  0.00     0.106 A 
HETATM   25  C   UNK N   1      25.844  24.266  -5.262  0.00  0.00     0.041 A 
HETATM   26  C   UNK N   1      26.681  25.110  -4.519  0.00  0.00     0.017 A 
BRANCH  24  27
HETATM   27  O   UNK N   1      25.071  23.496  -7.417  0.00  0.00    -0.353 OA
HETATM   28  C   UNK N   1      25.458  22.241  -7.824  0.00  0.00     0.210 C 
ENDBRANCH  24  27
ENDBRANCH   5  20
TORSDOF 5
ENDMDL
MODEL 8
REMARK VINA RESULT:      -6.2      5.715      8.413
REMARK  5 active torsions:
REMARK  status: ('A' for Active; 'I' for Inactive)
REMARK    1  A    between atoms: S_2  and  N_10 
REMARK    2  A    between atoms: S_2  and  C_14 
REMARK    3  A    between atoms: O_4  and  C_25 
REMARK    4  A    between atoms: N_7  and  C_12 
REMARK    5  A    between atoms: C_11  and  C_13 
ROOT
HETATM    1 Cl   UNK N   1      38.097  10.879  14.248  0.00  0.00    -0.062 Cl
HETATM    2  N   UNK N   1      35.987  13.758  12.603  0.00  0.00    -0.304 N 
HETATM    3  N   UNK N   1      36.327  12.923  14.646  0.00  0.00    -0.341 N 
ATOM      4  HN  UNK N   1      36.268  12.781  15.655  1.00  0.00     0.167 HD
HETATM    5  C   UNK N   1      36.866  12.723  12.496  0.00  0.00     0.089 A 
HETATM    6  C   UNK N   1      35.663  13.842  13.911  0.00  0.00     0.190 A 
HETATM    7  C   UNK N   1      37.084  12.233  13.771  0.00  0.00     0.132 A 
ENDROOT
BRANCH   2   8
HETATM    8  C   UNK N   1      35.511  14.671  11.589  0.00  0.00     0.040 A 
HETATM    9  C   UNK N   1      35.881  16.021  11.625  0.00  0.00     0.031 A 
HETATM   10  C   UNK N   1      35.473  16.907  10.639  0.00  0.00     0.027 A 
HETATM   11  C   UNK N   1      34.666  16.463   9.600  0.00  0.00     0.079 A 
HETATM   12  C   UNK N   1      34.229  15.131   9.572  0.00  0.00     0.027 A 
HETATM   13  C   UNK N   1      34.637  14.238  10.576  0.00  0.00     0.031 A 
BRANCH  11  14
HETATM   14  S   UNK N   1      34.240  17.609   8.298  0.00  0.00     0.256 S 
HETATM   15  O   UNK N   1      34.650  17.071   6.918  0.00  0.00    -0.201 OA
HETATM   16  O   UNK N   1      35.014  18.933   8.370  0.00  0.00    -0.201 OA
BRANCH  14  17
HETATM   17  N   UNK N   1      32.545  18.054   8.106  0.00  0.00    -0.324 N 
HETATM   18  H   UNK N   1      31.935  18.832   8.355  0.00  0.00     0.169 HD
HETATM   19  H   UNK N   1      32.030  17.330   7.604  0.00  0.00     0.169 HD
ENDBRANCH  14  17
ENDBRANCH  11  14
ENDBRANCH   2   8
BRANCH   5  20
HETATM   20  C   UNK N   1      37.430  12.162  11.227  0.00  0.00    -0.003 A 
HETATM   21  C   UNK N   1      38.409  12.872  10.520  0.00  0.00     0.059 A 
HETATM   22  C   UNK N   1      38.952  12.388   9.337  0.00  0.00     0.150 A 
HETATM   23  F   UNK N   1      39.920  13.100   8.707  0.00  0.00    -0.203 F 
HETATM   24  C   UNK N   1      38.511  11.172   8.813  0.00  0.00     0.106 A 
HETATM   25  C   UNK N   1      37.497  10.463   9.488  0.00  0.00     0.041 A 
HETATM   26  C   UNK N   1      36.954  10.963  10.679  0.00  0.00     0.017 A 
BRANCH  24  27
HETATM   27  O   UNK N   1      39.069  10.708   7.670  0.00  0.00    -0.353 OA
HETATM   28  C   UNK N   1      38.339  10.182   6.631  0.00  0.00     0.210 C 
ENDBRANCH  24  27
ENDBRANCH   5  20
TORSDOF 5
ENDMDL
MODEL 9
REMARK VINA RESULT:      -6.0      8.011     10.243
REMARK  5 active torsions:
REMARK  status: ('A' for Active; 'I' for Inactive)
REMARK    1  A    between atoms: S_2  and  N_10 
REMARK    2  A    between atoms: S_2  and  C_14 
REMARK    3  A    between atoms: O_4  and  C_25 
REMARK    4  A    between atoms: N_7  and  C_12 
REMARK    5  A    between atoms: C_11  and  C_13 
ROOT
HETATM    1 Cl   UNK N   1      25.225  20.843   2.323  0.00  0.00    -0.062 Cl
HETATM    2  N   UNK N   1      22.870  18.604   4.535  0.00  0.00    -0.304 N 
HETATM    3  N   UNK N   1      22.655  20.123   2.910  0.00  0.00    -0.341 N 
ATOM      4  HN  UNK N   1      22.239  20.748   2.221  1.00  0.00     0.167 HD
HETATM    5  C   UNK N   1      24.117  19.023   4.178  0.00  0.00     0.089 A 
HETATM    6  C   UNK N   1      22.007  19.302   3.766  0.00  0.00     0.190 A 
HETATM    7  C   UNK N   1      23.968  19.942   3.157  0.00  0.00     0.132 A 
ENDROOT
BRANCH   2   8
HETATM    8  C   UNK N   1      22.475  17.580   5.474  0.00  0.00     0.040 A 
HETATM    9  C   UNK N   1      21.468  17.834   6.413  0.00  0.00     0.031 A 
HETATM   10  C   UNK N   1      21.041  16.853   7.296  0.00  0.00     0.027 A 
HETATM   11  C   UNK N   1      21.629  15.594   7.270  0.00  0.00     0.079 A 
HETATM   12  C   UNK N   1      22.683  15.332   6.383  0.00  0.00     0.027 A 
HETATM   13  C   UNK N   1      23.118  16.329   5.495  0.00  0.00     0.031 A 
BRANCH  11  14
HETATM   14  S   UNK N   1      20.989  14.328   8.354  0.00  0.00     0.256 S 
HETATM   15  O   UNK N   1      20.756  13.009   7.603  0.00  0.00    -0.201 OA
HETATM   16  O   UNK N   1      19.588  14.641   8.900  0.00  0.00    -0.201 OA
BRANCH  14  17
HETATM   17  N   UNK N   1      21.957  13.868   9.754  0.00  0.00    -0.324 N 
HETATM   18  H   UNK N   1      22.771  13.286   9.952  0.00  0.00     0.169 HD
HETATM   19  H   UNK N   1      21.602  14.305  10.605  0.00  0.00     0.169 HD
ENDBRANCH  14  17
ENDBRANCH  11  14
ENDBRANCH   2   8
BRANCH   5  20
HETATM   20  C   UNK N   1      25.407  18.624   4.826  0.00  0.00    -0.003 A 
HETATM   21  C   UNK N   1      26.121  19.550   5.597  0.00  0.00     0.059 A 
HETATM   22  C   UNK N   1      27.323  19.221   6.210  0.00  0.00     0.150 A 
HETATM   23  F   UNK N   1      27.960  20.145   6.971  0.00  0.00    -0.203 F 
HETATM   24  C   UNK N   1      27.859  17.942   6.050  0.00  0.00     0.106 A 
HETATM   25  C   UNK N   1      27.177  17.009   5.246  0.00  0.00     0.041 A 
HETATM   26  C   UNK N   1      25.966  17.354   4.629  0.00  0.00     0.017 A 
BRANCH  24  27
HETATM   27  O   UNK N   1      29.021  17.634   6.674  0.00  0.00    -0.353 OA
HETATM   28  C   UNK N   1      29.865  16.636   6.250  0.00  0.00     0.210 C 
ENDBRANCH  24  27
ENDBRANCH   5  20
TORSDOF 5
ENDMDL
