MODEL 1
REMARK VINA RESULT:      -7.5      0.000      0.000
REMARK  7 active torsions:
REMARK  status: ('A' for Active; 'I' for Inactive)
REMARK    1  A    between atoms: C_7  and  C_12 
REMARK    2  A    between atoms: C_12  and  N_13 
REMARK    3  A    between atoms: N_13  and  C_14 
REMARK    4  A    between atoms: C_18  and  C_19 
REMARK       I    between atoms: C_19  and  N_21 
REMARK    5  A    between atoms: N_21  and  C_22 
REMARK    6  A    between atoms: C_25  and  O_28 
REMARK    7  A    between atoms: O_28  and  C_29 
ROOT
HETATM    1  C   UNK N   1      34.690  15.050   8.949  0.00  0.00     0.051 A 
HETATM    2  C   UNK N   1      35.872  14.596   9.600  0.00  0.00     0.038 A 
HETATM    3  C   UNK N   1      36.362  15.510  10.552  0.00  0.00     0.053 A 
HETATM    4  S   UNK N   1      35.312  16.811  10.543  0.00  0.00    -0.094 SA
HETATM    5  C   UNK N   1      34.251  16.310   9.383  0.00  0.00     0.099 A 
ENDROOT
BRANCH   5   6
HETATM    6  C   UNK N   1      33.053  16.979   8.839  0.00  0.00     0.265 C 
HETATM    7  O   UNK N   1      33.241  17.999   8.214  0.00  0.00    -0.267 OA
HETATM    8  N   UNK N   1      31.772  16.526   9.020  0.00  0.00    -0.322 N 
HETATM    9  H   UNK N   1      31.612  15.743   9.594  0.00  0.00     0.169 HD
BRANCH   8  10
HETATM   10  C   UNK N   1      30.656  17.180   8.383  0.00  0.00     0.035 A 
HETATM   11  C   UNK N   1      30.345  16.910   7.040  0.00  0.00     0.032 A 
HETATM   12  C   UNK N   1      29.321  17.556   6.384  0.00  0.00     0.039 A 
HETATM   13  C   UNK N   1      28.542  18.499   7.047  0.00  0.00     0.078 A 
HETATM   14  C   UNK N   1      28.812  18.771   8.403  0.00  0.00     0.039 A 
HETATM   15  C   UNK N   1      29.865  18.110   9.073  0.00  0.00     0.032 A 
BRANCH  13  16
HETATM   16  O   UNK N   1      27.559  19.179   6.395  0.00  0.00    -0.255 OA
BRANCH  16  17
HETATM   17  C   UNK N   1      27.692  20.372   5.682  0.00  0.00     0.530 C 
HETATM   18  F   UNK N   1      26.458  20.737   5.179  0.00  0.00    -0.144 F 
HETATM   19  F   UNK N   1      28.560  20.170   4.628  0.00  0.00    -0.144 F 
HETATM   20  F   UNK N   1      28.188  21.424   6.438  0.00  0.00    -0.144 F 
ENDBRANCH  16  17
ENDBRANCH  13  16
ENDBRANCH   8  10
ENDBRANCH   5   6
BRANCH   1  21
HETATM   21  N   UNK N   1      33.974  14.317   7.960  0.00  0.00    -0.384 N 
HETATM   22  H   UNK N   1      33.063  14.026   8.195  0.00  0.00     0.160 HD
BRANCH  21  23
HETATM   23  C   UNK N   1      34.452  13.960   6.651  0.00  0.00     0.159 C 
BRANCH  23  24
HETATM   24  C   UNK N   1      33.387  14.061   5.555  0.00  0.00    -0.027 A 
HETATM   25  C   UNK N   1      32.961  15.255   4.891  0.00  0.00    -0.002 A 
HETATM   26  C   UNK N   1      31.960  15.170   3.887  0.00  0.00     0.042 A 
HETATM   27  C   UNK N   1      33.487  16.513   5.187  0.00  0.00     0.014 A 
HETATM   28  C   UNK N   1      31.528  16.323   3.219  0.00  0.00     0.030 A 
HETATM   29  N   UNK N   1      31.415  13.971   3.568  0.00  0.00    -0.365 N 
HETATM   30  C   UNK N   1      32.075  17.567   3.532  0.00  0.00     0.002 A 
HETATM   31  C   UNK N   1      33.055  17.662   4.518  0.00  0.00     0.001 A 
HETATM   32  C   UNK N   1      31.802  12.827   4.188  0.00  0.00     0.089 A 
ATOM     33  HN  UNK N   1      30.697  13.926   2.844  1.00  0.00     0.165 HD
HETATM   34  C   UNK N   1      32.784  12.857   5.180  0.00  0.00     0.026 A 
ENDBRANCH  23  24
ENDBRANCH  21  23
ENDBRANCH   1  21
TORSDOF 7
ENDMDL
MODEL 2
REMARK VINA RESULT:      -7.4      1.072      2.000
REMARK  7 active torsions:
REMARK  status: ('A' for Active; 'I' for Inactive)
REMARK    1  A    between atoms: C_7  and  C_12 
REMARK    2  A    between atoms: C_12  and  N_13 
REMARK    3  A    between atoms: N_13  and  C_14 
REMARK    4  A    between atoms: C_18  and  C_19 
REMARK       I    between atoms: C_19  and  N_21 
REMARK    5  A    between atoms: N_21  and  C_22 
REMARK    6  A    between atoms: C_25  and  O_28 
REMARK    7  A    between atoms: O_28  and  C_29 
ROOT
HETATM    1  C   UNK N   1      34.432  15.133   8.475  0.00  0.00     0.051 A 
HETATM    2  C   UNK N   1      35.612  14.578   9.044  0.00  0.00     0.038 A 
HETATM    3  C   UNK N   1      36.096  15.318  10.140  0.00  0.00     0.053 A 
HETATM    4  S   UNK N   1      35.043  16.600  10.347  0.00  0.00    -0.094 SA
HETATM    5  C   UNK N   1      33.988  16.301   9.114  0.00  0.00     0.099 A 
ENDROOT
BRANCH   5   6
HETATM    6  C   UNK N   1      32.790  17.051   8.687  0.00  0.00     0.265 C 
HETATM    7  O   UNK N   1      32.986  18.089   8.095  0.00  0.00    -0.267 OA
HETATM    8  N   UNK N   1      31.504  16.650   8.937  0.00  0.00    -0.322 N 
HETATM    9  H   UNK N   1      31.344  15.848   9.486  0.00  0.00     0.169 HD
BRANCH   8  10
HETATM   10  C   UNK N   1      30.381  17.384   8.410  0.00  0.00     0.035 A 
HETATM   11  C   UNK N   1      29.964  17.192   7.083  0.00  0.00     0.032 A 
HETATM   12  C   UNK N   1      28.931  17.915   6.530  0.00  0.00     0.039 A 
HETATM   13  C   UNK N   1      28.249  18.862   7.286  0.00  0.00     0.078 A 
HETATM   14  C   UNK N   1      28.626  19.059   8.630  0.00  0.00     0.039 A 
HETATM   15  C   UNK N   1      29.688  18.319   9.194  0.00  0.00     0.032 A 
BRANCH  13  16
HETATM   16  O   UNK N   1      27.259  19.618   6.736  0.00  0.00    -0.255 OA
BRANCH  16  17
HETATM   17  C   UNK N   1      27.410  20.770   5.962  0.00  0.00     0.530 C 
HETATM   18  F   UNK N   1      26.163  21.301   5.693  0.00  0.00    -0.144 F 
HETATM   19  F   UNK N   1      28.015  20.431   4.769  0.00  0.00    -0.144 F 
HETATM   20  F   UNK N   1      28.186  21.750   6.562  0.00  0.00    -0.144 F 
ENDBRANCH  16  17
ENDBRANCH  13  16
ENDBRANCH   8  10
ENDBRANCH   5   6
BRANCH   1  21
HETATM   21  N   UNK N   1      33.721  14.578   7.373  0.00  0.00    -0.384 N 
HETATM   22  H   UNK N   1      32.912  14.058   7.583  0.00  0.00     0.160 HD
BRANCH  21  23
HETATM   23  C   UNK N   1      34.071  14.702   5.983  0.00  0.00     0.159 C 
BRANCH  23  24
HETATM   24  C   UNK N   1      33.099  15.567   5.175  0.00  0.00    -0.027 A 
HETATM   25  C   UNK N   1      31.836  15.156   4.642  0.00  0.00    -0.002 A 
HETATM   26  C   UNK N   1      31.052  16.092   3.918  0.00  0.00     0.042 A 
HETATM   27  C   UNK N   1      31.334  13.863   4.801  0.00  0.00     0.014 A 
HETATM   28  C   UNK N   1      29.809  15.716   3.390  0.00  0.00     0.030 A 
HETATM   29  N   UNK N   1      31.499  17.358   3.733  0.00  0.00    -0.365 N 
HETATM   30  C   UNK N   1      29.330  14.418   3.568  0.00  0.00     0.002 A 
HETATM   31  C   UNK N   1      30.094  13.492   4.274  0.00  0.00     0.001 A 
HETATM   32  C   UNK N   1      32.696  17.767   4.227  0.00  0.00     0.089 A 
ATOM     33  HN  UNK N   1      30.924  18.019   3.211  1.00  0.00     0.165 HD
HETATM   34  C   UNK N   1      33.504  16.886   4.948  0.00  0.00     0.026 A 
ENDBRANCH  23  24
ENDBRANCH  21  23
ENDBRANCH   1  21
TORSDOF 7
ENDMDL
MODEL 3
REMARK VINA RESULT:      -7.2      7.696     10.882
REMARK  7 active torsions:
REMARK  status: ('A' for Active; 'I' for Inactive)
REMARK    1  A    between atoms: C_7  and  C_12 
REMARK    2  A    between atoms: C_12  and  N_13 
REMARK    3  A    between atoms: N_13  and  C_14 
REMARK    4  A    between atoms: C_18  and  C_19 
REMARK       I    between atoms: C_19  and  N_21 
REMARK    5  A    between atoms: N_21  and  C_22 
REMARK    6  A    between atoms: C_25  and  O_28 
REMARK    7  A    between atoms: O_28  and  C_29 
ROOT
HETATM    1  C   UNK N   1      22.433  19.170   3.730  0.00  0.00     0.051 A 
HETATM    2  C   UNK N   1      22.377  20.234   2.787  0.00  0.00     0.038 A 
HETATM    3  C   UNK N   1      21.071  20.503   2.337  0.00  0.00     0.053 A 
HETATM    4  S   UNK N   1      20.066  19.427   3.129  0.00  0.00    -0.094 SA
HETATM    5  C   UNK N   1      21.183  18.603   4.022  0.00  0.00     0.099 A 
ENDROOT
BRANCH   5   6
HETATM    6  C   UNK N   1      21.004  17.482   4.965  0.00  0.00     0.265 C 
HETATM    7  O   UNK N   1      20.436  16.502   4.537  0.00  0.00    -0.267 OA
HETATM    8  N   UNK N   1      21.420  17.503   6.271  0.00  0.00    -0.322 N 
HETATM    9  H   UNK N   1      21.810  18.327   6.642  0.00  0.00     0.169 HD
BRANCH   8  10
HETATM   10  C   UNK N   1      21.294  16.337   7.109  0.00  0.00     0.035 A 
HETATM   11  C   UNK N   1      22.113  15.216   6.897  0.00  0.00     0.032 A 
HETATM   12  C   UNK N   1      21.984  14.066   7.642  0.00  0.00     0.039 A 
HETATM   13  C   UNK N   1      21.034  13.984   8.654  0.00  0.00     0.078 A 
HETATM   14  C   UNK N   1      20.215  15.102   8.910  0.00  0.00     0.039 A 
HETATM   15  C   UNK N   1      20.347  16.280   8.142  0.00  0.00     0.032 A 
BRANCH  13  16
HETATM   16  O   UNK N   1      20.863  12.835   9.365  0.00  0.00    -0.255 OA
BRANCH  16  17
HETATM   17  C   UNK N   1      21.626  12.393  10.447  0.00  0.00     0.530 C 
HETATM   18  F   UNK N   1      20.796  12.189  11.533  0.00  0.00    -0.144 F 
HETATM   19  F   UNK N   1      22.550  13.365  10.770  0.00  0.00    -0.144 F 
HETATM   20  F   UNK N   1      22.322  11.219  10.199  0.00  0.00    -0.144 F 
ENDBRANCH  16  17
ENDBRANCH  13  16
ENDBRANCH   8  10
ENDBRANCH   5   6
BRANCH   1  21
HETATM   21  N   UNK N   1      23.621  18.703   4.361  0.00  0.00    -0.384 N 
HETATM   22  H   UNK N   1      23.521  18.302   5.254  0.00  0.00     0.160 HD
BRANCH  21  23
HETATM   23  C   UNK N   1      24.953  18.763   3.821  0.00  0.00     0.159 C 
BRANCH  23  24
HETATM   24  C   UNK N   1      26.008  19.235   4.826  0.00  0.00    -0.027 A 
HETATM   25  C   UNK N   1      26.972  18.416   5.495  0.00  0.00    -0.002 A 
HETATM   26  C   UNK N   1      27.887  19.020   6.397  0.00  0.00     0.042 A 
HETATM   27  C   UNK N   1      27.057  17.036   5.301  0.00  0.00     0.014 A 
HETATM   28  C   UNK N   1      28.844  18.241   7.062  0.00  0.00     0.030 A 
HETATM   29  N   UNK N   1      27.841  20.355   6.624  0.00  0.00    -0.365 N 
HETATM   30  C   UNK N   1      28.909  16.865   6.844  0.00  0.00     0.002 A 
HETATM   31  C   UNK N   1      28.013  16.263   5.963  0.00  0.00     0.001 A 
HETATM   32  C   UNK N   1      26.931  21.149   6.003  0.00  0.00     0.089 A 
ATOM     33  HN  UNK N   1      28.505  20.774   7.275  1.00  0.00     0.165 HD
HETATM   34  C   UNK N   1      26.012  20.605   5.104  0.00  0.00     0.026 A 
ENDBRANCH  23  24
ENDBRANCH  21  23
ENDBRANCH   1  21
TORSDOF 7
ENDMDL
MODEL 4
REMARK VINA RESULT:      -7.2     12.714     15.748
REMARK  7 active torsions:
REMARK  status: ('A' for Active; 'I' for Inactive)
REMARK    1  A    between atoms: C_7  and  C_12 
REMARK    2  A    between atoms: C_12  and  N_13 
REMARK    3  A    between atoms: N_13  and  C_14 
REMARK    4  A    between atoms: C_18  and  C_19 
REMARK       I    between atoms: C_19  and  N_21 
REMARK    5  A    between atoms: N_21  and  C_22 
REMARK    6  A    between atoms: C_25  and  O_28 
REMARK    7  A    between atoms: O_28  and  C_29 
ROOT
HETATM    1  C   UNK N   1      27.434  21.883  -8.556  0.00  0.00     0.051 A 
HETATM    2  C   UNK N   1      27.266  21.045  -9.694  0.00  0.00     0.038 A 
HETATM    3  C   UNK N   1      26.373  21.578 -10.643  0.00  0.00     0.053 A 
HETATM    4  S   UNK N   1      25.853  23.045 -10.032  0.00  0.00    -0.094 SA
HETATM    5  C   UNK N   1      26.681  23.066  -8.605  0.00  0.00     0.099 A 
ENDROOT
BRANCH   5   6
HETATM    6  C   UNK N   1      26.693  24.077  -7.529  0.00  0.00     0.265 C 
HETATM    7  O   UNK N   1      27.712  24.718  -7.402  0.00  0.00    -0.267 OA
HETATM    8  N   UNK N   1      25.643  24.305  -6.678  0.00  0.00    -0.322 N 
HETATM    9  H   UNK N   1      24.845  23.731  -6.729  0.00  0.00     0.169 HD
BRANCH   8  10
HETATM   10  C   UNK N   1      25.691  25.371  -5.709  0.00  0.00     0.035 A 
HETATM   11  C   UNK N   1      25.178  26.641  -6.022  0.00  0.00     0.032 A 
HETATM   12  C   UNK N   1      25.256  27.697  -5.142  0.00  0.00     0.039 A 
HETATM   13  C   UNK N   1      25.839  27.531  -3.891  0.00  0.00     0.078 A 
HETATM   14  C   UNK N   1      26.338  26.261  -3.536  0.00  0.00     0.039 A 
HETATM   15  C   UNK N   1      26.261  25.180  -4.442  0.00  0.00     0.032 A 
BRANCH  13  16
HETATM   16  O   UNK N   1      25.966  28.579  -3.031  0.00  0.00    -0.255 OA
BRANCH  16  17
HETATM   17  C   UNK N   1      26.815  29.679  -3.164  0.00  0.00     0.530 C 
HETATM   18  F   UNK N   1      26.090  30.756  -3.636  0.00  0.00    -0.144 F 
HETATM   19  F   UNK N   1      27.803  29.374  -4.078  0.00  0.00    -0.144 F 
HETATM   20  F   UNK N   1      27.438  30.051  -1.982  0.00  0.00    -0.144 F 
ENDBRANCH  16  17
ENDBRANCH  13  16
ENDBRANCH   8  10
ENDBRANCH   5   6
BRANCH   1  21
HETATM   21  N   UNK N   1      28.292  21.598  -7.456  0.00  0.00    -0.384 N 
HETATM   22  H   UNK N   1      27.863  21.286  -6.627  0.00  0.00     0.160 HD
BRANCH  21  23
HETATM   23  C   UNK N   1      29.725  21.724  -7.437  0.00  0.00     0.159 C 
BRANCH  23  24
HETATM   24  C   UNK N   1      30.362  21.352  -6.095  0.00  0.00    -0.027 A 
HETATM   25  C   UNK N   1      30.263  22.091  -4.873  0.00  0.00    -0.002 A 
HETATM   26  C   UNK N   1      30.913  21.599  -3.712  0.00  0.00     0.042 A 
HETATM   27  C   UNK N   1      29.550  23.287  -4.769  0.00  0.00     0.014 A 
HETATM   28  C   UNK N   1      30.828  22.300  -2.501  0.00  0.00     0.030 A 
HETATM   29  N   UNK N   1      31.622  20.444  -3.764  0.00  0.00    -0.365 N 
HETATM   30  C   UNK N   1      30.104  23.490  -2.425  0.00  0.00     0.002 A 
HETATM   31  C   UNK N   1      29.466  23.984  -3.561  0.00  0.00     0.001 A 
HETATM   32  C   UNK N   1      31.732  19.731  -4.914  0.00  0.00     0.089 A 
ATOM     33  HN  UNK N   1      32.083  20.104  -2.921  1.00  0.00     0.165 HD
HETATM   34  C   UNK N   1      31.109  20.171  -6.083  0.00  0.00     0.026 A 
ENDBRANCH  23  24
ENDBRANCH  21  23
ENDBRANCH   1  21
TORSDOF 7
ENDMDL
MODEL 5
REMARK VINA RESULT:      -7.1      6.700     10.497
REMARK  7 active torsions:
REMARK  status: ('A' for Active; 'I' for Inactive)
REMARK    1  A    between atoms: C_7  and  C_12 
REMARK    2  A    between atoms: C_12  and  N_13 
REMARK    3  A    between atoms: N_13  and  C_14 
REMARK    4  A    between atoms: C_18  and  C_19 
REMARK       I    between atoms: C_19  and  N_21 
REMARK    5  A    between atoms: N_21  and  C_22 
REMARK    6  A    between atoms: C_25  and  O_28 
REMARK    7  A    between atoms: O_28  and  C_29 
ROOT
HETATM    1  C   UNK N   1      37.065  11.665  14.277  0.00  0.00     0.051 A 
HETATM    2  C   UNK N   1      37.744  10.558  14.859  0.00  0.00     0.038 A 
HETATM    3  C   UNK N   1      38.219   9.639  13.904  0.00  0.00     0.053 A 
HETATM    4  S   UNK N   1      37.783  10.244  12.407  0.00  0.00    -0.094 SA
HETATM    5  C   UNK N   1      37.002  11.620  12.875  0.00  0.00     0.099 A 
ENDROOT
BRANCH   5   6
HETATM    6  C   UNK N   1      36.338  12.658  12.062  0.00  0.00     0.265 C 
HETATM    7  O   UNK N   1      35.128  12.625  12.030  0.00  0.00    -0.267 OA
HETATM    8  N   UNK N   1      37.005  13.617  11.347  0.00  0.00    -0.322 N 
HETATM    9  H   UNK N   1      37.989  13.596  11.308  0.00  0.00     0.169 HD
BRANCH   8  10
HETATM   10  C   UNK N   1      36.290  14.655  10.648  0.00  0.00     0.035 A 
HETATM   11  C   UNK N   1      35.956  15.852  11.301  0.00  0.00     0.032 A 
HETATM   12  C   UNK N   1      35.226  16.843  10.682  0.00  0.00     0.039 A 
HETATM   13  C   UNK N   1      34.805  16.691   9.366  0.00  0.00     0.078 A 
HETATM   14  C   UNK N   1      35.148  15.511   8.674  0.00  0.00     0.039 A 
HETATM   15  C   UNK N   1      35.894  14.495   9.312  0.00  0.00     0.032 A 
BRANCH  13  16
HETATM   16  O   UNK N   1      34.041  17.641   8.760  0.00  0.00    -0.255 OA
BRANCH  16  17
HETATM   17  C   UNK N   1      32.725  17.505   8.313  0.00  0.00     0.530 C 
HETATM   18  F   UNK N   1      32.729  17.322   6.944  0.00  0.00    -0.144 F 
HETATM   19  F   UNK N   1      32.031  18.662   8.605  0.00  0.00    -0.144 F 
HETATM   20  F   UNK N   1      32.042  16.448   8.897  0.00  0.00    -0.144 F 
ENDBRANCH  16  17
ENDBRANCH  13  16
ENDBRANCH   8  10
ENDBRANCH   5   6
BRANCH   1  21
HETATM   21  N   UNK N   1      36.504  12.751  15.007  0.00  0.00    -0.384 N 
HETATM   22  H   UNK N   1      37.068  13.550  15.118  0.00  0.00     0.160 HD
BRANCH  21  23
HETATM   23  C   UNK N   1      35.193  12.794  15.599  0.00  0.00     0.159 C 
BRANCH  23  24
HETATM   24  C   UNK N   1      35.200  12.670  17.125  0.00  0.00    -0.027 A 
HETATM   25  C   UNK N   1      35.136  11.456  17.880  0.00  0.00    -0.002 A 
HETATM   26  C   UNK N   1      35.159  11.520  19.298  0.00  0.00     0.042 A 
HETATM   27  C   UNK N   1      35.050  10.198  17.282  0.00  0.00     0.014 A 
HETATM   28  C   UNK N   1      35.102  10.346  20.061  0.00  0.00     0.030 A 
HETATM   29  N   UNK N   1      35.236  12.719  19.926  0.00  0.00    -0.365 N 
HETATM   30  C   UNK N   1      35.022   9.101  19.435  0.00  0.00     0.002 A 
HETATM   31  C   UNK N   1      34.995   9.029  18.045  0.00  0.00     0.001 A 
HETATM   32  C   UNK N   1      35.293  13.882  19.228  0.00  0.00     0.089 A 
ATOM     33  HN  UNK N   1      35.252  12.748  20.945  1.00  0.00     0.165 HD
HETATM   34  C   UNK N   1      35.276  13.873  17.833  0.00  0.00     0.026 A 
ENDBRANCH  23  24
ENDBRANCH  21  23
ENDBRANCH   1  21
TORSDOF 7
ENDMDL
MODEL 6
REMARK VINA RESULT:      -7.1      4.822      7.832
REMARK  7 active torsions:
REMARK  status: ('A' for Active; 'I' for Inactive)
REMARK    1  A    between atoms: C_7  and  C_12 
REMARK    2  A    between atoms: C_12  and  N_13 
REMARK    3  A    between atoms: N_13  and  C_14 
REMARK    4  A    between atoms: C_18  and  C_19 
REMARK       I    between atoms: C_19  and  N_21 
REMARK    5  A    between atoms: N_21  and  C_22 
REMARK    6  A    between atoms: C_25  and  O_28 
REMARK    7  A    between atoms: O_28  and  C_29 
ROOT
HETATM    1  C   UNK N   1      31.280  16.391   5.307  0.00  0.00     0.051 A 
HETATM    2  C   UNK N   1      31.126  16.775   3.946  0.00  0.00     0.038 A 
HETATM    3  C   UNK N   1      32.266  17.413   3.422  0.00  0.00     0.053 A 
HETATM    4  S   UNK N   1      33.393  17.458   4.656  0.00  0.00    -0.094 SA
HETATM    5  C   UNK N   1      32.529  16.722   5.854  0.00  0.00     0.099 A 
ENDROOT
BRANCH   5   6
HETATM    6  C   UNK N   1      32.904  16.426   7.251  0.00  0.00     0.265 C 
HETATM    7  O   UNK N   1      32.051  16.611   8.090  0.00  0.00    -0.267 OA
HETATM    8  N   UNK N   1      34.143  15.984   7.636  0.00  0.00    -0.322 N 
HETATM    9  H   UNK N   1      34.861  15.910   6.966  0.00  0.00     0.169 HD
BRANCH   8  10
HETATM   10  C   UNK N   1      34.411  15.629   9.007  0.00  0.00     0.035 A 
HETATM   11  C   UNK N   1      34.969  16.568   9.890  0.00  0.00     0.032 A 
HETATM   12  C   UNK N   1      35.290  16.247  11.190  0.00  0.00     0.039 A 
HETATM   13  C   UNK N   1      35.053  14.968  11.680  0.00  0.00     0.078 A 
HETATM   14  C   UNK N   1      34.468  14.010  10.827  0.00  0.00     0.039 A 
HETATM   15  C   UNK N   1      34.143  14.340   9.492  0.00  0.00     0.032 A 
BRANCH  13  16
HETATM   16  O   UNK N   1      35.411  14.625  12.948  0.00  0.00    -0.255 OA
BRANCH  16  17
HETATM   17  C   UNK N   1      35.660  13.341  13.435  0.00  0.00     0.530 C 
HETATM   18  F   UNK N   1      36.121  13.431  14.734  0.00  0.00    -0.144 F 
HETATM   19  F   UNK N   1      36.634  12.748  12.657  0.00  0.00    -0.144 F 
HETATM   20  F   UNK N   1      34.549  12.511  13.419  0.00  0.00    -0.144 F 
ENDBRANCH  16  17
ENDBRANCH  13  16
ENDBRANCH   8  10
ENDBRANCH   5   6
BRANCH   1  21
HETATM   21  N   UNK N   1      30.293  15.711   6.078  0.00  0.00    -0.384 N 
HETATM   22  H   UNK N   1      30.613  15.007   6.687  0.00  0.00     0.160 HD
BRANCH  21  23
HETATM   23  C   UNK N   1      28.875  15.952   6.050  0.00  0.00     0.159 C 
BRANCH  23  24
HETATM   24  C   UNK N   1      28.446  17.207   6.816  0.00  0.00    -0.027 A 
HETATM   25  C   UNK N   1      28.036  18.453   6.245  0.00  0.00    -0.002 A 
HETATM   26  C   UNK N   1      27.662  19.519   7.104  0.00  0.00     0.042 A 
HETATM   27  C   UNK N   1      27.987  18.673   4.867  0.00  0.00     0.014 A 
HETATM   28  C   UNK N   1      27.252  20.749   6.570  0.00  0.00     0.030 A 
HETATM   29  N   UNK N   1      27.698  19.357   8.449  0.00  0.00    -0.365 N 
HETATM   30  C   UNK N   1      27.208  20.939   5.189  0.00  0.00     0.002 A 
HETATM   31  C   UNK N   1      27.577  19.900   4.337  0.00  0.00     0.001 A 
HETATM   32  C   UNK N   1      28.088  18.184   9.011  0.00  0.00     0.089 A 
ATOM     33  HN  UNK N   1      27.426  20.132   9.053  1.00  0.00     0.165 HD
HETATM   34  C   UNK N   1      28.463  17.104   8.210  0.00  0.00     0.026 A 
ENDBRANCH  23  24
ENDBRANCH  21  23
ENDBRANCH   1  21
TORSDOF 7
ENDMDL
MODEL 7
REMARK VINA RESULT:      -7.1      6.571     10.116
REMARK  7 active torsions:
REMARK  status: ('A' for Active; 'I' for Inactive)
REMARK    1  A    between atoms: C_7  and  C_12 
REMARK    2  A    between atoms: C_12  and  N_13 
REMARK    3  A    between atoms: N_13  and  C_14 
REMARK    4  A    between atoms: C_18  and  C_19 
REMARK       I    between atoms: C_19  and  N_21 
REMARK    5  A    between atoms: N_21  and  C_22 
REMARK    6  A    between atoms: C_25  and  O_28 
REMARK    7  A    between atoms: O_28  and  C_29 
ROOT
HETATM    1  C   UNK N   1      23.802  18.406   4.749  0.00  0.00     0.051 A 
HETATM    2  C   UNK N   1      22.854  19.060   3.914  0.00  0.00     0.038 A 
HETATM    3  C   UNK N   1      23.440  20.001   3.047  0.00  0.00     0.053 A 
HETATM    4  S   UNK N   1      25.084  19.965   3.351  0.00  0.00    -0.094 SA
HETATM    5  C   UNK N   1      25.126  18.825   4.544  0.00  0.00     0.099 A 
ENDROOT
BRANCH   5   6
HETATM    6  C   UNK N   1      26.271  18.289   5.305  0.00  0.00     0.265 C 
HETATM    7  O   UNK N   1      26.429  17.089   5.267  0.00  0.00    -0.267 OA
HETATM    8  N   UNK N   1      27.129  19.059   6.046  0.00  0.00    -0.322 N 
HETATM    9  H   UNK N   1      26.955  20.023   6.141  0.00  0.00     0.169 HD
BRANCH   8  10
HETATM   10  C   UNK N   1      28.280  18.478   6.689  0.00  0.00     0.035 A 
HETATM   11  C   UNK N   1      28.489  18.654   8.067  0.00  0.00     0.032 A 
HETATM   12  C   UNK N   1      29.606  18.161   8.705  0.00  0.00     0.039 A 
HETATM   13  C   UNK N   1      30.567  17.449   7.996  0.00  0.00     0.078 A 
HETATM   14  C   UNK N   1      30.373  17.233   6.617  0.00  0.00     0.039 A 
HETATM   15  C   UNK N   1      29.229  17.743   5.963  0.00  0.00     0.032 A 
BRANCH  13  16
HETATM   16  O   UNK N   1      31.699  17.000   8.605  0.00  0.00    -0.255 OA
BRANCH  16  17
HETATM   17  C   UNK N   1      33.006  17.431   8.376  0.00  0.00     0.530 C 
HETATM   18  F   UNK N   1      33.520  16.756   7.285  0.00  0.00    -0.144 F 
HETATM   19  F   UNK N   1      33.776  17.135   9.484  0.00  0.00    -0.144 F 
HETATM   20  F   UNK N   1      33.114  18.793   8.143  0.00  0.00    -0.144 F 
ENDBRANCH  16  17
ENDBRANCH  13  16
ENDBRANCH   8  10
ENDBRANCH   5   6
BRANCH   1  21
HETATM   21  N   UNK N   1      23.487  17.397   5.703  0.00  0.00    -0.384 N 
HETATM   22  H   UNK N   1      24.012  17.394   6.536  0.00  0.00     0.160 HD
BRANCH  21  23
HETATM   23  C   UNK N   1      22.478  16.380   5.568  0.00  0.00     0.159 C 
BRANCH  23  24
HETATM   24  C   UNK N   1      21.593  16.219   6.808  0.00  0.00    -0.027 A 
HETATM   25  C   UNK N   1      21.577  15.101   7.701  0.00  0.00    -0.002 A 
HETATM   26  C   UNK N   1      20.694  15.115   8.813  0.00  0.00     0.042 A 
HETATM   27  C   UNK N   1      22.397  13.984   7.529  0.00  0.00     0.014 A 
HETATM   28  C   UNK N   1      20.662  14.035   9.705  0.00  0.00     0.030 A 
HETATM   29  N   UNK N   1      19.874  16.174   9.019  0.00  0.00    -0.365 N 
HETATM   30  C   UNK N   1      21.497  12.934   9.511  0.00  0.00     0.002 A 
HETATM   31  C   UNK N   1      22.364  12.909   8.421  0.00  0.00     0.001 A 
HETATM   32  C   UNK N   1      19.871  17.242   8.182  0.00  0.00     0.089 A 
ATOM     33  HN  UNK N   1      19.246  16.169   9.823  1.00  0.00     0.165 HD
HETATM   34  C   UNK N   1      20.722  17.279   7.076  0.00  0.00     0.026 A 
ENDBRANCH  23  24
ENDBRANCH  21  23
ENDBRANCH   1  21
TORSDOF 7
ENDMDL
MODEL 8
REMARK VINA RESULT:      -7.0      4.773      8.179
REMARK  7 active torsions:
REMARK  status: ('A' for Active; 'I' for Inactive)
REMARK    1  A    between atoms: C_7  and  C_12 
REMARK    2  A    between atoms: C_12  and  N_13 
REMARK    3  A    between atoms: N_13  and  C_14 
REMARK    4  A    between atoms: C_18  and  C_19 
REMARK       I    between atoms: C_19  and  N_21 
REMARK    5  A    between atoms: N_21  and  C_22 
REMARK    6  A    between atoms: C_25  and  O_28 
REMARK    7  A    between atoms: O_28  and  C_29 
ROOT
HETATM    1  C   UNK N   1      37.053  13.356  11.171  0.00  0.00     0.051 A 
HETATM    2  C   UNK N   1      38.305  12.687  11.078  0.00  0.00     0.038 A 
HETATM    3  C   UNK N   1      39.037  13.045   9.929  0.00  0.00     0.053 A 
HETATM    4  S   UNK N   1      38.107  14.164   9.106  0.00  0.00    -0.094 SA
HETATM    5  C   UNK N   1      36.797  14.234  10.106  0.00  0.00     0.099 A 
ENDROOT
BRANCH   5   6
HETATM    6  C   UNK N   1      35.556  15.026   9.991  0.00  0.00     0.265 C 
HETATM    7  O   UNK N   1      35.248  15.688  10.957  0.00  0.00    -0.267 OA
HETATM    8  N   UNK N   1      34.748  15.031   8.885  0.00  0.00    -0.322 N 
HETATM    9  H   UNK N   1      34.955  14.432   8.131  0.00  0.00     0.169 HD
BRANCH   8  10
HETATM   10  C   UNK N   1      33.600  15.898   8.807  0.00  0.00     0.035 A 
HETATM   11  C   UNK N   1      32.321  15.416   9.128  0.00  0.00     0.032 A 
HETATM   12  C   UNK N   1      31.194  16.200   9.014  0.00  0.00     0.039 A 
HETATM   13  C   UNK N   1      31.293  17.518   8.584  0.00  0.00     0.078 A 
HETATM   14  C   UNK N   1      32.567  18.041   8.280  0.00  0.00     0.039 A 
HETATM   15  C   UNK N   1      33.721  17.234   8.395  0.00  0.00     0.032 A 
BRANCH  13  16
HETATM   16  O   UNK N   1      30.182  18.288   8.419  0.00  0.00    -0.255 OA
BRANCH  16  17
HETATM   17  C   UNK N   1      29.145  18.085   7.508  0.00  0.00     0.530 C 
HETATM   18  F   UNK N   1      29.681  17.715   6.289  0.00  0.00    -0.144 F 
HETATM   19  F   UNK N   1      28.451  19.267   7.348  0.00  0.00    -0.144 F 
HETATM   20  F   UNK N   1      28.235  17.115   7.902  0.00  0.00    -0.144 F 
ENDBRANCH  16  17
ENDBRANCH  13  16
ENDBRANCH   8  10
ENDBRANCH   5   6
BRANCH   1  21
HETATM   21  N   UNK N   1      36.123  13.198  12.238  0.00  0.00    -0.384 N 
HETATM   22  H   UNK N   1      35.249  12.806  12.010  0.00  0.00     0.160 HD
BRANCH  21  23
HETATM   23  C   UNK N   1      36.336  13.556  13.615  0.00  0.00     0.159 C 
BRANCH  23  24
HETATM   24  C   UNK N   1      36.325  12.361  14.573  0.00  0.00    -0.027 A 
HETATM   25  C   UNK N   1      35.948  12.382  15.953  0.00  0.00    -0.002 A 
HETATM   26  C   UNK N   1      35.991  11.177  16.701  0.00  0.00     0.042 A 
HETATM   27  C   UNK N   1      35.537  13.545  16.607  0.00  0.00     0.014 A 
HETATM   28  C   UNK N   1      35.622  11.168  18.054  0.00  0.00     0.030 A 
HETATM   29  N   UNK N   1      36.388  10.022  16.113  0.00  0.00    -0.365 N 
HETATM   30  C   UNK N   1      35.210  12.345  18.680  0.00  0.00     0.002 A 
HETATM   31  C   UNK N   1      35.169  13.534  17.955  0.00  0.00     0.001 A 
HETATM   32  C   UNK N   1      36.754   9.982  14.806  0.00  0.00     0.089 A 
ATOM     33  HN  UNK N   1      36.413   9.164  16.663  1.00  0.00     0.165 HD
HETATM   34  C   UNK N   1      36.727  11.140  14.026  0.00  0.00     0.026 A 
ENDBRANCH  23  24
ENDBRANCH  21  23
ENDBRANCH   1  21
TORSDOF 7
ENDMDL
MODEL 9
REMARK VINA RESULT:      -7.0      6.516      9.302
REMARK  7 active torsions:
REMARK  status: ('A' for Active; 'I' for Inactive)
REMARK    1  A    between atoms: C_7  and  C_12 
REMARK    2  A    between atoms: C_12  and  N_13 
REMARK    3  A    between atoms: N_13  and  C_14 
REMARK    4  A    between atoms: C_18  and  C_19 
REMARK       I    between atoms: C_19  and  N_21 
REMARK    5  A    between atoms: N_21  and  C_22 
REMARK    6  A    between atoms: C_25  and  O_28 
REMARK    7  A    between atoms: O_28  and  C_29 
ROOT
HETATM    1  C   UNK N   1      25.001  15.836   5.420  0.00  0.00     0.051 A 
HETATM    2  C   UNK N   1      23.943  15.851   4.468  0.00  0.00     0.038 A 
HETATM    3  C   UNK N   1      24.355  16.284   3.193  0.00  0.00     0.053 A 
HETATM    4  S   UNK N   1      25.991  16.612   3.310  0.00  0.00    -0.094 SA
HETATM    5  C   UNK N   1      26.237  16.253   4.902  0.00  0.00     0.099 A 
ENDROOT
BRANCH   5   6
HETATM    6  C   UNK N   1      27.470  16.325   5.711  0.00  0.00     0.265 C 
HETATM    7  O   UNK N   1      27.916  15.273   6.109  0.00  0.00    -0.267 OA
HETATM    8  N   UNK N   1      28.104  17.494   6.041  0.00  0.00    -0.322 N 
HETATM    9  H   UNK N   1      27.699  18.354   5.786  0.00  0.00     0.169 HD
BRANCH   8  10
HETATM   10  C   UNK N   1      29.355  17.484   6.758  0.00  0.00     0.035 A 
HETATM   11  C   UNK N   1      30.556  17.201   6.088  0.00  0.00     0.032 A 
HETATM   12  C   UNK N   1      31.762  17.129   6.750  0.00  0.00     0.039 A 
HETATM   13  C   UNK N   1      31.828  17.353   8.121  0.00  0.00     0.078 A 
HETATM   14  C   UNK N   1      30.643  17.666   8.817  0.00  0.00     0.039 A 
HETATM   15  C   UNK N   1      29.408  17.736   8.137  0.00  0.00     0.032 A 
BRANCH  13  16
HETATM   16  O   UNK N   1      33.006  17.236   8.795  0.00  0.00    -0.255 OA
BRANCH  16  17
HETATM   17  C   UNK N   1      34.247  17.752   8.418  0.00  0.00     0.530 C 
HETATM   18  F   UNK N   1      35.150  17.552   9.444  0.00  0.00    -0.144 F 
HETATM   19  F   UNK N   1      34.119  19.108   8.196  0.00  0.00    -0.144 F 
HETATM   20  F   UNK N   1      34.761  17.185   7.262  0.00  0.00    -0.144 F 
ENDBRANCH  16  17
ENDBRANCH  13  16
ENDBRANCH   8  10
ENDBRANCH   5   6
BRANCH   1  21
HETATM   21  N   UNK N   1      24.870  15.423   6.776  0.00  0.00    -0.384 N 
HETATM   22  H   UNK N   1      24.836  16.135   7.456  0.00  0.00     0.160 HD
BRANCH  21  23
HETATM   23  C   UNK N   1      24.785  14.068   7.250  0.00  0.00     0.159 C 
BRANCH  23  24
HETATM   24  C   UNK N   1      23.518  13.774   8.060  0.00  0.00    -0.027 A 
HETATM   25  C   UNK N   1      23.455  13.125   9.334  0.00  0.00    -0.002 A 
HETATM   26  C   UNK N   1      22.191  12.936   9.953  0.00  0.00     0.042 A 
HETATM   27  C   UNK N   1      24.589  12.661  10.003  0.00  0.00     0.014 A 
HETATM   28  C   UNK N   1      22.102  12.307  11.202  0.00  0.00     0.030 A 
HETATM   29  N   UNK N   1      21.060  13.364   9.340  0.00  0.00    -0.365 N 
HETATM   30  C   UNK N   1      23.253  11.858  11.850  0.00  0.00     0.002 A 
HETATM   31  C   UNK N   1      24.497  12.035  11.249  0.00  0.00     0.001 A 
HETATM   32  C   UNK N   1      21.099  13.979   8.131  0.00  0.00     0.089 A 
ATOM     33  HN  UNK N   1      20.161  13.222   9.798  1.00  0.00     0.165 HD
HETATM   34  C   UNK N   1      22.316  14.191   7.481  0.00  0.00     0.026 A 
ENDBRANCH  23  24
ENDBRANCH  21  23
ENDBRANCH   1  21
TORSDOF 7
ENDMDL
