REMARK  4 active torsions:
REMARK  status: ('A' for Active; 'I' for Inactive)
REMARK    1  A    between atoms: O_2  and  C_13 
REMARK    2  A    between atoms: C_4  and  C_5 
REMARK    3  A    between atoms: C_4  and  C_13 
REMARK    4  A    between atoms: C_6  and  C_12 
ROOT
HETATM    1  F   UNK N   1       0.517   1.030   0.000  0.00  0.00    -0.205 F 
HETATM    2  C   UNK N   1       2.918  -1.740   0.000  0.00  0.00    -0.041 A 
HETATM    3  C   UNK N   1       2.936   1.087   0.000  0.00  0.00     0.013 A 
HETATM    4  C   UNK N   1       1.709  -1.024   0.000  0.00  0.00     0.051 A 
HETATM    5  C   UNK N   1       4.120  -1.032   0.000  0.00  0.00     0.009 A 
HETATM    6  C   UNK N   1       1.708   0.380   0.000  0.00  0.00     0.128 A 
HETATM    7  C   UNK N   1       4.130   0.355   0.000  0.00  0.00     0.016 A 
ENDROOT
BRANCH   2   8
HETATM    8  C   UNK N   1       2.932  -3.252   0.000  0.00  0.00     0.112 C 
HETATM    9  C   UNK N   1       1.615  -4.015   0.000  0.00  0.00     0.026 C 
BRANCH   8  10
HETATM   10  C   UNK N   1       4.215  -4.055   0.000  0.00  0.00     0.148 C 
HETATM   11  O   UNK N   1       5.304  -3.498  -0.000  0.00  0.00    -0.649 OA
BRANCH  10  12
HETATM   12  O   UNK N   1       4.168  -5.399  -0.000  0.00  0.00    -0.776 OA
HETATM   13  H   UNK N   1       3.341  -5.839  -0.000  0.00  0.00     0.167 HD
ENDBRANCH  10  12
ENDBRANCH   8  10
ENDBRANCH   2   8
BRANCH   3  14
HETATM   14  C   UNK N   1       3.028   2.575  -0.000  0.00  0.00    -0.023 A 
HETATM   15  C   UNK N   1       1.886   3.391  -0.000  0.00  0.00     0.012 A 
HETATM   16  C   UNK N   1       2.010   4.785  -0.000  0.00  0.00     0.001 A 
HETATM   17  C   UNK N   1       3.276   5.377  -0.000  0.00  0.00     0.000 A 
HETATM   18  C   UNK N   1       4.419   4.577   0.000  0.00  0.00     0.001 A 
HETATM   19  C   UNK N   1       4.295   3.188   0.000  0.00  0.00     0.012 A 
ENDBRANCH   3  14
TORSDOF 4
