MODEL 1
REMARK VINA RESULT:      -3.2      0.000      0.000
REMARK  8 active torsions:
REMARK  status: ('A' for Active; 'I' for Inactive)
REMARK    1  A    between atoms: S_2  and  O_8 
REMARK    2  A    between atoms: P_3  and  C_23 
REMARK    3  A    between atoms: O_6  and  C_23 
REMARK    4  A    between atoms: O_6  and  C_26 
REMARK    5  A    between atoms: N_11  and  C_27 
REMARK    6  A    between atoms: N_18  and  C_34 
REMARK    7  A    between atoms: C_19  and  C_22 
REMARK    8  A    between atoms: C_26  and  C_27 
ROOT
HETATM    1  S   UNK N   1      33.841  18.277   8.207  0.00  0.00     0.090 S 
HETATM    2  O   UNK N   1      34.591  17.502   9.300  0.00  0.00    -0.602 OA
HETATM    3  O   UNK N   1      34.684  17.921   6.974  0.00  0.00    -0.602 OA
HETATM    4  C   UNK N   1      33.708  16.501   7.874  0.00  0.00     0.178 C 
ENDROOT
BRANCH   1   5
HETATM    5  O   UNK N   1      35.250  19.225   8.431  0.00  0.00    -0.296 OA
HETATM    6  H   UNK N   1      35.648  19.719   7.698  0.00  0.00     0.232 HD
ENDBRANCH   1   5
TORSDOF 8
ENDMDL
MODEL 2
REMARK VINA RESULT:      -3.2     14.659     15.008
REMARK  8 active torsions:
REMARK  status: ('A' for Active; 'I' for Inactive)
REMARK    1  A    between atoms: S_2  and  O_8 
REMARK    2  A    between atoms: P_3  and  C_23 
REMARK    3  A    between atoms: O_6  and  C_23 
REMARK    4  A    between atoms: O_6  and  C_26 
REMARK    5  A    between atoms: N_11  and  C_27 
REMARK    6  A    between atoms: N_18  and  C_34 
REMARK    7  A    between atoms: C_19  and  C_22 
REMARK    8  A    between atoms: C_26  and  C_27 
ROOT
HETATM    1  S   UNK N   1      21.319  20.025   2.849  0.00  0.00     0.090 S 
HETATM    2  O   UNK N   1      20.692  20.432   1.508  0.00  0.00    -0.602 OA
HETATM    3  O   UNK N   1      20.342  20.684   3.834  0.00  0.00    -0.602 OA
HETATM    4  C   UNK N   1      19.689  19.249   2.696  0.00  0.00     0.178 C 
ENDROOT
BRANCH   1   5
HETATM    5  O   UNK N   1      21.734  21.683   2.736  0.00  0.00    -0.296 OA
HETATM    6  H   UNK N   1      21.087  22.381   2.925  0.00  0.00     0.232 HD
ENDBRANCH   1   5
TORSDOF 8
ENDMDL
MODEL 3
REMARK VINA RESULT:      -3.1     11.858     12.237
REMARK  8 active torsions:
REMARK  status: ('A' for Active; 'I' for Inactive)
REMARK    1  A    between atoms: S_2  and  O_8 
REMARK    2  A    between atoms: P_3  and  C_23 
REMARK    3  A    between atoms: O_6  and  C_23 
REMARK    4  A    between atoms: O_6  and  C_26 
REMARK    5  A    between atoms: N_11  and  C_27 
REMARK    6  A    between atoms: N_18  and  C_34 
REMARK    7  A    between atoms: C_19  and  C_22 
REMARK    8  A    between atoms: C_26  and  C_27 
ROOT
HETATM    1  S   UNK N   1      31.441  22.465  -3.097  0.00  0.00     0.090 S 
HETATM    2  O   UNK N   1      30.905  22.813  -1.701  0.00  0.00    -0.602 OA
HETATM    3  O   UNK N   1      30.725  21.132  -3.354  0.00  0.00    -0.602 OA
HETATM    4  C   UNK N   1      29.654  22.748  -3.200  0.00  0.00     0.178 C 
ENDROOT
BRANCH   1   5
HETATM    5  O   UNK N   1      32.301  21.378  -2.090  0.00  0.00    -0.296 OA
HETATM    6  H   UNK N   1      32.897  21.698  -1.395  0.00  0.00     0.232 HD
ENDBRANCH   1   5
TORSDOF 8
ENDMDL
MODEL 4
REMARK VINA RESULT:      -3.0      2.684      3.228
REMARK  8 active torsions:
REMARK  status: ('A' for Active; 'I' for Inactive)
REMARK    1  A    between atoms: S_2  and  O_8 
REMARK    2  A    between atoms: P_3  and  C_23 
REMARK    3  A    between atoms: O_6  and  C_23 
REMARK    4  A    between atoms: O_6  and  C_26 
REMARK    5  A    between atoms: N_11  and  C_27 
REMARK    6  A    between atoms: N_18  and  C_34 
REMARK    7  A    between atoms: C_19  and  C_22 
REMARK    8  A    between atoms: C_26  and  C_27 
ROOT
HETATM    1  S   UNK N   1      35.275  16.135  10.722  0.00  0.00     0.090 S 
HETATM    2  O   UNK N   1      35.734  15.338   9.492  0.00  0.00    -0.602 OA
HETATM    3  O   UNK N   1      35.657  17.560  10.299  0.00  0.00    -0.602 OA
HETATM    4  C   UNK N   1      34.281  16.628   9.290  0.00  0.00     0.178 C 
ENDROOT
BRANCH   1   5
HETATM    5  O   UNK N   1      36.978  16.133  10.898  0.00  0.00    -0.296 OA
HETATM    6  H   UNK N   1      37.419  16.689  11.561  0.00  0.00     0.232 HD
ENDBRANCH   1   5
TORSDOF 8
ENDMDL
MODEL 5
REMARK VINA RESULT:      -3.0     18.611     18.736
REMARK  8 active torsions:
REMARK  status: ('A' for Active; 'I' for Inactive)
REMARK    1  A    between atoms: S_2  and  O_8 
REMARK    2  A    between atoms: P_3  and  C_23 
REMARK    3  A    between atoms: O_6  and  C_23 
REMARK    4  A    between atoms: O_6  and  C_26 
REMARK    5  A    between atoms: N_11  and  C_27 
REMARK    6  A    between atoms: N_18  and  C_34 
REMARK    7  A    between atoms: C_19  and  C_22 
REMARK    8  A    between atoms: C_26  and  C_27 
ROOT
HETATM    1  S   UNK N   1      49.053  18.308  20.694  0.00  0.00     0.090 S 
HETATM    2  O   UNK N   1      48.843  18.706  19.226  0.00  0.00    -0.602 OA
HETATM    3  O   UNK N   1      48.074  17.132  20.816  0.00  0.00    -0.602 OA
HETATM    4  C   UNK N   1      49.602  16.951  19.627  0.00  0.00     0.178 C 
ENDROOT
BRANCH   1   5
HETATM    5  O   UNK N   1      47.531  19.092  20.739  0.00  0.00    -0.296 OA
HETATM    6  H   UNK N   1      47.437  20.028  20.500  0.00  0.00     0.232 HD
ENDBRANCH   1   5
TORSDOF 8
ENDMDL
MODEL 6
REMARK VINA RESULT:      -2.6      2.142      2.521
REMARK  8 active torsions:
REMARK  status: ('A' for Active; 'I' for Inactive)
REMARK    1  A    between atoms: S_2  and  O_8 
REMARK    2  A    between atoms: P_3  and  C_23 
REMARK    3  A    between atoms: O_6  and  C_23 
REMARK    4  A    between atoms: O_6  and  C_26 
REMARK    5  A    between atoms: N_11  and  C_27 
REMARK    6  A    between atoms: N_18  and  C_34 
REMARK    7  A    between atoms: C_19  and  C_22 
REMARK    8  A    between atoms: C_26  and  C_27 
ROOT
HETATM    1  S   UNK N   1      33.625  16.901   6.469  0.00  0.00     0.090 S 
HETATM    2  O   UNK N   1      35.046  16.337   6.327  0.00  0.00    -0.602 OA
HETATM    3  O   UNK N   1      33.604  17.917   5.318  0.00  0.00    -0.602 OA
HETATM    4  C   UNK N   1      33.762  16.028   4.888  0.00  0.00     0.178 C 
ENDROOT
BRANCH   1   5
HETATM    5  O   UNK N   1      34.592  18.178   7.079  0.00  0.00    -0.296 OA
HETATM    6  H   UNK N   1      35.166  18.053   7.850  0.00  0.00     0.232 HD
ENDBRANCH   1   5
TORSDOF 8
ENDMDL
MODEL 7
REMARK VINA RESULT:      -2.6     14.755     15.042
REMARK  8 active torsions:
REMARK  status: ('A' for Active; 'I' for Inactive)
REMARK    1  A    between atoms: S_2  and  O_8 
REMARK    2  A    between atoms: P_3  and  C_23 
REMARK    3  A    between atoms: O_6  and  C_23 
REMARK    4  A    between atoms: O_6  and  C_26 
REMARK    5  A    between atoms: N_11  and  C_27 
REMARK    6  A    between atoms: N_18  and  C_34 
REMARK    7  A    between atoms: C_19  and  C_22 
REMARK    8  A    between atoms: C_26  and  C_27 
ROOT
HETATM    1  S   UNK N   1      20.388  15.065   9.041  0.00  0.00     0.090 S 
HETATM    2  O   UNK N   1      18.982  15.681   9.024  0.00  0.00    -0.602 OA
HETATM    3  O   UNK N   1      20.220  13.939   8.011  0.00  0.00    -0.602 OA
HETATM    4  C   UNK N   1      20.074  15.781   7.407  0.00  0.00     0.178 C 
ENDROOT
BRANCH   1   5
HETATM    5  O   UNK N   1      19.467  13.905   9.901  0.00  0.00    -0.296 OA
HETATM    6  H   UNK N   1      18.583  14.114  10.242  0.00  0.00     0.232 HD
ENDBRANCH   1   5
TORSDOF 8
ENDMDL
MODEL 8
REMARK VINA RESULT:      -2.6     13.899     14.040
REMARK  8 active torsions:
REMARK  status: ('A' for Active; 'I' for Inactive)
REMARK    1  A    between atoms: S_2  and  O_8 
REMARK    2  A    between atoms: P_3  and  C_23 
REMARK    3  A    between atoms: O_6  and  C_23 
REMARK    4  A    between atoms: O_6  and  C_26 
REMARK    5  A    between atoms: N_11  and  C_27 
REMARK    6  A    between atoms: N_18  and  C_34 
REMARK    7  A    between atoms: C_19  and  C_22 
REMARK    8  A    between atoms: C_26  and  C_27 
ROOT
HETATM    1  S   UNK N   1      19.759  17.685   8.050  0.00  0.00     0.090 S 
HETATM    2  O   UNK N   1      20.706  16.841   8.915  0.00  0.00    -0.602 OA
HETATM    3  O   UNK N   1      20.712  18.794   7.581  0.00  0.00    -0.602 OA
HETATM    4  C   UNK N   1      21.048  16.970   6.997  0.00  0.00     0.178 C 
ENDROOT
BRANCH   1   5
HETATM    5  O   UNK N   1      19.932  18.650   9.455  0.00  0.00    -0.296 OA
HETATM    6  H   UNK N   1      19.184  18.812  10.051  0.00  0.00     0.232 HD
ENDBRANCH   1   5
TORSDOF 8
ENDMDL
MODEL 9
REMARK VINA RESULT:      -2.6      1.567      2.287
REMARK  8 active torsions:
REMARK  status: ('A' for Active; 'I' for Inactive)
REMARK    1  A    between atoms: S_2  and  O_8 
REMARK    2  A    between atoms: P_3  and  C_23 
REMARK    3  A    between atoms: O_6  and  C_23 
REMARK    4  A    between atoms: O_6  and  C_26 
REMARK    5  A    between atoms: N_11  and  C_27 
REMARK    6  A    between atoms: N_18  and  C_34 
REMARK    7  A    between atoms: C_19  and  C_22 
REMARK    8  A    between atoms: C_26  and  C_27 
ROOT
HETATM    1  S   UNK N   1      34.073  16.983   7.035  0.00  0.00     0.090 S 
HETATM    2  O   UNK N   1      32.584  17.354   6.971  0.00  0.00    -0.602 OA
HETATM    3  O   UNK N   1      34.688  18.334   7.426  0.00  0.00    -0.602 OA
HETATM    4  C   UNK N   1      33.505  17.449   8.690  0.00  0.00     0.178 C 
ENDROOT
BRANCH   1   5
HETATM    5  O   UNK N   1      33.977  17.874   5.575  0.00  0.00    -0.296 OA
HETATM    6  H   UNK N   1      34.256  17.490   4.729  0.00  0.00     0.232 HD
ENDBRANCH   1   5
TORSDOF 8
ENDMDL
