MODEL 1
REMARK VINA RESULT:      -9.1      0.000      0.000
REMARK  11 active torsions:
REMARK  status: ('A' for Active; 'I' for Inactive)
REMARK    1  A    between atoms: O_2  and  C_22 
REMARK    2  A    between atoms: C_26  and  O_5 
REMARK    3  A    between atoms: O_5  and  C_36 
REMARK    4  A    between atoms: O_7  and  C_37 
REMARK    5  A    between atoms: O_7  and  C_38 
REMARK    6  A    between atoms: O_9  and  C_51 
REMARK    7  A    between atoms: C_31  and  N_12 
REMARK       I    between atoms: N_12  and  C_38 
REMARK    8  A    between atoms: N_17  and  C_53 
REMARK    9  A    between atoms: N_17  and  C_55 
REMARK   10  A    between atoms: C_18  and  C_22 
REMARK   11  A    between atoms: C_46  and  C_50 
ROOT
HETATM    1  O   UNK N   1      22.323  17.407   3.091  0.00  0.00    -0.271 OA
HETATM    2  O   UNK N   1      22.711  16.414   6.526  0.00  0.00    -0.271 OA
HETATM    3  N   UNK N   1      21.561  19.368   3.832  0.00  0.00    -0.340 N 
HETATM    4  N   UNK N   1      24.109  17.019   4.894  0.00  0.00    -0.334 N 
HETATM    5  C   UNK N   1      20.760  19.591   2.647  0.00  0.00     0.126 A 
HETATM    6  C   UNK N   1      19.855  18.416   2.193  0.00  0.00     0.050 A 
HETATM    7  C   UNK N   1      19.269  19.697   2.789  0.00  0.00     0.054 A 
HETATM    8  C   UNK N   1      19.308  17.280   3.024  0.00  0.00    -0.023 C 
HETATM    9  C   UNK N   1      23.584  18.352   4.850  0.00  0.00     0.181 C 
HETATM   10  C   UNK N   1      22.403  18.316   3.912  0.00  0.00     0.241 C 
HETATM   11  C   UNK N   1      24.649  19.163   4.152  0.00  0.00     0.069 C 
HETATM   12  C   UNK N   1      25.504  18.158   3.395  0.00  0.00     0.149 C 
HETATM   13  C   UNK N   1      25.071  16.751   3.860  0.00  0.00     0.159 C 
HETATM   14  C   UNK N   1      19.576  17.047   4.312  0.00  0.00    -0.030 C 
HETATM   15  C   UNK N   1      18.965  15.865   5.004  0.00  0.00     0.027 C 
HETATM   16  C   UNK N   1      23.481  16.066   5.638  0.00  0.00     0.243 C 
HETATM   17  C   UNK N   1      23.542  14.606   5.319  0.00  0.00     0.179 C 
HETATM   18  C   UNK N   1      19.315  14.571   4.275  0.00  0.00     0.004 C 
HETATM   19  C   UNK N   1      22.294  13.966   4.732  0.00  0.00     0.035 C 
HETATM   20  C   UNK N   1      19.865  13.521   5.228  0.00  0.00     0.000 C 
HETATM   21  C   UNK N   1      21.208  13.941   5.800  0.00  0.00     0.002 C 
HETATM   22  H   UNK N   1      21.491  19.993   4.590  0.00  0.00     0.163 HD
ENDROOT
BRANCH  12  23
HETATM   23  O   UNK N   1      26.826  18.504   3.634  0.00  0.00    -0.343 OA
BRANCH  23  24
HETATM   24  C   UNK N   1      27.821  17.762   4.188  0.00  0.00     0.084 A 
HETATM   25  C   UNK N   1      28.206  18.024   5.515  0.00  0.00     0.024 A 
HETATM   26  C   UNK N   1      29.304  17.334   6.055  0.00  0.00     0.048 A 
HETATM   27  C   UNK N   1      27.541  18.973   6.302  0.00  0.00     0.019 A 
HETATM   28  N   UNK N   1      29.975  16.447   5.305  0.00  0.00    -0.353 N 
HETATM   29  C   UNK N   1      29.730  17.581   7.353  0.00  0.00     0.067 A 
HETATM   30  C   UNK N   1      29.597  16.128   4.047  0.00  0.00     0.062 A 
ATOM     31  HN  UNK N   1      30.802  15.997   5.697  1.00  0.00     0.166 HD
HETATM   32  C   UNK N   1      28.506  16.764   3.466  0.00  0.00     0.069 A 
HETATM   33  C   UNK N   1      29.074  18.516   8.142  0.00  0.00     0.070 A 
HETATM   34  C   UNK N   1      27.970  19.216   7.613  0.00  0.00     0.038 A 
BRANCH  30  35
HETATM   35  C   UNK N   1      30.455  15.213   3.337  0.00  0.00     0.067 A 
HETATM   36  N   UNK N   1      31.741  15.613   3.091  0.00  0.00    -0.335 N 
HETATM   37  C   UNK N   1      32.513  14.621   2.647  0.00  0.00     0.145 A 
ATOM     38  HN  UNK N   1      32.072  16.568   3.234  1.00  0.00     0.168 HD
HETATM   39  S   UNK N   1      31.645  13.217   2.631  0.00  0.00    -0.064 SA
HETATM   40  C   UNK N   1      30.176  13.848   3.112  0.00  0.00     0.085 A 
BRANCH  37  41
HETATM   41  N   UNK N   1      33.895  14.797   2.464  0.00  0.00    -0.367 N 
HETATM   42  H   UNK N   1      34.319  15.649   2.716  0.00  0.00     0.162 HD
BRANCH  41  43
HETATM   43  C   UNK N   1      34.690  13.742   1.912  0.00  0.00     0.075 C 
HETATM   44  C   UNK N   1      35.613  14.308   0.859  0.00  0.00     0.032 C 
HETATM   45  C   UNK N   1      35.515  13.131   3.030  0.00  0.00     0.032 C 
ENDBRANCH  41  43
ENDBRANCH  37  41
ENDBRANCH  30  35
BRANCH  33  46
HETATM   46  O   UNK N   1      29.529  18.733   9.396  0.00  0.00    -0.356 OA
HETATM   47  C   UNK N   1      29.439  17.801  10.403  0.00  0.00     0.210 C 
ENDBRANCH  33  46
ENDBRANCH  23  24
ENDBRANCH  12  23
BRANCH  17  48
HETATM   48  N   UNK N   1      24.786  13.916   5.094  0.00  0.00    -0.324 N 
HETATM   49  C   UNK N   1      25.409  13.338   6.145  0.00  0.00     0.361 C 
HETATM   50  O   UNK N   1      26.422  12.675   5.950  0.00  0.00    -0.238 OA
HETATM   51  H   UNK N   1      25.177  13.867   4.192  0.00  0.00     0.165 HD
BRANCH  49  52
HETATM   52  O   UNK N   1      24.898  13.487   7.400  0.00  0.00    -0.299 OA
BRANCH  52  53
HETATM   53  C   UNK N   1      24.607  12.496   8.321  0.00  0.00     0.133 C 
HETATM   54  C   UNK N   1      24.562  13.022   9.744  0.00  0.00     0.032 C 
HETATM   55  C   UNK N   1      23.147  12.794  10.245  0.00  0.00     0.002 C 
HETATM   56  C   UNK N   1      22.311  12.430   9.038  0.00  0.00     0.002 C 
HETATM   57  C   UNK N   1      23.279  11.824   8.048  0.00  0.00     0.032 C 
ENDBRANCH  52  53
ENDBRANCH  49  52
ENDBRANCH  17  48
BRANCH   5  58
HETATM   58  C   UNK N   1      21.497  20.198   1.481  0.00  0.00     0.170 C 
HETATM   59  O   UNK N   1      22.640  20.604   1.628  0.00  0.00    -0.648 OA
BRANCH  58  60
HETATM   60  O   UNK N   1      20.906  20.306   0.278  0.00  0.00    -0.774 OA
HETATM   61  H   UNK N   1      20.242  20.922   0.035  0.00  0.00     0.167 HD
ENDBRANCH  58  60
ENDBRANCH   5  58
TORSDOF 11
ENDMDL
MODEL 2
REMARK VINA RESULT:      -9.1      3.035      9.157
REMARK  11 active torsions:
REMARK  status: ('A' for Active; 'I' for Inactive)
REMARK    1  A    between atoms: O_2  and  C_22 
REMARK    2  A    between atoms: C_26  and  O_5 
REMARK    3  A    between atoms: O_5  and  C_36 
REMARK    4  A    between atoms: O_7  and  C_37 
REMARK    5  A    between atoms: O_7  and  C_38 
REMARK    6  A    between atoms: O_9  and  C_51 
REMARK    7  A    between atoms: C_31  and  N_12 
REMARK       I    between atoms: N_12  and  C_38 
REMARK    8  A    between atoms: N_17  and  C_53 
REMARK    9  A    between atoms: N_17  and  C_55 
REMARK   10  A    between atoms: C_18  and  C_22 
REMARK   11  A    between atoms: C_46  and  C_50 
ROOT
HETATM    1  O   UNK N   1      30.117  14.896   4.395  0.00  0.00    -0.271 OA
HETATM    2  O   UNK N   1      28.008  14.116   1.589  0.00  0.00    -0.271 OA
HETATM    3  N   UNK N   1      31.162  16.374   3.092  0.00  0.00    -0.340 N 
HETATM    4  N   UNK N   1      27.740  15.249   3.494  0.00  0.00    -0.334 N 
HETATM    5  C   UNK N   1      32.402  16.263   3.831  0.00  0.00     0.126 A 
HETATM    6  C   UNK N   1      32.915  14.827   4.109  0.00  0.00     0.050 A 
HETATM    7  C   UNK N   1      33.624  15.755   3.122  0.00  0.00     0.054 A 
HETATM    8  C   UNK N   1      32.611  13.559   3.345  0.00  0.00    -0.023 C 
HETATM    9  C   UNK N   1      28.682  16.256   3.104  0.00  0.00     0.181 C 
HETATM   10  C   UNK N   1      30.042  15.752   3.519  0.00  0.00     0.241 C 
HETATM   11  C   UNK N   1      28.380  17.434   3.997  0.00  0.00     0.069 C 
HETATM   12  C   UNK N   1      27.614  16.867   5.183  0.00  0.00     0.149 C 
HETATM   13  C   UNK N   1      27.268  15.402   4.843  0.00  0.00     0.159 C 
HETATM   14  C   UNK N   1      31.769  13.444   2.314  0.00  0.00    -0.030 C 
HETATM   15  C   UNK N   1      31.560  12.111   1.661  0.00  0.00     0.027 C 
HETATM   16  C   UNK N   1      27.607  14.116   2.747  0.00  0.00     0.243 C 
HETATM   17  C   UNK N   1      27.155  12.809   3.315  0.00  0.00     0.179 C 
HETATM   18  C   UNK N   1      31.098  11.075   2.682  0.00  0.00     0.004 C 
HETATM   19  C   UNK N   1      28.204  11.724   3.492  0.00  0.00     0.035 C 
HETATM   20  C   UNK N   1      29.861  10.329   2.205  0.00  0.00     0.000 C 
HETATM   21  C   UNK N   1      28.658  11.252   2.116  0.00  0.00     0.002 C 
HETATM   22  H   UNK N   1      31.135  16.910   2.267  0.00  0.00     0.163 HD
ENDROOT
BRANCH  12  23
HETATM   23  O   UNK N   1      26.540  17.717   5.402  0.00  0.00    -0.343 OA
BRANCH  23  24
HETATM   24  C   UNK N   1      25.214  17.494   5.200  0.00  0.00     0.084 A 
HETATM   25  C   UNK N   1      24.484  18.406   4.418  0.00  0.00     0.024 A 
HETATM   26  C   UNK N   1      23.094  18.239   4.295  0.00  0.00     0.048 A 
HETATM   27  C   UNK N   1      25.100  19.491   3.780  0.00  0.00     0.019 A 
HETATM   28  N   UNK N   1      22.481  17.227   4.928  0.00  0.00    -0.353 N 
HETATM   29  C   UNK N   1      22.334  19.131   3.551  0.00  0.00     0.067 A 
HETATM   30  C   UNK N   1      23.159  16.298   5.638  0.00  0.00     0.062 A 
ATOM     31  HN  UNK N   1      21.465  17.155   4.871  1.00  0.00     0.166 HD
HETATM   32  C   UNK N   1      24.538  16.400   5.779  0.00  0.00     0.069 A 
HETATM   33  C   UNK N   1      22.937  20.206   2.912  0.00  0.00     0.070 A 
HETATM   34  C   UNK N   1      24.330  20.386   3.026  0.00  0.00     0.038 A 
BRANCH  30  35
HETATM   35  C   UNK N   1      22.361  15.311   6.321  0.00  0.00     0.067 A 
HETATM   36  N   UNK N   1      22.696  13.995   6.145  0.00  0.00    -0.335 N 
HETATM   37  C   UNK N   1      22.060  13.185   6.992  0.00  0.00     0.145 A 
ATOM     38  HN  UNK N   1      23.362  13.671   5.443  1.00  0.00     0.168 HD
HETATM   39  S   UNK N   1      21.139  14.085   8.025  0.00  0.00    -0.064 SA
HETATM   40  C   UNK N   1      21.445  15.585   7.358  0.00  0.00     0.085 A 
BRANCH  37  41
HETATM   41  N   UNK N   1      22.366  11.815   7.061  0.00  0.00    -0.367 N 
HETATM   42  H   UNK N   1      21.688  11.148   6.808  0.00  0.00     0.162 HD
BRANCH  41  43
HETATM   43  C   UNK N   1      23.659  11.386   7.499  0.00  0.00     0.075 C 
HETATM   44  C   UNK N   1      23.797  11.639   8.981  0.00  0.00     0.032 C 
HETATM   45  C   UNK N   1      23.786   9.898   7.226  0.00  0.00     0.032 C 
ENDBRANCH  41  43
ENDBRANCH  37  41
ENDBRANCH  30  35
BRANCH  33  46
HETATM   46  O   UNK N   1      22.157  21.055   2.207  0.00  0.00    -0.356 OA
HETATM   47  C   UNK N   1      20.832  20.811   1.932  0.00  0.00     0.210 C 
ENDBRANCH  33  46
ENDBRANCH  23  24
ENDBRANCH  12  23
BRANCH  17  48
HETATM   48  N   UNK N   1      25.959  12.684   4.108  0.00  0.00    -0.324 N 
HETATM   49  C   UNK N   1      24.774  12.530   3.477  0.00  0.00     0.361 C 
HETATM   50  O   UNK N   1      23.762  12.335   4.143  0.00  0.00    -0.238 OA
HETATM   51  H   UNK N   1      26.004  12.711   5.091  0.00  0.00     0.165 HD
BRANCH  49  52
HETATM   52  O   UNK N   1      24.719  12.579   2.116  0.00  0.00    -0.299 OA
BRANCH  52  53
HETATM   53  C   UNK N   1      24.329  13.641   1.320  0.00  0.00     0.133 C 
HETATM   54  C   UNK N   1      23.112  13.315   0.474  0.00  0.00     0.032 C 
HETATM   55  C   UNK N   1      22.014  14.271   0.908  0.00  0.00     0.002 C 
HETATM   56  C   UNK N   1      22.487  14.924   2.187  0.00  0.00     0.002 C 
HETATM   57  C   UNK N   1      23.997  14.878   2.128  0.00  0.00     0.032 C 
ENDBRANCH  52  53
ENDBRANCH  49  52
ENDBRANCH  17  48
BRANCH   5  58
HETATM   58  C   UNK N   1      32.492  17.126   5.062  0.00  0.00     0.170 C 
HETATM   59  O   UNK N   1      33.485  17.811   5.254  0.00  0.00    -0.648 OA
BRANCH  58  60
HETATM   60  O   UNK N   1      31.492  17.144   5.962  0.00  0.00    -0.774 OA
HETATM   61  H   UNK N   1      31.267  16.459   6.561  0.00  0.00     0.167 HD
ENDBRANCH  58  60
ENDBRANCH   5  58
TORSDOF 11
ENDMDL
MODEL 3
REMARK VINA RESULT:      -8.8      3.213     10.129
REMARK  11 active torsions:
REMARK  status: ('A' for Active; 'I' for Inactive)
REMARK    1  A    between atoms: O_2  and  C_22 
REMARK    2  A    between atoms: C_26  and  O_5 
REMARK    3  A    between atoms: O_5  and  C_36 
REMARK    4  A    between atoms: O_7  and  C_37 
REMARK    5  A    between atoms: O_7  and  C_38 
REMARK    6  A    between atoms: O_9  and  C_51 
REMARK    7  A    between atoms: C_31  and  N_12 
REMARK       I    between atoms: N_12  and  C_38 
REMARK    8  A    between atoms: N_17  and  C_53 
REMARK    9  A    between atoms: N_17  and  C_55 
REMARK   10  A    between atoms: C_18  and  C_22 
REMARK   11  A    between atoms: C_46  and  C_50 
ROOT
HETATM    1  O   UNK N   1      30.553  15.615   6.611  0.00  0.00    -0.271 OA
HETATM    2  O   UNK N   1      31.685  15.339   3.209  0.00  0.00    -0.271 OA
HETATM    3  N   UNK N   1      31.742  17.496   6.765  0.00  0.00    -0.340 N 
HETATM    4  N   UNK N   1      29.757  15.899   4.187  0.00  0.00    -0.334 N 
HETATM    5  C   UNK N   1      31.932  17.349   8.193  0.00  0.00     0.126 A 
HETATM    6  C   UNK N   1      32.421  15.963   8.686  0.00  0.00     0.050 A 
HETATM    7  C   UNK N   1      33.327  17.195   8.726  0.00  0.00     0.054 A 
HETATM    8  C   UNK N   1      33.182  14.910   7.916  0.00  0.00    -0.023 C 
HETATM    9  C   UNK N   1      30.322  17.079   4.772  0.00  0.00     0.181 C 
HETATM   10  C   UNK N   1      30.938  16.654   6.082  0.00  0.00     0.241 C 
HETATM   11  C   UNK N   1      29.135  17.940   5.127  0.00  0.00     0.069 C 
HETATM   12  C   UNK N   1      27.942  16.996   5.180  0.00  0.00     0.149 C 
HETATM   13  C   UNK N   1      28.411  15.638   4.616  0.00  0.00     0.159 C 
HETATM   14  C   UNK N   1      33.511  14.964   6.622  0.00  0.00    -0.030 C 
HETATM   15  C   UNK N   1      34.260  13.831   5.990  0.00  0.00     0.027 C 
HETATM   16  C   UNK N   1      30.568  14.991   3.572  0.00  0.00     0.243 C 
HETATM   17  C   UNK N   1      30.237  13.537   3.469  0.00  0.00     0.179 C 
HETATM   18  C   UNK N   1      33.502  12.518   6.163  0.00  0.00     0.004 C 
HETATM   19  C   UNK N   1      31.017  12.578   4.354  0.00  0.00     0.035 C 
HETATM   20  C   UNK N   1      33.355  11.776   4.842  0.00  0.00     0.000 C 
HETATM   21  C   UNK N   1      32.463  12.538   3.876  0.00  0.00     0.002 C 
HETATM   22  H   UNK N   1      32.206  18.221   6.286  0.00  0.00     0.163 HD
ENDROOT
BRANCH  12  23
HETATM   23  O   UNK N   1      26.911  17.624   4.496  0.00  0.00    -0.343 OA
BRANCH  23  24
HETATM   24  C   UNK N   1      25.568  17.474   4.643  0.00  0.00     0.084 A 
HETATM   25  C   UNK N   1      24.712  18.443   4.090  0.00  0.00     0.024 A 
HETATM   26  C   UNK N   1      23.331  18.351   4.331  0.00  0.00     0.048 A 
HETATM   27  C   UNK N   1      25.202  19.512   3.329  0.00  0.00     0.019 A 
HETATM   28  N   UNK N   1      22.847  17.354   5.088  0.00  0.00    -0.353 N 
HETATM   29  C   UNK N   1      22.456  19.300   3.822  0.00  0.00     0.067 A 
HETATM   30  C   UNK N   1      23.632  16.373   5.585  0.00  0.00     0.062 A 
ATOM     31  HN  UNK N   1      21.848  17.335   5.296  1.00  0.00     0.166 HD
HETATM   32  C   UNK N   1      25.005  16.401   5.363  0.00  0.00     0.069 A 
HETATM   33  C   UNK N   1      22.932  20.360   3.062  0.00  0.00     0.070 A 
HETATM   34  C   UNK N   1      24.315  20.466   2.812  0.00  0.00     0.038 A 
BRANCH  30  35
HETATM   35  C   UNK N   1      22.984  15.409   6.438  0.00  0.00     0.067 A 
HETATM   36  N   UNK N   1      23.764  14.427   6.988  0.00  0.00    -0.335 N 
HETATM   37  C   UNK N   1      23.128  13.736   7.936  0.00  0.00     0.145 A 
ATOM     38  HN  UNK N   1      24.726  14.244   6.704  1.00  0.00     0.168 HD
HETATM   39  S   UNK N   1      21.627  14.381   8.170  0.00  0.00    -0.064 SA
HETATM   40  C   UNK N   1      21.685  15.542   6.971  0.00  0.00     0.085 A 
BRANCH  37  41
HETATM   41  N   UNK N   1      23.798  12.776   8.713  0.00  0.00    -0.367 N 
HETATM   42  H   UNK N   1      24.452  12.173   8.290  0.00  0.00     0.162 HD
BRANCH  41  43
HETATM   43  C   UNK N   1      23.533  12.668  10.115  0.00  0.00     0.075 C 
HETATM   44  C   UNK N   1      22.533  11.562  10.354  0.00  0.00     0.032 C 
HETATM   45  C   UNK N   1      24.833  12.334  10.823  0.00  0.00     0.032 C 
ENDBRANCH  41  43
ENDBRANCH  37  41
ENDBRANCH  30  35
BRANCH  33  46
HETATM   46  O   UNK N   1      22.045  21.267   2.596  0.00  0.00    -0.356 OA
HETATM   47  C   UNK N   1      20.769  20.941   2.203  0.00  0.00     0.210 C 
ENDBRANCH  33  46
ENDBRANCH  23  24
ENDBRANCH  12  23
BRANCH  17  48
HETATM   48  N   UNK N   1      28.970  13.066   2.970  0.00  0.00    -0.324 N 
HETATM   49  C   UNK N   1      28.875  12.708   1.670  0.00  0.00     0.361 C 
HETATM   50  O   UNK N   1      27.827  12.225   1.257  0.00  0.00    -0.238 OA
HETATM   51  H   UNK N   1      28.188  13.006   3.564  0.00  0.00     0.165 HD
BRANCH  49  52
HETATM   52  O   UNK N   1      29.945  12.876   0.842  0.00  0.00    -0.299 OA
BRANCH  52  53
HETATM   53  C   UNK N   1      30.782  11.901   0.329  0.00  0.00     0.133 C 
HETATM   54  C   UNK N   1      30.733  10.614   1.132  0.00  0.00     0.032 C 
HETATM   55  C   UNK N   1      30.218   9.538   0.194  0.00  0.00     0.002 C 
HETATM   56  C   UNK N   1      29.687  10.248  -1.032  0.00  0.00     0.002 C 
HETATM   57  C   UNK N   1      30.451  11.549  -1.105  0.00  0.00     0.032 C 
ENDBRANCH  52  53
ENDBRANCH  49  52
ENDBRANCH  17  48
BRANCH   5  58
HETATM   58  C   UNK N   1      30.803  17.868   9.045  0.00  0.00     0.170 C 
HETATM   59  O   UNK N   1      30.555  19.065   9.064  0.00  0.00    -0.648 OA
BRANCH  58  60
HETATM   60  O   UNK N   1      30.068  17.027   9.794  0.00  0.00    -0.774 OA
HETATM   61  H   UNK N   1      29.580  16.287   9.489  0.00  0.00     0.167 HD
ENDBRANCH  58  60
ENDBRANCH   5  58
TORSDOF 11
ENDMDL
MODEL 4
REMARK VINA RESULT:      -8.6      9.441     12.988
REMARK  11 active torsions:
REMARK  status: ('A' for Active; 'I' for Inactive)
REMARK    1  A    between atoms: O_2  and  C_22 
REMARK    2  A    between atoms: C_26  and  O_5 
REMARK    3  A    between atoms: O_5  and  C_36 
REMARK    4  A    between atoms: O_7  and  C_37 
REMARK    5  A    between atoms: O_7  and  C_38 
REMARK    6  A    between atoms: O_9  and  C_51 
REMARK    7  A    between atoms: C_31  and  N_12 
REMARK       I    between atoms: N_12  and  C_38 
REMARK    8  A    between atoms: N_17  and  C_53 
REMARK    9  A    between atoms: N_17  and  C_55 
REMARK   10  A    between atoms: C_18  and  C_22 
REMARK   11  A    between atoms: C_46  and  C_50 
ROOT
HETATM    1  O   UNK N   1      35.026  14.822   8.521  0.00  0.00    -0.271 OA
HETATM    2  O   UNK N   1      32.856  12.053   9.265  0.00  0.00    -0.271 OA
HETATM    3  N   UNK N   1      33.432  16.172   9.303  0.00  0.00    -0.340 N 
HETATM    4  N   UNK N   1      34.706  12.896  10.187  0.00  0.00    -0.334 N 
HETATM    5  C   UNK N   1      33.855  17.279   8.472  0.00  0.00     0.126 A 
HETATM    6  C   UNK N   1      34.077  16.969   6.969  0.00  0.00     0.050 A 
HETATM    7  C   UNK N   1      32.900  17.821   7.447  0.00  0.00     0.054 A 
HETATM    8  C   UNK N   1      33.478  15.855   6.144  0.00  0.00    -0.023 C 
HETATM    9  C   UNK N   1      34.047  14.116  10.550  0.00  0.00     0.181 C 
HETATM   10  C   UNK N   1      34.149  15.030   9.354  0.00  0.00     0.241 C 
HETATM   11  C   UNK N   1      34.923  14.723  11.619  0.00  0.00     0.069 C 
HETATM   12  C   UNK N   1      36.287  14.070  11.456  0.00  0.00     0.149 C 
HETATM   13  C   UNK N   1      36.119  12.911  10.450  0.00  0.00     0.159 C 
HETATM   14  C   UNK N   1      32.688  14.877   6.597  0.00  0.00    -0.030 C 
HETATM   15  C   UNK N   1      32.177  13.828   5.655  0.00  0.00     0.027 C 
HETATM   16  C   UNK N   1      34.075  11.997   9.380  0.00  0.00     0.243 C 
HETATM   17  C   UNK N   1      34.804  11.048   8.483  0.00  0.00     0.179 C 
HETATM   18  C   UNK N   1      33.333  13.124   4.951  0.00  0.00     0.004 C 
HETATM   19  C   UNK N   1      34.781  11.339   6.992  0.00  0.00     0.035 C 
HETATM   20  C   UNK N   1      33.209  11.611   5.042  0.00  0.00     0.000 C 
HETATM   21  C   UNK N   1      33.364  11.128   6.474  0.00  0.00     0.002 C 
HETATM   22  H   UNK N   1      32.610  16.254   9.840  0.00  0.00     0.163 HD
ENDROOT
BRANCH  12  23
HETATM   23  O   UNK N   1      36.713  13.722  12.729  0.00  0.00    -0.343 OA
BRANCH  23  24
HETATM   24  C   UNK N   1      36.813  12.489  13.294  0.00  0.00     0.084 A 
HETATM   25  C   UNK N   1      36.345  12.304  14.607  0.00  0.00     0.024 A 
HETATM   26  C   UNK N   1      36.543  11.062  15.233  0.00  0.00     0.048 A 
HETATM   27  C   UNK N   1      35.712  13.333  15.317  0.00  0.00     0.019 A 
HETATM   28  N   UNK N   1      37.179  10.076  14.581  0.00  0.00    -0.353 N 
HETATM   29  C   UNK N   1      36.118  10.846  16.536  0.00  0.00     0.067 A 
HETATM   30  C   UNK N   1      37.588  10.199  13.299  0.00  0.00     0.062 A 
ATOM     31  HN  UNK N   1      37.362   9.200  15.072  1.00  0.00     0.166 HD
HETATM   32  C   UNK N   1      37.402  11.399  12.622  0.00  0.00     0.069 A 
HETATM   33  C   UNK N   1      35.485  11.858  17.245  0.00  0.00     0.070 A 
HETATM   34  C   UNK N   1      35.279  13.110  16.631  0.00  0.00     0.038 A 
BRANCH  30  35
HETATM   35  C   UNK N   1      38.320   9.084  12.754  0.00  0.00     0.067 A 
HETATM   36  N   UNK N   1      38.647   9.131  11.425  0.00  0.00    -0.335 N 
HETATM   37  C   UNK N   1      39.515   8.181  11.075  0.00  0.00     0.145 A 
ATOM     38  HN  UNK N   1      38.268   9.819  10.774  1.00  0.00     0.168 HD
HETATM   39  S   UNK N   1      39.958   7.323  12.414  0.00  0.00    -0.064 SA
HETATM   40  C   UNK N   1      38.960   8.084  13.515  0.00  0.00     0.085 A 
BRANCH  37  41
HETATM   41  N   UNK N   1      40.076   8.143   9.787  0.00  0.00    -0.367 N 
HETATM   42  H   UNK N   1      40.187   7.281   9.325  0.00  0.00     0.162 HD
BRANCH  41  43
HETATM   43  C   UNK N   1      40.489   9.354   9.143  0.00  0.00     0.075 C 
HETATM   44  C   UNK N   1      41.964   9.276   8.828  0.00  0.00     0.032 C 
HETATM   45  C   UNK N   1      39.704   9.500   7.853  0.00  0.00     0.032 C 
ENDBRANCH  41  43
ENDBRANCH  37  41
ENDBRANCH  30  35
BRANCH  33  46
HETATM   46  O   UNK N   1      35.097  11.608  18.516  0.00  0.00    -0.356 OA
HETATM   47  C   UNK N   1      35.251  12.508  19.543  0.00  0.00     0.210 C 
ENDBRANCH  33  46
ENDBRANCH  23  24
ENDBRANCH  12  23
BRANCH  17  48
HETATM   48  N   UNK N   1      35.868  10.200   8.958  0.00  0.00    -0.324 N 
HETATM   49  C   UNK N   1      35.587   8.914   9.262  0.00  0.00     0.361 C 
HETATM   50  O   UNK N   1      36.501   8.161   9.583  0.00  0.00    -0.238 OA
HETATM   51  H   UNK N   1      36.782  10.551   9.059  0.00  0.00     0.165 HD
BRANCH  49  52
HETATM   52  O   UNK N   1      34.301   8.467   9.197  0.00  0.00    -0.299 OA
BRANCH  52  53
HETATM   53  C   UNK N   1      33.419   8.264  10.244  0.00  0.00     0.133 C 
HETATM   54  C   UNK N   1      32.005   8.697   9.904  0.00  0.00     0.032 C 
HETATM   55  C   UNK N   1      31.139   7.452   9.982  0.00  0.00     0.002 C 
HETATM   56  C   UNK N   1      32.082   6.272  10.061  0.00  0.00     0.002 C 
HETATM   57  C   UNK N   1      33.354   6.814  10.672  0.00  0.00     0.032 C 
ENDBRANCH  52  53
ENDBRANCH  49  52
ENDBRANCH  17  48
BRANCH   5  58
HETATM   58  C   UNK N   1      34.980  18.108   9.034  0.00  0.00     0.170 C 
HETATM   59  O   UNK N   1      35.581  17.726  10.027  0.00  0.00    -0.648 OA
BRANCH  58  60
HETATM   60  O   UNK N   1      35.327  19.273   8.458  0.00  0.00    -0.774 OA
HETATM   61  H   UNK N   1      35.030  20.127   8.702  0.00  0.00     0.167 HD
ENDBRANCH  58  60
ENDBRANCH   5  58
TORSDOF 11
ENDMDL
MODEL 5
REMARK VINA RESULT:      -8.6      3.371     10.498
REMARK  11 active torsions:
REMARK  status: ('A' for Active; 'I' for Inactive)
REMARK    1  A    between atoms: O_2  and  C_22 
REMARK    2  A    between atoms: C_26  and  O_5 
REMARK    3  A    between atoms: O_5  and  C_36 
REMARK    4  A    between atoms: O_7  and  C_37 
REMARK    5  A    between atoms: O_7  and  C_38 
REMARK    6  A    between atoms: O_9  and  C_51 
REMARK    7  A    between atoms: C_31  and  N_12 
REMARK       I    between atoms: N_12  and  C_38 
REMARK    8  A    between atoms: N_17  and  C_53 
REMARK    9  A    between atoms: N_17  and  C_55 
REMARK   10  A    between atoms: C_18  and  C_22 
REMARK   11  A    between atoms: C_46  and  C_50 
ROOT
HETATM    1  O   UNK N   1      29.902  15.695   6.476  0.00  0.00    -0.271 OA
HETATM    2  O   UNK N   1      30.964  15.247   3.069  0.00  0.00    -0.271 OA
HETATM    3  N   UNK N   1      31.126  17.559   6.523  0.00  0.00    -0.340 N 
HETATM    4  N   UNK N   1      29.065  15.885   4.057  0.00  0.00    -0.334 N 
HETATM    5  C   UNK N   1      31.341  17.473   7.952  0.00  0.00     0.126 A 
HETATM    6  C   UNK N   1      31.815  16.102   8.499  0.00  0.00     0.050 A 
HETATM    7  C   UNK N   1      32.743  17.317   8.466  0.00  0.00     0.054 A 
HETATM    8  C   UNK N   1      32.543  15.001   7.763  0.00  0.00    -0.023 C 
HETATM    9  C   UNK N   1      29.662  17.079   4.578  0.00  0.00     0.181 C 
HETATM   10  C   UNK N   1      30.295  16.702   5.894  0.00  0.00     0.241 C 
HETATM   11  C   UNK N   1      28.496  17.976   4.915  0.00  0.00     0.069 C 
HETATM   12  C   UNK N   1      27.289  17.058   5.033  0.00  0.00     0.149 C 
HETATM   13  C   UNK N   1      27.723  15.668   4.521  0.00  0.00     0.159 C 
HETATM   14  C   UNK N   1      32.848  14.992   6.462  0.00  0.00    -0.030 C 
HETATM   15  C   UNK N   1      33.565  13.818   5.867  0.00  0.00     0.027 C 
HETATM   16  C   UNK N   1      29.848  14.936   3.468  0.00  0.00     0.243 C 
HETATM   17  C   UNK N   1      29.490  13.484   3.437  0.00  0.00     0.179 C 
HETATM   18  C   UNK N   1      32.788  12.528   6.113  0.00  0.00     0.004 C 
HETATM   19  C   UNK N   1      30.270  12.552   4.350  0.00  0.00     0.035 C 
HETATM   20  C   UNK N   1      32.603  11.731   4.830  0.00  0.00     0.000 C 
HETATM   21  C   UNK N   1      31.706  12.464   3.848  0.00  0.00     0.002 C 
HETATM   22  H   UNK N   1      31.593  18.253   6.003  0.00  0.00     0.163 HD
ENDROOT
BRANCH  12  23
HETATM   23  O   UNK N   1      26.256  17.673   4.340  0.00  0.00    -0.343 OA
BRANCH  23  24
HETATM   24  C   UNK N   1      24.915  17.599   4.555  0.00  0.00     0.084 A 
HETATM   25  C   UNK N   1      24.076  18.543   3.937  0.00  0.00     0.024 A 
HETATM   26  C   UNK N   1      22.704  18.537   4.240  0.00  0.00     0.048 A 
HETATM   27  C   UNK N   1      24.574  19.504   3.048  0.00  0.00     0.019 A 
HETATM   28  N   UNK N   1      22.213  17.646   5.116  0.00  0.00    -0.353 N 
HETATM   29  C   UNK N   1      21.845  19.466   3.670  0.00  0.00     0.067 A 
HETATM   30  C   UNK N   1      22.980  16.688   5.683  0.00  0.00     0.062 A 
ATOM     31  HN  UNK N   1      21.225  17.694   5.364  1.00  0.00     0.166 HD
HETATM   32  C   UNK N   1      24.342  16.632   5.405  0.00  0.00     0.069 A 
HETATM   33  C   UNK N   1      22.330  20.420   2.784  0.00  0.00     0.070 A 
HETATM   34  C   UNK N   1      23.704  20.438   2.470  0.00  0.00     0.038 A 
BRANCH  30  35
HETATM   35  C   UNK N   1      22.332  15.848   6.658  0.00  0.00     0.067 A 
HETATM   36  N   UNK N   1      21.431  16.439   7.503  0.00  0.00    -0.335 N 
HETATM   37  C   UNK N   1      20.720  15.551   8.199  0.00  0.00     0.145 A 
ATOM     38  HN  UNK N   1      21.316  17.449   7.588  1.00  0.00     0.168 HD
HETATM   39  S   UNK N   1      21.132  14.025   7.723  0.00  0.00    -0.064 SA
HETATM   40  C   UNK N   1      22.339  14.438   6.645  0.00  0.00     0.085 A 
BRANCH  37  41
HETATM   41  N   UNK N   1      19.654  15.952   9.020  0.00  0.00    -0.367 N 
HETATM   42  H   UNK N   1      19.447  15.445   9.839  0.00  0.00     0.162 HD
BRANCH  41  43
HETATM   43  C   UNK N   1      18.865  17.096   8.673  0.00  0.00     0.075 C 
HETATM   44  C   UNK N   1      17.428  16.851   9.064  0.00  0.00     0.032 C 
HETATM   45  C   UNK N   1      19.399  18.293   9.437  0.00  0.00     0.032 C 
ENDBRANCH  41  43
ENDBRANCH  37  41
ENDBRANCH  30  35
BRANCH  33  46
HETATM   46  O   UNK N   1      21.461  21.312   2.260  0.00  0.00    -0.356 OA
HETATM   47  C   UNK N   1      20.687  21.052   1.154  0.00  0.00     0.210 C 
ENDBRANCH  33  46
ENDBRANCH  23  24
ENDBRANCH  12  23
BRANCH  17  48
HETATM   48  N   UNK N   1      28.206  13.015   2.983  0.00  0.00    -0.324 N 
HETATM   49  C   UNK N   1      28.107  12.491   1.742  0.00  0.00     0.361 C 
HETATM   50  O   UNK N   1      27.039  12.009   1.378  0.00  0.00    -0.238 OA
HETATM   51  H   UNK N   1      27.415  13.075   3.566  0.00  0.00     0.165 HD
BRANCH  49  52
HETATM   52  O   UNK N   1      29.193  12.492   0.917  0.00  0.00    -0.299 OA
BRANCH  52  53
HETATM   53  C   UNK N   1      29.671  11.450   0.142  0.00  0.00     0.133 C 
HETATM   54  C   UNK N   1      30.409  11.936  -1.091  0.00  0.00     0.032 C 
HETATM   55  C   UNK N   1      31.839  11.441  -0.963  0.00  0.00     0.002 C 
HETATM   56  C   UNK N   1      32.002  10.948   0.458  0.00  0.00     0.002 C 
HETATM   57  C   UNK N   1      30.615  10.547   0.906  0.00  0.00     0.032 C 
ENDBRANCH  52  53
ENDBRANCH  49  52
ENDBRANCH  17  48
BRANCH   5  58
HETATM   58  C   UNK N   1      30.238  18.050   8.801  0.00  0.00     0.170 C 
HETATM   59  O   UNK N   1      30.437  19.064   9.452  0.00  0.00    -0.648 OA
BRANCH  58  60
HETATM   60  O   UNK N   1      29.033  17.453   8.858  0.00  0.00    -0.774 OA
HETATM   61  H   UNK N   1      28.639  16.926   8.190  0.00  0.00     0.167 HD
ENDBRANCH  58  60
ENDBRANCH   5  58
TORSDOF 11
ENDMDL
MODEL 6
REMARK VINA RESULT:      -8.5      3.165      6.730
REMARK  11 active torsions:
REMARK  status: ('A' for Active; 'I' for Inactive)
REMARK    1  A    between atoms: O_2  and  C_22 
REMARK    2  A    between atoms: C_26  and  O_5 
REMARK    3  A    between atoms: O_5  and  C_36 
REMARK    4  A    between atoms: O_7  and  C_37 
REMARK    5  A    between atoms: O_7  and  C_38 
REMARK    6  A    between atoms: O_9  and  C_51 
REMARK    7  A    between atoms: C_31  and  N_12 
REMARK       I    between atoms: N_12  and  C_38 
REMARK    8  A    between atoms: N_17  and  C_53 
REMARK    9  A    between atoms: N_17  and  C_55 
REMARK   10  A    between atoms: C_18  and  C_22 
REMARK   11  A    between atoms: C_46  and  C_50 
ROOT
HETATM    1  O   UNK N   1      22.810  14.066   3.313  0.00  0.00    -0.271 OA
HETATM    2  O   UNK N   1      24.829  17.011   2.886  0.00  0.00    -0.271 OA
HETATM    3  N   UNK N   1      22.599  13.991   1.094  0.00  0.00    -0.340 N 
HETATM    4  N   UNK N   1      25.243  14.880   3.409  0.00  0.00    -0.334 N 
HETATM    5  C   UNK N   1      21.322  13.314   1.162  0.00  0.00     0.126 A 
HETATM    6  C   UNK N   1      20.266  13.924   2.120  0.00  0.00     0.050 A 
HETATM    7  C   UNK N   1      20.109  13.999   0.601  0.00  0.00     0.054 A 
HETATM    8  C   UNK N   1      20.166  15.346   2.620  0.00  0.00    -0.023 C 
HETATM    9  C   UNK N   1      24.819  14.414   2.122  0.00  0.00     0.181 C 
HETATM   10  C   UNK N   1      23.326  14.213   2.210  0.00  0.00     0.241 C 
HETATM   11  C   UNK N   1      25.421  13.036   1.994  0.00  0.00     0.069 C 
HETATM   12  C   UNK N   1      25.741  12.591   3.413  0.00  0.00     0.149 C 
HETATM   13  C   UNK N   1      25.545  13.818   4.329  0.00  0.00     0.159 C 
HETATM   14  C   UNK N   1      21.034  16.331   2.372  0.00  0.00    -0.030 C 
HETATM   15  C   UNK N   1      20.808  17.695   2.951  0.00  0.00     0.027 C 
HETATM   16  C   UNK N   1      25.035  16.180   3.763  0.00  0.00     0.243 C 
HETATM   17  C   UNK N   1      24.871  16.627   5.181  0.00  0.00     0.179 C 
HETATM   18  C   UNK N   1      20.694  17.626   4.471  0.00  0.00     0.004 C 
HETATM   19  C   UNK N   1      23.474  17.017   5.633  0.00  0.00     0.035 C 
HETATM   20  C   UNK N   1      21.606  18.637   5.149  0.00  0.00     0.000 C 
HETATM   21  C   UNK N   1      23.070  18.302   4.921  0.00  0.00     0.002 C 
HETATM   22  H   UNK N   1      22.943  14.293   0.222  0.00  0.00     0.163 HD
ENDROOT
BRANCH  12  23
HETATM   23  O   UNK N   1      27.016  12.047   3.378  0.00  0.00    -0.343 OA
BRANCH  23  24
HETATM   24  C   UNK N   1      28.169  12.591   2.904  0.00  0.00     0.084 A 
HETATM   25  C   UNK N   1      28.808  11.980   1.811  0.00  0.00     0.024 A 
HETATM   26  C   UNK N   1      30.052  12.474   1.386  0.00  0.00     0.048 A 
HETATM   27  C   UNK N   1      28.250  10.877   1.152  0.00  0.00     0.019 A 
HETATM   28  N   UNK N   1      30.620  13.508   2.027  0.00  0.00    -0.353 N 
HETATM   29  C   UNK N   1      30.727  11.885   0.326  0.00  0.00     0.067 A 
HETATM   30  C   UNK N   1      30.006  14.156   3.043  0.00  0.00     0.062 A 
ATOM     31  HN  UNK N   1      31.548  13.816   1.739  1.00  0.00     0.166 HD
HETATM   32  C   UNK N   1      28.764  13.724   3.494  0.00  0.00     0.069 A 
HETATM   33  C   UNK N   1      30.180  10.794  -0.337  0.00  0.00     0.070 A 
HETATM   34  C   UNK N   1      28.931  10.288   0.078  0.00  0.00     0.038 A 
BRANCH  30  35
HETATM   35  C   UNK N   1      30.766  15.200   3.683  0.00  0.00     0.067 A 
HETATM   36  N   UNK N   1      30.212  15.804   4.780  0.00  0.00    -0.335 N 
HETATM   37  C   UNK N   1      31.078  16.580   5.433  0.00  0.00     0.145 A 
ATOM     38  HN  UNK N   1      29.241  15.672   5.067  1.00  0.00     0.168 HD
HETATM   39  S   UNK N   1      32.561  16.467   4.717  0.00  0.00    -0.064 SA
HETATM   40  C   UNK N   1      32.130  15.470   3.448  0.00  0.00     0.085 A 
BRANCH  37  41
HETATM   41  N   UNK N   1      30.742  17.179   6.658  0.00  0.00    -0.367 N 
HETATM   42  H   UNK N   1      29.986  17.810   6.704  0.00  0.00     0.162 HD
BRANCH  41  43
HETATM   43  C   UNK N   1      31.492  16.879   7.839  0.00  0.00     0.075 C 
HETATM   44  C   UNK N   1      32.544  17.941   8.049  0.00  0.00     0.032 C 
HETATM   45  C   UNK N   1      30.540  16.871   9.021  0.00  0.00     0.032 C 
ENDBRANCH  41  43
ENDBRANCH  37  41
ENDBRANCH  30  35
BRANCH  33  46
HETATM   46  O   UNK N   1      30.876  10.245  -1.357  0.00  0.00    -0.356 OA
HETATM   47  C   UNK N   1      30.659  10.564  -2.676  0.00  0.00     0.210 C 
ENDBRANCH  33  46
ENDBRANCH  23  24
ENDBRANCH  12  23
BRANCH  17  48
HETATM   48  N   UNK N   1      25.807  16.269   6.216  0.00  0.00    -0.324 N 
HETATM   49  C   UNK N   1      27.079  16.716   6.126  0.00  0.00     0.361 C 
HETATM   50  O   UNK N   1      27.860  16.491   7.045  0.00  0.00    -0.238 OA
HETATM   51  H   UNK N   1      25.525  15.709   6.976  0.00  0.00     0.165 HD
BRANCH  49  52
HETATM   52  O   UNK N   1      27.473  17.419   5.026  0.00  0.00    -0.299 OA
BRANCH  52  53
HETATM   53  C   UNK N   1      27.842  18.751   4.958  0.00  0.00     0.133 C 
HETATM   54  C   UNK N   1      27.255  19.454   3.748  0.00  0.00     0.032 C 
HETATM   55  C   UNK N   1      26.355  20.555   4.281  0.00  0.00     0.002 C 
HETATM   56  C   UNK N   1      26.183  20.297   5.761  0.00  0.00     0.002 C 
HETATM   57  C   UNK N   1      27.417  19.533   6.182  0.00  0.00     0.032 C 
ENDBRANCH  52  53
ENDBRANCH  49  52
ENDBRANCH  17  48
BRANCH   5  58
HETATM   58  C   UNK N   1      21.398  11.817   1.311  0.00  0.00     0.170 C 
HETATM   59  O   UNK N   1      20.887  11.094   0.469  0.00  0.00    -0.648 OA
BRANCH  58  60
HETATM   60  O   UNK N   1      22.016  11.264   2.370  0.00  0.00    -0.774 OA
HETATM   61  H   UNK N   1      22.941  11.208   2.510  0.00  0.00     0.167 HD
ENDBRANCH  58  60
ENDBRANCH   5  58
TORSDOF 11
ENDMDL
MODEL 7
REMARK VINA RESULT:      -8.5      9.117     12.922
REMARK  11 active torsions:
REMARK  status: ('A' for Active; 'I' for Inactive)
REMARK    1  A    between atoms: O_2  and  C_22 
REMARK    2  A    between atoms: C_26  and  O_5 
REMARK    3  A    between atoms: O_5  and  C_36 
REMARK    4  A    between atoms: O_7  and  C_37 
REMARK    5  A    between atoms: O_7  and  C_38 
REMARK    6  A    between atoms: O_9  and  C_51 
REMARK    7  A    between atoms: C_31  and  N_12 
REMARK       I    between atoms: N_12  and  C_38 
REMARK    8  A    between atoms: N_17  and  C_53 
REMARK    9  A    between atoms: N_17  and  C_55 
REMARK   10  A    between atoms: C_18  and  C_22 
REMARK   11  A    between atoms: C_46  and  C_50 
ROOT
HETATM    1  O   UNK N   1      34.903  14.842   8.194  0.00  0.00    -0.271 OA
HETATM    2  O   UNK N   1      32.878  11.945   8.860  0.00  0.00    -0.271 OA
HETATM    3  N   UNK N   1      33.435  16.035   9.374  0.00  0.00    -0.340 N 
HETATM    4  N   UNK N   1      34.839  12.703   9.612  0.00  0.00    -0.334 N 
HETATM    5  C   UNK N   1      33.727  17.254   8.649  0.00  0.00     0.126 A 
HETATM    6  C   UNK N   1      33.729  17.153   7.101  0.00  0.00     0.050 A 
HETATM    7  C   UNK N   1      32.631  17.904   7.855  0.00  0.00     0.054 A 
HETATM    8  C   UNK N   1      33.021  16.145   6.227  0.00  0.00    -0.023 C 
HETATM    9  C   UNK N   1      34.234  13.847  10.229  0.00  0.00     0.181 C 
HETATM   10  C   UNK N   1      34.157  14.914   9.166  0.00  0.00     0.241 C 
HETATM   11  C   UNK N   1      35.253  14.327  11.233  0.00  0.00     0.069 C 
HETATM   12  C   UNK N   1      36.582  13.734  10.788  0.00  0.00     0.149 C 
HETATM   13  C   UNK N   1      36.275  12.717   9.669  0.00  0.00     0.159 C 
HETATM   14  C   UNK N   1      32.310  15.096   6.652  0.00  0.00    -0.030 C 
HETATM   15  C   UNK N   1      31.672  14.171   5.660  0.00  0.00     0.027 C 
HETATM   16  C   UNK N   1      34.101  11.904   8.790  0.00  0.00     0.243 C 
HETATM   17  C   UNK N   1      34.696  11.102   7.677  0.00  0.00     0.179 C 
HETATM   18  C   UNK N   1      32.717  13.596   4.708  0.00  0.00     0.004 C 
HETATM   19  C   UNK N   1      34.454  11.589   6.258  0.00  0.00     0.035 C 
HETATM   20  C   UNK N   1      32.614  12.081   4.609  0.00  0.00     0.000 C 
HETATM   21  C   UNK N   1      32.978  11.415   5.926  0.00  0.00     0.002 C 
HETATM   22  H   UNK N   1      32.699  16.025  10.029  0.00  0.00     0.163 HD
ENDROOT
BRANCH  12  23
HETATM   23  O   UNK N   1      37.191  13.230  11.928  0.00  0.00    -0.343 OA
BRANCH  23  24
HETATM   24  C   UNK N   1      36.871  12.127  12.655  0.00  0.00     0.084 A 
HETATM   25  C   UNK N   1      36.461  12.289  13.990  0.00  0.00     0.024 A 
HETATM   26  C   UNK N   1      36.233  11.147  14.777  0.00  0.00     0.048 A 
HETATM   27  C   UNK N   1      36.301  13.556  14.565  0.00  0.00     0.019 A 
HETATM   28  N   UNK N   1      36.415   9.924  14.255  0.00  0.00    -0.353 N 
HETATM   29  C   UNK N   1      35.850  11.264  16.106  0.00  0.00     0.067 A 
HETATM   30  C   UNK N   1      36.750   9.731  12.959  0.00  0.00     0.062 A 
ATOM     31  HN  UNK N   1      36.297   9.110  14.857  1.00  0.00     0.166 HD
HETATM   32  C   UNK N   1      36.970  10.823  12.127  0.00  0.00     0.069 A 
HETATM   33  C   UNK N   1      35.684  12.516  16.682  0.00  0.00     0.070 A 
HETATM   34  C   UNK N   1      35.909  13.671  15.905  0.00  0.00     0.038 A 
BRANCH  30  35
HETATM   35  C   UNK N   1      36.982   8.366  12.558  0.00  0.00     0.067 A 
HETATM   36  N   UNK N   1      35.886   7.589  12.296  0.00  0.00    -0.335 N 
HETATM   37  C   UNK N   1      36.202   6.433  11.712  0.00  0.00     0.145 A 
ATOM     38  HN  UNK N   1      34.930   7.866  12.523  1.00  0.00     0.168 HD
HETATM   39  S   UNK N   1      37.828   6.387  11.433  0.00  0.00    -0.064 SA
HETATM   40  C   UNK N   1      38.226   7.841  12.152  0.00  0.00     0.085 A 
BRANCH  37  41
HETATM   41  N   UNK N   1      35.210   5.556  11.243  0.00  0.00    -0.367 N 
HETATM   42  H   UNK N   1      35.342   5.075  10.394  0.00  0.00     0.162 HD
BRANCH  41  43
HETATM   43  C   UNK N   1      34.007   5.358  11.994  0.00  0.00     0.075 C 
HETATM   44  C   UNK N   1      32.911   4.884  11.070  0.00  0.00     0.032 C 
HETATM   45  C   UNK N   1      34.271   4.299  13.049  0.00  0.00     0.032 C 
ENDBRANCH  41  43
ENDBRANCH  37  41
ENDBRANCH  30  35
BRANCH  33  46
HETATM   46  O   UNK N   1      35.321  12.583  17.982  0.00  0.00    -0.356 OA
HETATM   47  C   UNK N   1      35.356  11.503  18.832  0.00  0.00     0.210 C 
ENDBRANCH  33  46
ENDBRANCH  23  24
ENDBRANCH  12  23
BRANCH  17  48
HETATM   48  N   UNK N   1      35.821  10.224   7.874  0.00  0.00    -0.324 N 
HETATM   49  C   UNK N   1      35.712   9.219   8.770  0.00  0.00     0.361 C 
HETATM   50  O   UNK N   1      36.631   8.414   8.882  0.00  0.00    -0.238 OA
HETATM   51  H   UNK N   1      36.654  10.355   7.367  0.00  0.00     0.165 HD
BRANCH  49  52
HETATM   52  O   UNK N   1      34.583   9.103   9.525  0.00  0.00    -0.299 OA
BRANCH  52  53
HETATM   53  C   UNK N   1      33.622   8.109   9.467  0.00  0.00     0.133 C 
HETATM   54  C   UNK N   1      32.331   8.510  10.158  0.00  0.00     0.032 C 
HETATM   55  C   UNK N   1      31.251   8.510   9.091  0.00  0.00     0.002 C 
HETATM   56  C   UNK N   1      31.958   8.416   7.757  0.00  0.00     0.002 C 
HETATM   57  C   UNK N   1      33.271   7.725   8.046  0.00  0.00     0.032 C 
ENDBRANCH  52  53
ENDBRANCH  49  52
ENDBRANCH  17  48
BRANCH   5  58
HETATM   58  C   UNK N   1      34.918  18.027   9.150  0.00  0.00     0.170 C 
HETATM   59  O   UNK N   1      35.548  17.619  10.115  0.00  0.00    -0.648 OA
BRANCH  58  60
HETATM   60  O   UNK N   1      35.294  19.172   8.552  0.00  0.00    -0.774 OA
HETATM   61  H   UNK N   1      35.699  19.255   7.711  0.00  0.00     0.167 HD
ENDBRANCH  58  60
ENDBRANCH   5  58
TORSDOF 11
ENDMDL
MODEL 8
REMARK VINA RESULT:      -8.4      3.744     10.965
REMARK  11 active torsions:
REMARK  status: ('A' for Active; 'I' for Inactive)
REMARK    1  A    between atoms: O_2  and  C_22 
REMARK    2  A    between atoms: C_26  and  O_5 
REMARK    3  A    between atoms: O_5  and  C_36 
REMARK    4  A    between atoms: O_7  and  C_37 
REMARK    5  A    between atoms: O_7  and  C_38 
REMARK    6  A    between atoms: O_9  and  C_51 
REMARK    7  A    between atoms: C_31  and  N_12 
REMARK       I    between atoms: N_12  and  C_38 
REMARK    8  A    between atoms: N_17  and  C_53 
REMARK    9  A    between atoms: N_17  and  C_55 
REMARK   10  A    between atoms: C_18  and  C_22 
REMARK   11  A    between atoms: C_46  and  C_50 
ROOT
HETATM    1  O   UNK N   1      30.395  15.845   6.356  0.00  0.00    -0.271 OA
HETATM    2  O   UNK N   1      32.685  16.750   3.736  0.00  0.00    -0.271 OA
HETATM    3  N   UNK N   1      29.859  18.003   6.518  0.00  0.00    -0.340 N 
HETATM    4  N   UNK N   1      30.692  15.745   3.808  0.00  0.00    -0.334 N 
HETATM    5  C   UNK N   1      29.492  17.887   7.913  0.00  0.00     0.126 A 
HETATM    6  C   UNK N   1      30.509  17.167   8.837  0.00  0.00     0.050 A 
HETATM    7  C   UNK N   1      30.264  18.674   8.933  0.00  0.00     0.054 A 
HETATM    8  C   UNK N   1      31.997  16.998   8.640  0.00  0.00    -0.023 C 
HETATM    9  C   UNK N   1      30.041  16.928   4.288  0.00  0.00     0.181 C 
HETATM   10  C   UNK N   1      30.176  16.912   5.791  0.00  0.00     0.241 C 
HETATM   11  C   UNK N   1      28.577  16.708   3.996  0.00  0.00     0.069 C 
HETATM   12  C   UNK N   1      28.413  15.205   3.819  0.00  0.00     0.149 C 
HETATM   13  C   UNK N   1      29.830  14.596   3.769  0.00  0.00     0.159 C 
HETATM   14  C   UNK N   1      32.699  17.388   7.572  0.00  0.00    -0.030 C 
HETATM   15  C   UNK N   1      34.176  17.140   7.513  0.00  0.00     0.027 C 
HETATM   16  C   UNK N   1      32.053  15.700   3.738  0.00  0.00     0.243 C 
HETATM   17  C   UNK N   1      32.836  14.430   3.840  0.00  0.00     0.179 C 
HETATM   18  C   UNK N   1      34.482  15.654   7.680  0.00  0.00     0.004 C 
HETATM   19  C   UNK N   1      33.598  14.181   5.131  0.00  0.00     0.035 C 
HETATM   20  C   UNK N   1      35.412  15.146   6.589  0.00  0.00     0.000 C 
HETATM   21  C   UNK N   1      34.740  15.184   5.227  0.00  0.00     0.002 C 
HETATM   22  H   UNK N   1      29.875  18.892   6.093  0.00  0.00     0.163 HD
ENDROOT
BRANCH  12  23
HETATM   23  O   UNK N   1      27.626  15.024   2.692  0.00  0.00    -0.343 OA
BRANCH  23  24
HETATM   24  C   UNK N   1      26.380  14.490   2.592  0.00  0.00     0.084 A 
HETATM   25  C   UNK N   1      26.237  13.195   2.062  0.00  0.00     0.024 A 
HETATM   26  C   UNK N   1      24.945  12.681   1.858  0.00  0.00     0.048 A 
HETATM   27  C   UNK N   1      27.345  12.416   1.708  0.00  0.00     0.019 A 
HETATM   28  N   UNK N   1      23.870  13.427   2.158  0.00  0.00    -0.353 N 
HETATM   29  C   UNK N   1      24.760  11.417   1.315  0.00  0.00     0.067 A 
HETATM   30  C   UNK N   1      23.971  14.650   2.724  0.00  0.00     0.062 A 
ATOM     31  HN  UNK N   1      22.942  13.057   1.951  1.00  0.00     0.166 HD
HETATM   32  C   UNK N   1      25.223  15.203   2.968  0.00  0.00     0.069 A 
HETATM   33  C   UNK N   1      25.853  10.636   0.966  0.00  0.00     0.070 A 
HETATM   34  C   UNK N   1      27.155  11.138   1.165  0.00  0.00     0.038 A 
BRANCH  30  35
HETATM   35  C   UNK N   1      22.734  15.363   2.924  0.00  0.00     0.067 A 
HETATM   36  N   UNK N   1      22.806  16.603   3.501  0.00  0.00    -0.335 N 
HETATM   37  C   UNK N   1      21.654  17.271   3.428  0.00  0.00     0.145 A 
ATOM     38  HN  UNK N   1      23.649  16.974   3.938  1.00  0.00     0.168 HD
HETATM   39  S   UNK N   1      20.556  16.379   2.577  0.00  0.00    -0.064 SA
HETATM   40  C   UNK N   1      21.497  15.020   2.340  0.00  0.00     0.085 A 
BRANCH  37  41
HETATM   41  N   UNK N   1      21.559  18.610   3.842  0.00  0.00    -0.367 N 
HETATM   42  H   UNK N   1      21.592  18.830   4.802  0.00  0.00     0.162 HD
BRANCH  41  43
HETATM   43  C   UNK N   1      21.414  19.657   2.876  0.00  0.00     0.075 C 
HETATM   44  C   UNK N   1      20.276  20.562   3.285  0.00  0.00     0.032 C 
HETATM   45  C   UNK N   1      22.704  20.454   2.838  0.00  0.00     0.032 C 
ENDBRANCH  41  43
ENDBRANCH  37  41
ENDBRANCH  30  35
BRANCH  33  46
HETATM   46  O   UNK N   1      25.627   9.415   0.430  0.00  0.00    -0.356 OA
HETATM   47  C   UNK N   1      26.629   8.603  -0.045  0.00  0.00     0.210 C 
ENDBRANCH  33  46
ENDBRANCH  23  24
ENDBRANCH  12  23
BRANCH  17  48
HETATM   48  N   UNK N   1      32.541  13.274   3.032  0.00  0.00    -0.324 N 
HETATM   49  C   UNK N   1      33.187  13.121   1.855  0.00  0.00     0.361 C 
HETATM   50  O   UNK N   1      33.008  12.099   1.202  0.00  0.00    -0.238 OA
HETATM   51  H   UNK N   1      31.882  12.608   3.332  0.00  0.00     0.165 HD
BRANCH  49  52
HETATM   52  O   UNK N   1      34.034  14.095   1.416  0.00  0.00    -0.299 OA
BRANCH  52  53
HETATM   53  C   UNK N   1      35.415  14.050   1.347  0.00  0.00     0.133 C 
HETATM   54  C   UNK N   1      36.008  13.010   2.280  0.00  0.00     0.032 C 
HETATM   55  C   UNK N   1      36.727  12.000   1.402  0.00  0.00     0.002 C 
HETATM   56  C   UNK N   1      36.297  12.278  -0.022  0.00  0.00     0.002 C 
HETATM   57  C   UNK N   1      35.915  13.740  -0.047  0.00  0.00     0.032 C 
ENDBRANCH  52  53
ENDBRANCH  49  52
ENDBRANCH  17  48
BRANCH   5  58
HETATM   58  C   UNK N   1      28.086  17.409   8.168  0.00  0.00     0.170 C 
HETATM   59  O   UNK N   1      27.516  16.721   7.335  0.00  0.00    -0.648 OA
BRANCH  58  60
HETATM   60  O   UNK N   1      27.445  17.741   9.303  0.00  0.00    -0.774 OA
HETATM   61  H   UNK N   1      27.127  17.150   9.958  0.00  0.00     0.167 HD
ENDBRANCH  58  60
ENDBRANCH   5  58
TORSDOF 11
ENDMDL
MODEL 9
REMARK VINA RESULT:      -8.4      6.772     13.358
REMARK  11 active torsions:
REMARK  status: ('A' for Active; 'I' for Inactive)
REMARK    1  A    between atoms: O_2  and  C_22 
REMARK    2  A    between atoms: C_26  and  O_5 
REMARK    3  A    between atoms: O_5  and  C_36 
REMARK    4  A    between atoms: O_7  and  C_37 
REMARK    5  A    between atoms: O_7  and  C_38 
REMARK    6  A    between atoms: O_9  and  C_51 
REMARK    7  A    between atoms: C_31  and  N_12 
REMARK       I    between atoms: N_12  and  C_38 
REMARK    8  A    between atoms: N_17  and  C_53 
REMARK    9  A    between atoms: N_17  and  C_55 
REMARK   10  A    between atoms: C_18  and  C_22 
REMARK   11  A    between atoms: C_46  and  C_50 
ROOT
HETATM    1  O   UNK N   1      34.960  11.629  11.658  0.00  0.00    -0.271 OA
HETATM    2  O   UNK N   1      36.107  10.028   8.649  0.00  0.00    -0.271 OA
HETATM    3  N   UNK N   1      37.094  12.059  12.142  0.00  0.00    -0.340 N 
HETATM    4  N   UNK N   1      35.101  11.966   9.117  0.00  0.00    -0.334 N 
HETATM    5  C   UNK N   1      36.847  12.076  13.569  0.00  0.00     0.126 A 
HETATM    6  C   UNK N   1      36.043  10.881  14.145  0.00  0.00     0.050 A 
HETATM    7  C   UNK N   1      37.534  11.060  14.435  0.00  0.00     0.054 A 
HETATM    8  C   UNK N   1      35.892   9.491  13.574  0.00  0.00    -0.023 C 
HETATM    9  C   UNK N   1      36.234  12.452   9.848  0.00  0.00     0.181 C 
HETATM   10  C   UNK N   1      36.076  11.954  11.263  0.00  0.00     0.241 C 
HETATM   11  C   UNK N   1      36.042  13.948   9.905  0.00  0.00     0.069 C 
HETATM   12  C   UNK N   1      34.564  14.185   9.638  0.00  0.00     0.149 C 
HETATM   13  C   UNK N   1      33.961  12.838   9.186  0.00  0.00     0.159 C 
HETATM   14  C   UNK N   1      36.381   9.062  12.406  0.00  0.00    -0.030 C 
HETATM   15  C   UNK N   1      36.139   7.651  11.964  0.00  0.00     0.027 C 
HETATM   16  C   UNK N   1      35.062  10.665   8.711  0.00  0.00     0.243 C 
HETATM   17  C   UNK N   1      33.788   9.911   8.501  0.00  0.00     0.179 C 
HETATM   18  C   UNK N   1      34.643   7.349  11.915  0.00  0.00     0.004 C 
HETATM   19  C   UNK N   1      33.417   8.863   9.538  0.00  0.00     0.035 C 
HETATM   20  C   UNK N   1      34.240   6.725  10.587  0.00  0.00     0.000 C 
HETATM   21  C   UNK N   1      34.406   7.708   9.441  0.00  0.00     0.002 C 
HETATM   22  H   UNK N   1      38.019  12.125  11.810  0.00  0.00     0.163 HD
ENDROOT
BRANCH  12  23
HETATM   23  O   UNK N   1      34.490  15.228   8.726  0.00  0.00    -0.343 OA
BRANCH  23  24
HETATM   24  C   UNK N   1      33.467  15.576   7.901  0.00  0.00     0.084 A 
HETATM   25  C   UNK N   1      33.602  15.348   6.520  0.00  0.00     0.024 A 
HETATM   26  C   UNK N   1      32.595  15.802   5.652  0.00  0.00     0.048 A 
HETATM   27  C   UNK N   1      34.725  14.705   5.984  0.00  0.00     0.019 A 
HETATM   28  N   UNK N   1      31.528  16.453   6.143  0.00  0.00    -0.353 N 
HETATM   29  C   UNK N   1      32.701  15.619   4.281  0.00  0.00     0.067 A 
HETATM   30  C   UNK N   1      31.337  16.636   7.469  0.00  0.00     0.062 A 
ATOM     31  HN  UNK N   1      30.835  16.822   5.493  1.00  0.00     0.166 HD
HETATM   32  C   UNK N   1      32.291  16.191   8.377  0.00  0.00     0.069 A 
HETATM   33  C   UNK N   1      33.808  14.977   3.741  0.00  0.00     0.070 A 
HETATM   34  C   UNK N   1      34.827  14.516   4.599  0.00  0.00     0.038 A 
BRANCH  30  35
HETATM   35  C   UNK N   1      30.184  17.414   7.845  0.00  0.00     0.067 A 
HETATM   36  N   UNK N   1      29.350  17.833   6.843  0.00  0.00    -0.335 N 
HETATM   37  C   UNK N   1      28.203  18.334   7.303  0.00  0.00     0.145 A 
ATOM     38  HN  UNK N   1      29.581  17.768   5.851  1.00  0.00     0.168 HD
HETATM   39  S   UNK N   1      28.164  18.189   8.948  0.00  0.00    -0.064 SA
HETATM   40  C   UNK N   1      29.692  17.552   9.160  0.00  0.00     0.085 A 
BRANCH  37  41
HETATM   41  N   UNK N   1      27.161  18.694   6.433  0.00  0.00    -0.367 N 
HETATM   42  H   UNK N   1      26.376  18.108   6.338  0.00  0.00     0.162 HD
BRANCH  41  43
HETATM   43  C   UNK N   1      27.237  19.910   5.681  0.00  0.00     0.075 C 
HETATM   44  C   UNK N   1      26.222  19.872   4.563  0.00  0.00     0.032 C 
HETATM   45  C   UNK N   1      26.921  21.067   6.611  0.00  0.00     0.032 C 
ENDBRANCH  41  43
ENDBRANCH  37  41
ENDBRANCH  30  35
BRANCH  33  46
HETATM   46  O   UNK N   1      33.876  14.829   2.400  0.00  0.00    -0.356 OA
HETATM   47  C   UNK N   1      34.648  13.873   1.784  0.00  0.00     0.210 C 
ENDBRANCH  33  46
ENDBRANCH  23  24
ENDBRANCH  12  23
BRANCH  17  48
HETATM   48  N   UNK N   1      32.713  10.422   7.689  0.00  0.00    -0.324 N 
HETATM   49  C   UNK N   1      32.600   9.990   6.414  0.00  0.00     0.361 C 
HETATM   50  O   UNK N   1      31.639  10.351   5.742  0.00  0.00    -0.238 OA
HETATM   51  H   UNK N   1      32.073  11.073   8.056  0.00  0.00     0.165 HD
BRANCH  49  52
HETATM   52  O   UNK N   1      33.543   9.152   5.896  0.00  0.00    -0.299 OA
BRANCH  52  53
HETATM   53  C   UNK N   1      34.429   9.407   4.864  0.00  0.00     0.133 C 
HETATM   54  C   UNK N   1      35.015  10.805   4.935  0.00  0.00     0.032 C 
HETATM   55  C   UNK N   1      36.514  10.638   5.116  0.00  0.00     0.002 C 
HETATM   56  C   UNK N   1      36.751   9.182   5.453  0.00  0.00     0.002 C 
HETATM   57  C   UNK N   1      35.588   8.434   4.843  0.00  0.00     0.032 C 
ENDBRANCH  52  53
ENDBRANCH  49  52
ENDBRANCH  17  48
BRANCH   5  58
HETATM   58  C   UNK N   1      36.348  13.388  14.116  0.00  0.00     0.170 C 
HETATM   59  O   UNK N   1      37.031  14.013  14.914  0.00  0.00    -0.648 OA
BRANCH  58  60
HETATM   60  O   UNK N   1      35.152  13.876  13.743  0.00  0.00    -0.774 OA
HETATM   61  H   UNK N   1      34.325  13.440  13.809  0.00  0.00     0.167 HD
ENDBRANCH  58  60
ENDBRANCH   5  58
TORSDOF 11
ENDMDL
