MODEL 1
REMARK VINA RESULT:      -7.6      0.000      0.000
REMARK  7 active torsions:
REMARK  status: ('A' for Active; 'I' for Inactive)
REMARK    1  A    between atoms: C_5  and  N_8 
REMARK    2  A    between atoms: N_8  and  C_9 
REMARK    3  A    between atoms: C_15  and  N_21 
REMARK    4  A    between atoms: N_21  and  C_22 
REMARK    5  A    between atoms: C_25  and  O_29 
REMARK    6  A    between atoms: O_29  and  C_30 
REMARK    7  A    between atoms: C_30  and  C_31 
ROOT
HETATM    1  C   UNK N   1      21.397  13.887   8.566  0.00  0.00     0.036 A 
HETATM    2  C   UNK N   1      20.309  14.572   9.142  0.00  0.00     0.032 A 
HETATM    3  C   UNK N   1      19.993  15.874   8.715  0.00  0.00     0.033 A 
HETATM    4  C   UNK N   1      20.754  16.483   7.709  0.00  0.00     0.047 A 
HETATM    5  C   UNK N   1      21.821  15.782   7.130  0.00  0.00     0.037 A 
HETATM    6  C   UNK N   1      22.141  14.500   7.571  0.00  0.00     0.047 A 
HETATM    7  C   UNK N   1      22.573  16.394   6.135  0.00  0.00     0.119 A 
HETATM    8  N   UNK N   1      22.273  17.665   5.751  0.00  0.00    -0.338 N 
ATOM      9  HN  UNK N   1      22.833  18.120   5.031  1.00  0.00     0.168 HD
HETATM   10  C   UNK N   1      21.231  18.336   6.320  0.00  0.00     0.182 A 
HETATM   11  N   UNK N   1      20.476  17.746   7.290  0.00  0.00    -0.352 N 
ATOM     12  HN  UNK N   1      19.696  18.257   7.704  1.00  0.00     0.166 HD
ENDROOT
BRANCH   7  13
HETATM   13  N   UNK N   1      23.647  15.674   5.548  0.00  0.00    -0.342 N 
HETATM   14  H   UNK N   1      23.424  14.878   5.013  0.00  0.00     0.167 HD
BRANCH  13  15
HETATM   15  C   UNK N   1      25.010  16.016   5.677  0.00  0.00     0.035 A 
HETATM   16  C   UNK N   1      25.747  15.453   6.724  0.00  0.00     0.032 A 
HETATM   17  C   UNK N   1      27.053  15.877   6.970  0.00  0.00     0.041 A 
HETATM   18  C   UNK N   1      27.627  16.882   6.173  0.00  0.00     0.091 A 
HETATM   19  C   UNK N   1      26.890  17.432   5.117  0.00  0.00     0.069 A 
HETATM   20  C   UNK N   1      25.586  17.006   4.876  0.00  0.00     0.056 A 
HETATM   21 Cl   UNK N   1      27.588  18.670   4.089  0.00  0.00    -0.081 Cl
BRANCH  18  22
HETATM   22  O   UNK N   1      28.875  17.342   6.406  0.00  0.00    -0.343 OA
BRANCH  22  23
HETATM   23  C   UNK N   1      29.332  17.764   7.632  0.00  0.00     0.240 C 
BRANCH  23  24
HETATM   24  C   UNK N   1      30.718  17.248   7.827  0.00  0.00     0.075 A 
HETATM   25  N   UNK N   1      31.617  17.783   8.685  0.00  0.00    -0.361 N 
HETATM   26  C   UNK N   1      32.829  17.125   8.649  0.00  0.00     0.096 A 
ATOM     27  HN  UNK N   1      31.421  18.581   9.288  1.00  0.00     0.165 HD
HETATM   28  C   UNK N   1      32.904  16.044   7.748  0.00  0.00     0.068 A 
HETATM   29  S   UNK N   1      31.413  15.979   7.035  0.00  0.00    -0.085 SA
ENDBRANCH  23  24
ENDBRANCH  22  23
ENDBRANCH  18  22
ENDBRANCH  13  15
ENDBRANCH   7  13
BRANCH   1  30
HETATM   30  N   UNK N   1      21.786  12.588   8.978  0.00  0.00    -0.322 N 
HETATM   31  H   UNK N   1      21.409  11.825   8.485  0.00  0.00     0.169 HD
BRANCH  30  32
HETATM   32  C   UNK N   1      22.677  12.301  10.043  0.00  0.00     0.220 A 
HETATM   33  O   UNK N   1      23.953  12.684  10.029  0.00  0.00    -0.320 OA
HETATM   34  C   UNK N   1      24.600  12.215  11.151  0.00  0.00     0.203 A 
HETATM   35  C   UNK N   1      23.502  11.423  11.900  0.00  0.00     0.105 A 
HETATM   36  C   UNK N   1      23.240  12.044  13.257  0.00  0.00     0.034 C 
HETATM   37  N   UNK N   1      22.360  11.603  11.052  0.00  0.00    -0.350 N 
ATOM     38  HN  UNK N   1      21.429  11.226  11.233  1.00  0.00     0.163 HD
ENDBRANCH  30  32
ENDBRANCH   1  30
TORSDOF 7
ENDMDL
MODEL 2
REMARK VINA RESULT:      -7.5      3.186      5.168
REMARK  7 active torsions:
REMARK  status: ('A' for Active; 'I' for Inactive)
REMARK    1  A    between atoms: C_5  and  N_8 
REMARK    2  A    between atoms: N_8  and  C_9 
REMARK    3  A    between atoms: C_15  and  N_21 
REMARK    4  A    between atoms: N_21  and  C_22 
REMARK    5  A    between atoms: C_25  and  O_29 
REMARK    6  A    between atoms: O_29  and  C_30 
REMARK    7  A    between atoms: C_30  and  C_31 
ROOT
HETATM    1  C   UNK N   1      23.387  16.934   5.002  0.00  0.00     0.036 A 
HETATM    2  C   UNK N   1      22.688  17.939   4.305  0.00  0.00     0.032 A 
HETATM    3  C   UNK N   1      23.381  19.045   3.783  0.00  0.00     0.033 A 
HETATM    4  C   UNK N   1      24.769  19.140   3.947  0.00  0.00     0.047 A 
HETATM    5  C   UNK N   1      25.455  18.123   4.624  0.00  0.00     0.037 A 
HETATM    6  C   UNK N   1      24.760  17.039   5.156  0.00  0.00     0.047 A 
HETATM    7  C   UNK N   1      26.832  18.224   4.785  0.00  0.00     0.119 A 
HETATM    8  N   UNK N   1      27.486  19.314   4.300  0.00  0.00    -0.338 N 
ATOM      9  HN  UNK N   1      28.494  19.397   4.430  1.00  0.00     0.168 HD
HETATM   10  C   UNK N   1      26.808  20.297   3.640  0.00  0.00     0.182 A 
HETATM   11  N   UNK N   1      25.460  20.206   3.463  0.00  0.00    -0.352 N 
ATOM     12  HN  UNK N   1      24.964  20.945   2.964  1.00  0.00     0.166 HD
ENDROOT
BRANCH   7  13
HETATM   13  N   UNK N   1      27.520  17.186   5.466  0.00  0.00    -0.342 N 
HETATM   14  H   UNK N   1      27.159  16.273   5.391  0.00  0.00     0.167 HD
BRANCH  13  15
HETATM   15  C   UNK N   1      28.684  17.367   6.244  0.00  0.00     0.035 A 
HETATM   16  C   UNK N   1      29.893  16.847   5.772  0.00  0.00     0.032 A 
HETATM   17  C   UNK N   1      31.032  16.877   6.578  0.00  0.00     0.041 A 
HETATM   18  C   UNK N   1      30.962  17.420   7.872  0.00  0.00     0.091 A 
HETATM   19  C   UNK N   1      29.752  17.953   8.334  0.00  0.00     0.069 A 
HETATM   20  C   UNK N   1      28.618  17.919   7.526  0.00  0.00     0.056 A 
HETATM   21 Cl   UNK N   1      29.640  18.660   9.935  0.00  0.00    -0.081 Cl
BRANCH  18  22
HETATM   22  O   UNK N   1      32.035  17.433   8.692  0.00  0.00    -0.343 OA
BRANCH  22  23
HETATM   23  C   UNK N   1      33.316  17.727   8.291  0.00  0.00     0.240 C 
BRANCH  23  24
HETATM   24  C   UNK N   1      34.266  16.880   9.070  0.00  0.00     0.075 A 
HETATM   25  N   UNK N   1      34.772  17.217  10.278  0.00  0.00    -0.361 N 
HETATM   26  C   UNK N   1      35.644  16.264  10.763  0.00  0.00     0.096 A 
ATOM     27  HN  UNK N   1      34.537  18.077  10.773  1.00  0.00     0.165 HD
HETATM   28  C   UNK N   1      35.840  15.143   9.930  0.00  0.00     0.068 A 
HETATM   29  S   UNK N   1      34.888  15.424   8.607  0.00  0.00    -0.085 SA
ENDBRANCH  23  24
ENDBRANCH  22  23
ENDBRANCH  18  22
ENDBRANCH  13  15
ENDBRANCH   7  13
BRANCH   1  30
HETATM   30  N   UNK N   1      22.739  15.815   5.581  0.00  0.00    -0.322 N 
HETATM   31  H   UNK N   1      22.955  14.927   5.215  0.00  0.00     0.169 HD
BRANCH  30  32
HETATM   32  C   UNK N   1      21.807  15.870   6.647  0.00  0.00     0.220 A 
HETATM   33  O   UNK N   1      21.957  15.162   7.765  0.00  0.00    -0.320 OA
HETATM   34  C   UNK N   1      20.875  15.355   8.596  0.00  0.00     0.203 A 
HETATM   35  C   UNK N   1      19.966  16.315   7.794  0.00  0.00     0.105 A 
HETATM   36  C   UNK N   1      19.790  17.620   8.541  0.00  0.00     0.034 C 
HETATM   37  N   UNK N   1      20.727  16.534   6.598  0.00  0.00    -0.350 N 
ATOM     38  HN  UNK N   1      20.444  17.135   5.824  1.00  0.00     0.163 HD
ENDBRANCH  30  32
ENDBRANCH   1  30
TORSDOF 7
ENDMDL
MODEL 3
REMARK VINA RESULT:      -7.5      5.431     10.162
REMARK  7 active torsions:
REMARK  status: ('A' for Active; 'I' for Inactive)
REMARK    1  A    between atoms: C_5  and  N_8 
REMARK    2  A    between atoms: N_8  and  C_9 
REMARK    3  A    between atoms: C_15  and  N_21 
REMARK    4  A    between atoms: N_21  and  C_22 
REMARK    5  A    between atoms: C_25  and  O_29 
REMARK    6  A    between atoms: O_29  and  C_30 
REMARK    7  A    between atoms: C_30  and  C_31 
ROOT
HETATM    1  C   UNK N   1      33.156  16.919   7.607  0.00  0.00     0.036 A 
HETATM    2  C   UNK N   1      34.244  16.553   6.791  0.00  0.00     0.032 A 
HETATM    3  C   UNK N   1      34.073  16.438   5.400  0.00  0.00     0.033 A 
HETATM    4  C   UNK N   1      32.822  16.699   4.827  0.00  0.00     0.047 A 
HETATM    5  C   UNK N   1      31.753  17.083   5.648  0.00  0.00     0.037 A 
HETATM    6  C   UNK N   1      31.924  17.177   7.027  0.00  0.00     0.047 A 
HETATM    7  C   UNK N   1      30.515  17.339   5.072  0.00  0.00     0.119 A 
HETATM    8  N   UNK N   1      30.356  17.196   3.728  0.00  0.00    -0.338 N 
ATOM      9  HN  UNK N   1      29.444  17.369   3.306  1.00  0.00     0.168 HD
HETATM   10  C   UNK N   1      31.404  16.824   2.939  0.00  0.00     0.182 A 
HETATM   11  N   UNK N   1      32.629  16.581   3.487  0.00  0.00    -0.352 N 
ATOM     12  HN  UNK N   1      33.406  16.308   2.885  1.00  0.00     0.166 HD
ENDROOT
BRANCH   7  13
HETATM   13  N   UNK N   1      29.439  17.735   5.910  0.00  0.00    -0.342 N 
HETATM   14  H   UNK N   1      29.632  17.874   6.865  0.00  0.00     0.167 HD
BRANCH  13  15
HETATM   15  C   UNK N   1      28.113  17.943   5.473  0.00  0.00     0.035 A 
HETATM   16  C   UNK N   1      27.153  16.965   5.753  0.00  0.00     0.032 A 
HETATM   17  C   UNK N   1      25.871  17.066   5.213  0.00  0.00     0.041 A 
HETATM   18  C   UNK N   1      25.544  18.146   4.376  0.00  0.00     0.091 A 
HETATM   19  C   UNK N   1      26.504  19.130   4.110  0.00  0.00     0.069 A 
HETATM   20  C   UNK N   1      27.784  19.024   4.650  0.00  0.00     0.056 A 
HETATM   21 Cl   UNK N   1      26.118  20.503   3.089  0.00  0.00    -0.081 Cl
BRANCH  18  22
HETATM   22  O   UNK N   1      24.324  18.256   3.807  0.00  0.00    -0.343 OA
BRANCH  22  23
HETATM   23  C   UNK N   1      23.139  18.255   4.504  0.00  0.00     0.240 C 
BRANCH  23  24
HETATM   24  C   UNK N   1      22.139  19.061   3.745  0.00  0.00     0.075 A 
HETATM   25  N   UNK N   1      20.813  18.799   3.715  0.00  0.00    -0.361 N 
HETATM   26  C   UNK N   1      20.122  19.687   2.917  0.00  0.00     0.096 A 
ATOM     27  HN  UNK N   1      20.374  18.031   4.224  1.00  0.00     0.165 HD
HETATM   28  C   UNK N   1      20.907  20.680   2.296  0.00  0.00     0.068 A 
HETATM   29  S   UNK N   1      22.454  20.374   2.796  0.00  0.00    -0.085 SA
ENDBRANCH  23  24
ENDBRANCH  22  23
ENDBRANCH  18  22
ENDBRANCH  13  15
ENDBRANCH   7  13
BRANCH   1  30
HETATM   30  N   UNK N   1      33.257  17.018   9.017  0.00  0.00    -0.322 N 
HETATM   31  H   UNK N   1      32.594  17.577   9.480  0.00  0.00     0.169 HD
BRANCH  30  32
HETATM   32  C   UNK N   1      34.237  16.375   9.813  0.00  0.00     0.220 A 
HETATM   33  O   UNK N   1      35.235  17.040  10.394  0.00  0.00    -0.320 OA
HETATM   34  C   UNK N   1      36.073  16.162  11.046  0.00  0.00     0.203 A 
HETATM   35  C   UNK N   1      35.444  14.778  10.761  0.00  0.00     0.105 A 
HETATM   36  C   UNK N   1      35.014  14.120  12.055  0.00  0.00     0.034 C 
HETATM   37  N   UNK N   1      34.291  15.119   9.979  0.00  0.00    -0.350 N 
ATOM     38  HN  UNK N   1      33.613  14.451   9.611  1.00  0.00     0.163 HD
ENDBRANCH  30  32
ENDBRANCH   1  30
TORSDOF 7
ENDMDL
MODEL 4
REMARK VINA RESULT:      -7.5      8.592     13.698
REMARK  7 active torsions:
REMARK  status: ('A' for Active; 'I' for Inactive)
REMARK    1  A    between atoms: C_5  and  N_8 
REMARK    2  A    between atoms: N_8  and  C_9 
REMARK    3  A    between atoms: C_15  and  N_21 
REMARK    4  A    between atoms: N_21  and  C_22 
REMARK    5  A    between atoms: C_25  and  O_29 
REMARK    6  A    between atoms: O_29  and  C_30 
REMARK    7  A    between atoms: C_30  and  C_31 
ROOT
HETATM    1  C   UNK N   1      33.758  13.975   8.874  0.00  0.00     0.036 A 
HETATM    2  C   UNK N   1      34.296  13.341   7.736  0.00  0.00     0.032 A 
HETATM    3  C   UNK N   1      35.650  12.962   7.716  0.00  0.00     0.033 A 
HETATM    4  C   UNK N   1      36.459  13.207   8.833  0.00  0.00     0.047 A 
HETATM    5  C   UNK N   1      35.906  13.819   9.966  0.00  0.00     0.037 A 
HETATM    6  C   UNK N   1      34.569  14.208   9.973  0.00  0.00     0.047 A 
HETATM    7  C   UNK N   1      36.715  14.059  11.070  0.00  0.00     0.119 A 
HETATM    8  N   UNK N   1      38.032  13.714  11.026  0.00  0.00    -0.338 N 
ATOM      9  HN  UNK N   1      38.630  13.903  11.830  1.00  0.00     0.168 HD
HETATM   10  C   UNK N   1      38.558  13.117   9.919  0.00  0.00     0.182 A 
HETATM   11  N   UNK N   1      37.774  12.863   8.833  0.00  0.00    -0.352 N 
ATOM     12  HN  UNK N   1      38.179  12.411   8.012  1.00  0.00     0.166 HD
ENDROOT
BRANCH   7  13
HETATM   13  N   UNK N   1      36.146  14.673  12.216  0.00  0.00    -0.342 N 
HETATM   14  H   UNK N   1      35.895  15.622  12.148  0.00  0.00     0.167 HD
BRANCH  13  15
HETATM   15  C   UNK N   1      35.914  14.021  13.447  0.00  0.00     0.035 A 
HETATM   16  C   UNK N   1      36.720  14.347  14.541  0.00  0.00     0.032 A 
HETATM   17  C   UNK N   1      36.617  13.623  15.729  0.00  0.00     0.041 A 
HETATM   18  C   UNK N   1      35.711  12.554  15.824  0.00  0.00     0.091 A 
HETATM   19  C   UNK N   1      34.894  12.241  14.729  0.00  0.00     0.069 A 
HETATM   20  C   UNK N   1      35.002  12.966  13.545  0.00  0.00     0.056 A 
HETATM   21 Cl   UNK N   1      33.736  10.927  14.825  0.00  0.00    -0.081 Cl
BRANCH  18  22
HETATM   22  O   UNK N   1      35.611  11.809  16.945  0.00  0.00    -0.343 OA
BRANCH  22  23
HETATM   23  C   UNK N   1      35.225  12.296  18.171  0.00  0.00     0.240 C 
BRANCH  23  24
HETATM   24  C   UNK N   1      35.237  11.176  19.156  0.00  0.00     0.075 A 
HETATM   25  N   UNK N   1      35.768  11.257  20.397  0.00  0.00    -0.361 N 
HETATM   26  C   UNK N   1      35.664  10.068  21.088  0.00  0.00     0.096 A 
ATOM     27  HN  UNK N   1      36.196  12.101  20.778  1.00  0.00     0.165 HD
HETATM   28  C   UNK N   1      35.039   9.014  20.390  0.00  0.00     0.068 A 
HETATM   29  S   UNK N   1      34.648   9.653  18.916  0.00  0.00    -0.085 SA
ENDBRANCH  23  24
ENDBRANCH  22  23
ENDBRANCH  18  22
ENDBRANCH  13  15
ENDBRANCH   7  13
BRANCH   1  30
HETATM   30  N   UNK N   1      32.411  14.410   8.940  0.00  0.00    -0.322 N 
HETATM   31  H   UNK N   1      31.753  13.790   9.329  0.00  0.00     0.169 HD
BRANCH  30  32
HETATM   32  C   UNK N   1      31.936  15.668   8.493  0.00  0.00     0.220 A 
HETATM   33  O   UNK N   1      31.406  15.842   7.283  0.00  0.00    -0.320 OA
HETATM   34  C   UNK N   1      31.093  17.170   7.090  0.00  0.00     0.203 A 
HETATM   35  C   UNK N   1      31.545  17.845   8.407  0.00  0.00     0.105 A 
HETATM   36  C   UNK N   1      30.358  18.468   9.111  0.00  0.00     0.034 C 
HETATM   37  N   UNK N   1      32.039  16.736   9.169  0.00  0.00    -0.350 N 
ATOM     38  HN  UNK N   1      32.416  16.795  10.115  1.00  0.00     0.163 HD
ENDBRANCH  30  32
ENDBRANCH   1  30
TORSDOF 7
ENDMDL
MODEL 5
REMARK VINA RESULT:      -7.4      2.944      4.085
REMARK  7 active torsions:
REMARK  status: ('A' for Active; 'I' for Inactive)
REMARK    1  A    between atoms: C_5  and  N_8 
REMARK    2  A    between atoms: N_8  and  C_9 
REMARK    3  A    between atoms: C_15  and  N_21 
REMARK    4  A    between atoms: N_21  and  C_22 
REMARK    5  A    between atoms: C_25  and  O_29 
REMARK    6  A    between atoms: O_29  and  C_30 
REMARK    7  A    between atoms: C_30  and  C_31 
ROOT
HETATM    1  C   UNK N   1      25.223  14.211   7.414  0.00  0.00     0.036 A 
HETATM    2  C   UNK N   1      24.443  13.616   6.403  0.00  0.00     0.032 A 
HETATM    3  C   UNK N   1      24.387  14.198   5.125  0.00  0.00     0.033 A 
HETATM    4  C   UNK N   1      25.116  15.363   4.855  0.00  0.00     0.047 A 
HETATM    5  C   UNK N   1      25.905  15.933   5.864  0.00  0.00     0.037 A 
HETATM    6  C   UNK N   1      25.941  15.362   7.134  0.00  0.00     0.047 A 
HETATM    7  C   UNK N   1      26.624  17.090   5.590  0.00  0.00     0.119 A 
HETATM    8  N   UNK N   1      26.537  17.659   4.357  0.00  0.00    -0.338 N 
ATOM      9  HN  UNK N   1      27.053  18.516   4.159  1.00  0.00     0.168 HD
HETATM   10  C   UNK N   1      25.768  17.094   3.382  0.00  0.00     0.182 A 
HETATM   11  N   UNK N   1      25.066  15.952   3.631  0.00  0.00    -0.352 N 
ATOM     12  HN  UNK N   1      24.498  15.537   2.893  1.00  0.00     0.166 HD
ENDROOT
BRANCH   7  13
HETATM   13  N   UNK N   1      27.426  17.656   6.615  0.00  0.00    -0.342 N 
HETATM   14  H   UNK N   1      26.986  18.257   7.260  0.00  0.00     0.167 HD
BRANCH  13  15
HETATM   15  C   UNK N   1      28.808  17.422   6.778  0.00  0.00     0.035 A 
HETATM   16  C   UNK N   1      29.342  17.426   8.070  0.00  0.00     0.032 A 
HETATM   17  C   UNK N   1      30.722  17.344   8.260  0.00  0.00     0.041 A 
HETATM   18  C   UNK N   1      31.580  17.270   7.150  0.00  0.00     0.091 A 
HETATM   19  C   UNK N   1      31.039  17.252   5.858  0.00  0.00     0.069 A 
HETATM   20  C   UNK N   1      29.662  17.335   5.674  0.00  0.00     0.056 A 
HETATM   21 Cl   UNK N   1      32.084  17.135   4.453  0.00  0.00    -0.081 Cl
BRANCH  18  22
HETATM   22  O   UNK N   1      32.922  17.226   7.295  0.00  0.00    -0.343 OA
BRANCH  22  23
HETATM   23  C   UNK N   1      33.626  17.942   8.234  0.00  0.00     0.240 C 
BRANCH  23  24
HETATM   24  C   UNK N   1      34.415  16.988   9.067  0.00  0.00     0.075 A 
HETATM   25  N   UNK N   1      34.936  17.285  10.279  0.00  0.00    -0.361 N 
HETATM   26  C   UNK N   1      35.640  16.228  10.818  0.00  0.00     0.096 A 
ATOM     27  HN  UNK N   1      34.822  18.187  10.741  1.00  0.00     0.165 HD
HETATM   28  C   UNK N   1      35.684  15.063  10.026  0.00  0.00     0.068 A 
HETATM   29  S   UNK N   1      34.820  15.440   8.667  0.00  0.00    -0.085 SA
ENDBRANCH  23  24
ENDBRANCH  22  23
ENDBRANCH  18  22
ENDBRANCH  13  15
ENDBRANCH   7  13
BRANCH   1  30
HETATM   30  N   UNK N   1      25.293  13.691   8.731  0.00  0.00    -0.322 N 
HETATM   31  H   UNK N   1      26.096  13.902   9.259  0.00  0.00     0.169 HD
BRANCH  30  32
HETATM   32  C   UNK N   1      24.298  12.893   9.348  0.00  0.00     0.220 A 
HETATM   33  O   UNK N   1      24.109  11.613   9.028  0.00  0.00    -0.320 OA
HETATM   34  C   UNK N   1      23.038  11.103   9.729  0.00  0.00     0.203 A 
HETATM   35  C   UNK N   1      22.540  12.308  10.560  0.00  0.00     0.105 A 
HETATM   36  C   UNK N   1      22.658  12.011  12.040  0.00  0.00     0.034 C 
HETATM   37  N   UNK N   1      23.466  13.340  10.193  0.00  0.00    -0.350 N 
ATOM     38  HN  UNK N   1      23.458  14.293  10.558  1.00  0.00     0.163 HD
ENDBRANCH  30  32
ENDBRANCH   1  30
TORSDOF 7
ENDMDL
MODEL 6
REMARK VINA RESULT:      -7.4      6.146      9.345
REMARK  7 active torsions:
REMARK  status: ('A' for Active; 'I' for Inactive)
REMARK    1  A    between atoms: C_5  and  N_8 
REMARK    2  A    between atoms: N_8  and  C_9 
REMARK    3  A    between atoms: C_15  and  N_21 
REMARK    4  A    between atoms: N_21  and  C_22 
REMARK    5  A    between atoms: C_25  and  O_29 
REMARK    6  A    between atoms: O_29  and  C_30 
REMARK    7  A    between atoms: C_30  and  C_31 
ROOT
HETATM    1  C   UNK N   1      29.301  16.113   5.298  0.00  0.00     0.036 A 
HETATM    2  C   UNK N   1      27.922  16.244   5.556  0.00  0.00     0.032 A 
HETATM    3  C   UNK N   1      27.483  16.834   6.753  0.00  0.00     0.033 A 
HETATM    4  C   UNK N   1      28.419  17.302   7.685  0.00  0.00     0.047 A 
HETATM    5  C   UNK N   1      29.787  17.185   7.407  0.00  0.00     0.037 A 
HETATM    6  C   UNK N   1      30.216  16.582   6.227  0.00  0.00     0.047 A 
HETATM    7  C   UNK N   1      30.710  17.650   8.337  0.00  0.00     0.119 A 
HETATM    8  N   UNK N   1      30.271  18.193   9.505  0.00  0.00    -0.338 N 
ATOM      9  HN  UNK N   1      30.947  18.521  10.194  1.00  0.00     0.168 HD
HETATM   10  C   UNK N   1      28.937  18.304   9.764  0.00  0.00     0.182 A 
HETATM   11  N   UNK N   1      28.019  17.864   8.856  0.00  0.00    -0.352 N 
ATOM     12  HN  UNK N   1      27.023  17.956   9.059  1.00  0.00     0.166 HD
ENDROOT
BRANCH   7  13
HETATM   13  N   UNK N   1      32.094  17.535   8.044  0.00  0.00    -0.342 N 
HETATM   14  H   UNK N   1      32.470  18.144   7.369  0.00  0.00     0.167 HD
BRANCH  13  15
HETATM   15  C   UNK N   1      32.971  16.609   8.650  0.00  0.00     0.035 A 
HETATM   16  C   UNK N   1      34.184  17.073   9.167  0.00  0.00     0.032 A 
HETATM   17  C   UNK N   1      35.136  16.170   9.641  0.00  0.00     0.041 A 
HETATM   18  C   UNK N   1      34.883  14.789   9.587  0.00  0.00     0.091 A 
HETATM   19  C   UNK N   1      33.660  14.330   9.081  0.00  0.00     0.069 A 
HETATM   20  C   UNK N   1      32.713  15.235   8.609  0.00  0.00     0.056 A 
HETATM   21 Cl   UNK N   1      33.305  12.613   9.024  0.00  0.00    -0.081 Cl
BRANCH  18  22
HETATM   22  O   UNK N   1      35.797  13.886  10.002  0.00  0.00    -0.343 OA
BRANCH  22  23
HETATM   23  C   UNK N   1      36.796  14.152  10.907  0.00  0.00     0.240 C 
BRANCH  23  24
HETATM   24  C   UNK N   1      36.317  13.779  12.270  0.00  0.00     0.075 A 
HETATM   25  N   UNK N   1      36.749  14.355  13.414  0.00  0.00    -0.361 N 
HETATM   26  C   UNK N   1      36.158  13.803  14.533  0.00  0.00     0.096 A 
ATOM     27  HN  UNK N   1      37.434  15.110  13.447  1.00  0.00     0.165 HD
HETATM   28  C   UNK N   1      35.236  12.768  14.281  0.00  0.00     0.068 A 
HETATM   29  S   UNK N   1      35.219  12.603  12.635  0.00  0.00    -0.085 SA
ENDBRANCH  23  24
ENDBRANCH  22  23
ENDBRANCH  18  22
ENDBRANCH  13  15
ENDBRANCH   7  13
BRANCH   1  30
HETATM   30  N   UNK N   1      29.804  15.497   4.126  0.00  0.00    -0.322 N 
HETATM   31  H   UNK N   1      29.165  15.004   3.563  0.00  0.00     0.169 HD
BRANCH  30  32
HETATM   32  C   UNK N   1      31.155  15.535   3.698  0.00  0.00     0.220 A 
HETATM   33  O   UNK N   1      31.736  16.654   3.267  0.00  0.00    -0.320 OA
HETATM   34  C   UNK N   1      33.024  16.389   2.853  0.00  0.00     0.203 A 
HETATM   35  C   UNK N   1      33.171  14.865   3.074  0.00  0.00     0.105 A 
HETATM   36  C   UNK N   1      34.263  14.585   4.085  0.00  0.00     0.034 C 
HETATM   37  N   UNK N   1      31.895  14.508   3.622  0.00  0.00    -0.350 N 
ATOM     38  HN  UNK N   1      31.622  13.568   3.909  1.00  0.00     0.163 HD
ENDBRANCH  30  32
ENDBRANCH   1  30
TORSDOF 7
ENDMDL
MODEL 7
REMARK VINA RESULT:      -7.4      6.066     11.159
REMARK  7 active torsions:
REMARK  status: ('A' for Active; 'I' for Inactive)
REMARK    1  A    between atoms: C_5  and  N_8 
REMARK    2  A    between atoms: N_8  and  C_9 
REMARK    3  A    between atoms: C_15  and  N_21 
REMARK    4  A    between atoms: N_21  and  C_22 
REMARK    5  A    between atoms: C_25  and  O_29 
REMARK    6  A    between atoms: O_29  and  C_30 
REMARK    7  A    between atoms: C_30  and  C_31 
ROOT
HETATM    1  C   UNK N   1      35.470  14.179  10.570  0.00  0.00     0.036 A 
HETATM    2  C   UNK N   1      36.247  13.045  10.264  0.00  0.00     0.032 A 
HETATM    3  C   UNK N   1      36.580  12.760   8.928  0.00  0.00     0.033 A 
HETATM    4  C   UNK N   1      36.147  13.611   7.904  0.00  0.00     0.047 A 
HETATM    5  C   UNK N   1      35.391  14.748   8.223  0.00  0.00     0.037 A 
HETATM    6  C   UNK N   1      35.049  15.015   9.547  0.00  0.00     0.047 A 
HETATM    7  C   UNK N   1      34.963  15.586   7.202  0.00  0.00     0.119 A 
HETATM    8  N   UNK N   1      35.268  15.282   5.910  0.00  0.00    -0.338 N 
ATOM      9  HN  UNK N   1      34.942  15.889   5.159  1.00  0.00     0.168 HD
HETATM   10  C   UNK N   1      36.005  14.175   5.611  0.00  0.00     0.182 A 
HETATM   11  N   UNK N   1      36.444  13.349   6.603  0.00  0.00    -0.352 N 
ATOM     12  HN  UNK N   1      36.998  12.525   6.368  1.00  0.00     0.166 HD
ENDROOT
BRANCH   7  13
HETATM   13  N   UNK N   1      34.205  16.739   7.535  0.00  0.00    -0.342 N 
HETATM   14  H   UNK N   1      34.698  17.572   7.719  0.00  0.00     0.167 HD
BRANCH  13  15
HETATM   15  C   UNK N   1      32.797  16.780   7.623  0.00  0.00     0.035 A 
HETATM   16  C   UNK N   1      32.046  16.057   6.691  0.00  0.00     0.032 A 
HETATM   17  C   UNK N   1      30.657  16.188   6.655  0.00  0.00     0.041 A 
HETATM   18  C   UNK N   1      30.011  17.059   7.549  0.00  0.00     0.091 A 
HETATM   19  C   UNK N   1      30.767  17.770   8.491  0.00  0.00     0.069 A 
HETATM   20  C   UNK N   1      32.153  17.636   8.521  0.00  0.00     0.056 A 
HETATM   21 Cl   UNK N   1      29.987  18.845   9.636  0.00  0.00    -0.081 Cl
BRANCH  18  22
HETATM   22  O   UNK N   1      28.673  17.238   7.519  0.00  0.00    -0.343 OA
BRANCH  22  23
HETATM   23  C   UNK N   1      27.917  17.258   6.371  0.00  0.00     0.240 C 
BRANCH  23  24
HETATM   24  C   UNK N   1      27.422  18.648   6.149  0.00  0.00     0.075 A 
HETATM   25  N   UNK N   1      27.410  19.613   7.096  0.00  0.00    -0.361 N 
HETATM   26  C   UNK N   1      26.879  20.797   6.629  0.00  0.00     0.096 A 
ATOM     27  HN  UNK N   1      27.754  19.481   8.047  1.00  0.00     0.165 HD
HETATM   28  C   UNK N   1      26.458  20.782   5.284  0.00  0.00     0.068 A 
HETATM   29  S   UNK N   1      26.784  19.250   4.752  0.00  0.00    -0.085 SA
ENDBRANCH  23  24
ENDBRANCH  22  23
ENDBRANCH  18  22
ENDBRANCH  13  15
ENDBRANCH   7  13
BRANCH   1  30
HETATM   30  N   UNK N   1      35.074  14.501  11.892  0.00  0.00    -0.322 N 
HETATM   31  H   UNK N   1      34.467  15.266  12.009  0.00  0.00     0.169 HD
BRANCH  30  32
HETATM   32  C   UNK N   1      35.481  13.806  13.058  0.00  0.00     0.220 A 
HETATM   33  O   UNK N   1      34.608  13.256  13.902  0.00  0.00    -0.320 OA
HETATM   34  C   UNK N   1      35.272  12.707  14.978  0.00  0.00     0.203 A 
HETATM   35  C   UNK N   1      36.758  13.026  14.689  0.00  0.00     0.105 A 
HETATM   36  C   UNK N   1      37.550  11.744  14.535  0.00  0.00     0.034 C 
HETATM   37  N   UNK N   1      36.688  13.712  13.432  0.00  0.00    -0.350 N 
ATOM     38  HN  UNK N   1      37.490  14.070  12.914  1.00  0.00     0.163 HD
ENDBRANCH  30  32
ENDBRANCH   1  30
TORSDOF 7
ENDMDL
MODEL 8
REMARK VINA RESULT:      -7.3      4.759      9.874
REMARK  7 active torsions:
REMARK  status: ('A' for Active; 'I' for Inactive)
REMARK    1  A    between atoms: C_5  and  N_8 
REMARK    2  A    between atoms: N_8  and  C_9 
REMARK    3  A    between atoms: C_15  and  N_21 
REMARK    4  A    between atoms: N_21  and  C_22 
REMARK    5  A    between atoms: C_25  and  O_29 
REMARK    6  A    between atoms: O_29  and  C_30 
REMARK    7  A    between atoms: C_30  and  C_31 
ROOT
HETATM    1  C   UNK N   1      33.355  15.664   9.097  0.00  0.00     0.036 A 
HETATM    2  C   UNK N   1      34.590  15.648   8.420  0.00  0.00     0.032 A 
HETATM    3  C   UNK N   1      34.667  16.087   7.086  0.00  0.00     0.033 A 
HETATM    4  C   UNK N   1      33.516  16.550   6.437  0.00  0.00     0.047 A 
HETATM    5  C   UNK N   1      32.297  16.581   7.129  0.00  0.00     0.037 A 
HETATM    6  C   UNK N   1      32.224  16.127   8.443  0.00  0.00     0.047 A 
HETATM    7  C   UNK N   1      31.159  17.040   6.477  0.00  0.00     0.119 A 
HETATM    8  N   UNK N   1      31.242  17.435   5.177  0.00  0.00    -0.338 N 
ATOM      9  HN  UNK N   1      30.404  17.758   4.694  1.00  0.00     0.168 HD
HETATM   10  C   UNK N   1      32.433  17.403   4.515  0.00  0.00     0.182 A 
HETATM   11  N   UNK N   1      33.562  16.966   5.144  0.00  0.00    -0.352 N 
ATOM     12  HN  UNK N   1      34.448  16.951   4.639  1.00  0.00     0.166 HD
ENDROOT
BRANCH   7  13
HETATM   13  N   UNK N   1      29.931  17.075   7.188  0.00  0.00    -0.342 N 
HETATM   14  H   UNK N   1      29.931  16.747   8.116  0.00  0.00     0.167 HD
BRANCH  13  15
HETATM   15  C   UNK N   1      28.709  17.545   6.660  0.00  0.00     0.035 A 
HETATM   16  C   UNK N   1      27.897  16.655   5.951  0.00  0.00     0.032 A 
HETATM   17  C   UNK N   1      26.757  17.116   5.293  0.00  0.00     0.041 A 
HETATM   18  C   UNK N   1      26.428  18.482   5.331  0.00  0.00     0.091 A 
HETATM   19  C   UNK N   1      27.237  19.368   6.055  0.00  0.00     0.069 A 
HETATM   20  C   UNK N   1      28.375  18.902   6.709  0.00  0.00     0.056 A 
HETATM   21 Cl   UNK N   1      26.839  21.074   6.141  0.00  0.00    -0.081 Cl
BRANCH  18  22
HETATM   22  O   UNK N   1      25.353  18.969   4.676  0.00  0.00    -0.343 OA
BRANCH  22  23
HETATM   23  C   UNK N   1      24.579  18.241   3.803  0.00  0.00     0.240 C 
BRANCH  23  24
HETATM   24  C   UNK N   1      23.236  18.030   4.419  0.00  0.00     0.075 A 
HETATM   25  N   UNK N   1      22.968  18.186   5.734  0.00  0.00    -0.361 N 
HETATM   26  C   UNK N   1      21.651  17.904   6.036  0.00  0.00     0.096 A 
ATOM     27  HN  UNK N   1      23.659  18.477   6.425  1.00  0.00     0.165 HD
HETATM   28  C   UNK N   1      20.849  17.518   4.943  0.00  0.00     0.068 A 
HETATM   29  S   UNK N   1      21.864  17.551   3.637  0.00  0.00    -0.085 SA
ENDBRANCH  23  24
ENDBRANCH  22  23
ENDBRANCH  18  22
ENDBRANCH  13  15
ENDBRANCH   7  13
BRANCH   1  30
HETATM   30  N   UNK N   1      33.208  15.203  10.429  0.00  0.00    -0.322 N 
HETATM   31  H   UNK N   1      32.310  15.251  10.828  0.00  0.00     0.169 HD
BRANCH  30  32
HETATM   32  C   UNK N   1      34.250  14.676  11.231  0.00  0.00     0.220 A 
HETATM   33  O   UNK N   1      35.170  15.451  11.806  0.00  0.00    -0.320 OA
HETATM   34  C   UNK N   1      36.096  14.674  12.467  0.00  0.00     0.203 A 
HETATM   35  C   UNK N   1      35.620  13.228  12.194  0.00  0.00     0.105 A 
HETATM   36  C   UNK N   1      35.262  12.539  13.495  0.00  0.00     0.034 C 
HETATM   37  N   UNK N   1      34.438  13.435  11.409  0.00  0.00    -0.350 N 
ATOM     38  HN  UNK N   1      33.836  12.695  11.048  1.00  0.00     0.163 HD
ENDBRANCH  30  32
ENDBRANCH   1  30
TORSDOF 7
ENDMDL
MODEL 9
REMARK VINA RESULT:      -7.1      3.701      8.184
REMARK  7 active torsions:
REMARK  status: ('A' for Active; 'I' for Inactive)
REMARK    1  A    between atoms: C_5  and  N_8 
REMARK    2  A    between atoms: N_8  and  C_9 
REMARK    3  A    between atoms: C_15  and  N_21 
REMARK    4  A    between atoms: N_21  and  C_22 
REMARK    5  A    between atoms: C_25  and  O_29 
REMARK    6  A    between atoms: O_29  and  C_30 
REMARK    7  A    between atoms: C_30  and  C_31 
ROOT
HETATM    1  C   UNK N   1      23.477  20.260   3.113  0.00  0.00     0.036 A 
HETATM    2  C   UNK N   1      22.378  20.919   2.529  0.00  0.00     0.032 A 
HETATM    3  C   UNK N   1      21.117  20.296   2.503  0.00  0.00     0.033 A 
HETATM    4  C   UNK N   1      20.955  19.025   3.068  0.00  0.00     0.047 A 
HETATM    5  C   UNK N   1      22.052  18.389   3.665  0.00  0.00     0.037 A 
HETATM    6  C   UNK N   1      23.303  19.003   3.671  0.00  0.00     0.047 A 
HETATM    7  C   UNK N   1      21.884  17.127   4.221  0.00  0.00     0.119 A 
HETATM    8  N   UNK N   1      20.665  16.524   4.163  0.00  0.00    -0.338 N 
ATOM      9  HN  UNK N   1      20.544  15.591   4.559  1.00  0.00     0.168 HD
HETATM   10  C   UNK N   1      19.604  17.153   3.582  0.00  0.00     0.182 A 
HETATM   11  N   UNK N   1      19.750  18.397   3.043  0.00  0.00    -0.352 N 
ATOM     12  HN  UNK N   1      18.947  18.859   2.615  1.00  0.00     0.166 HD
ENDROOT
BRANCH   7  13
HETATM   13  N   UNK N   1      22.999  16.493   4.830  0.00  0.00    -0.342 N 
HETATM   14  H   UNK N   1      23.896  16.819   4.590  0.00  0.00     0.167 HD
BRANCH  13  15
HETATM   15  C   UNK N   1      22.915  15.429   5.754  0.00  0.00     0.035 A 
HETATM   16  C   UNK N   1      23.394  14.172   5.375  0.00  0.00     0.032 A 
HETATM   17  C   UNK N   1      23.197  13.066   6.202  0.00  0.00     0.041 A 
HETATM   18  C   UNK N   1      22.502  13.212   7.415  0.00  0.00     0.091 A 
HETATM   19  C   UNK N   1      22.036  14.477   7.797  0.00  0.00     0.069 A 
HETATM   20  C   UNK N   1      22.235  15.577   6.967  0.00  0.00     0.056 A 
HETATM   21 Cl   UNK N   1      21.188  14.695   9.317  0.00  0.00    -0.081 Cl
BRANCH  18  22
HETATM   22  O   UNK N   1      22.261  12.157   8.223  0.00  0.00    -0.343 OA
BRANCH  22  23
HETATM   23  C   UNK N   1      23.237  11.406   8.833  0.00  0.00     0.240 C 
BRANCH  23  24
HETATM   24  C   UNK N   1      23.146  11.612  10.308  0.00  0.00     0.075 A 
HETATM   25  N   UNK N   1      21.990  11.600  11.009  0.00  0.00    -0.361 N 
HETATM   26  C   UNK N   1      22.192  11.840  12.353  0.00  0.00     0.096 A 
ATOM     27  HN  UNK N   1      21.074  11.434  10.593  1.00  0.00     0.165 HD
HETATM   28  C   UNK N   1      23.532  12.047  12.736  0.00  0.00     0.068 A 
HETATM   29  S   UNK N   1      24.401  11.916  11.334  0.00  0.00    -0.085 SA
ENDBRANCH  23  24
ENDBRANCH  22  23
ENDBRANCH  18  22
ENDBRANCH  13  15
ENDBRANCH   7  13
BRANCH   1  30
HETATM   30  N   UNK N   1      24.778  20.820   3.140  0.00  0.00    -0.322 N 
HETATM   31  H   UNK N   1      24.962  21.566   2.525  0.00  0.00     0.169 HD
BRANCH  30  32
HETATM   32  C   UNK N   1      25.835  20.394   3.982  0.00  0.00     0.220 A 
HETATM   33  O   UNK N   1      25.846  20.638   5.292  0.00  0.00    -0.320 OA
HETATM   34  C   UNK N   1      27.018  20.173   5.850  0.00  0.00     0.203 A 
HETATM   35  C   UNK N   1      27.791  19.593   4.642  0.00  0.00     0.105 A 
HETATM   36  C   UNK N   1      28.019  18.108   4.829  0.00  0.00     0.034 C 
HETATM   37  N   UNK N   1      26.879  19.815   3.557  0.00  0.00    -0.350 N 
ATOM     38  HN  UNK N   1      27.045  19.546   2.587  1.00  0.00     0.163 HD
ENDBRANCH  30  32
ENDBRANCH   1  30
TORSDOF 7
ENDMDL
