MODEL 1
REMARK VINA RESULT:      -6.5      0.000      0.000
REMARK  6 active torsions:
REMARK  status: ('A' for Active; 'I' for Inactive)
REMARK    1  A    between atoms: N_3  and  C_4 
REMARK    2  A    between atoms: N_3  and  C_16 
REMARK    3  A    between atoms: N_3  and  C_18 
REMARK    4  A    between atoms: C_10  and  C_17 
REMARK    5  A    between atoms: C_16  and  C_19 
REMARK    6  A    between atoms: C_23  and  C_26 
ROOT
HETATM    1 Cl   UNK N   1      33.448  10.869  14.828  0.00  0.00    -0.084 Cl
HETATM    2  C   UNK N   1      35.326  12.697  15.745  0.00  0.00    -0.032 A 
HETATM    3  C   UNK N   1      34.654  12.131  14.636  0.00  0.00     0.041 A 
HETATM    4  C   UNK N   1      36.255  13.718  15.523  0.00  0.00     0.010 A 
HETATM    5  C   UNK N   1      35.850  13.635  13.138  0.00  0.00    -0.035 A 
HETATM    6  C   UNK N   1      34.928  12.605  13.339  0.00  0.00     0.035 A 
HETATM    7  C   UNK N   1      36.511  14.179  14.235  0.00  0.00     0.012 A 
ENDROOT
BRANCH   5   8
HETATM    8  C   UNK N   1      36.105  14.127  11.762  0.00  0.00     0.009 C 
HETATM    9  C   UNK N   1      37.016  13.645  10.894  0.00  0.00     0.004 C 
BRANCH   9  10
HETATM   10  C   UNK N   1      38.018  12.556  11.192  0.00  0.00     0.300 C 
BRANCH  10  11
HETATM   11  N   UNK N   1      37.498  11.230  10.829  0.00  0.00     0.096 N 
BRANCH  11  12
HETATM   12  C   UNK N   1      37.505  10.265  11.945  0.00  0.00     0.223 C 
HETATM   13  C   UNK N   1      37.977  10.858  13.279  0.00  0.00     0.036 C 
HETATM   14  C   UNK N   1      38.041   9.762  14.340  0.00  0.00     0.002 C 
HETATM   15  C   UNK N   1      36.665   9.127  14.522  0.00  0.00     0.000 C 
HETATM   16  C   UNK N   1      36.181   8.532  13.203  0.00  0.00     0.002 C 
HETATM   17  C   UNK N   1      36.133   9.609  12.125  0.00  0.00     0.036 C 
ENDBRANCH  11  12
BRANCH  11  18
HETATM   18  C   UNK N   1      38.137  10.674   9.625  0.00  0.00     0.268 C 
HETATM   19  C   UNK N   1      39.065   9.498   9.914  0.00  0.00     0.037 C 
ENDBRANCH  11  18
ENDBRANCH  10  11
ENDBRANCH   9  10
ENDBRANCH   5   8
BRANCH   2  20
HETATM   20  C   UNK N   1      35.039  12.239  17.162  0.00  0.00     0.020 C 
HETATM   21  C   UNK N   1      35.871  11.007  17.523  0.00  0.00     0.009 C 
HETATM   22  C   UNK N   1      35.503  10.513  18.921  0.00  0.00     0.001 C 
HETATM   23  C   UNK N   1      35.744  11.613  19.950  0.00  0.00     0.000 C 
HETATM   24  C   UNK N   1      34.919  12.847  19.604  0.00  0.00     0.001 C 
HETATM   25  C   UNK N   1      35.282  13.340  18.208  0.00  0.00     0.009 C 
ENDBRANCH   2  20
TORSDOF 6
ENDMDL
MODEL 2
REMARK VINA RESULT:      -6.1      8.822     11.955
REMARK  6 active torsions:
REMARK  status: ('A' for Active; 'I' for Inactive)
REMARK    1  A    between atoms: N_3  and  C_4 
REMARK    2  A    between atoms: N_3  and  C_16 
REMARK    3  A    between atoms: N_3  and  C_18 
REMARK    4  A    between atoms: C_10  and  C_17 
REMARK    5  A    between atoms: C_16  and  C_19 
REMARK    6  A    between atoms: C_23  and  C_26 
ROOT
HETATM    1 Cl   UNK N   1      28.973  15.742   5.060  0.00  0.00    -0.084 Cl
HETATM    2  C   UNK N   1      29.241  17.755   6.953  0.00  0.00    -0.032 A 
HETATM    3  C   UNK N   1      29.672  16.491   6.486  0.00  0.00     0.041 A 
HETATM    4  C   UNK N   1      29.860  18.306   8.079  0.00  0.00     0.010 A 
HETATM    5  C   UNK N   1      31.325  16.389   8.272  0.00  0.00    -0.035 A 
HETATM    6  C   UNK N   1      30.710  15.817   7.156  0.00  0.00     0.035 A 
HETATM    7  C   UNK N   1      30.888  17.630   8.727  0.00  0.00     0.012 A 
ENDROOT
BRANCH   5   8
HETATM    8  C   UNK N   1      32.429  15.665   8.948  0.00  0.00     0.009 C 
HETATM    9  C   UNK N   1      33.747  15.808   8.709  0.00  0.00     0.004 C 
BRANCH   9  10
HETATM   10  C   UNK N   1      34.351  16.680   7.634  0.00  0.00     0.300 C 
BRANCH  10  11
HETATM   11  N   UNK N   1      34.836  15.880   6.501  0.00  0.00     0.096 N 
BRANCH  11  12
HETATM   12  C   UNK N   1      34.158  16.187   5.227  0.00  0.00     0.223 C 
HETATM   13  C   UNK N   1      33.346  15.016   4.655  0.00  0.00     0.036 C 
HETATM   14  C   UNK N   1      32.768  15.401   3.296  0.00  0.00     0.002 C 
HETATM   15  C   UNK N   1      31.869  16.627   3.436  0.00  0.00     0.000 C 
HETATM   16  C   UNK N   1      32.662  17.800   4.003  0.00  0.00     0.002 C 
HETATM   17  C   UNK N   1      33.266  17.425   5.351  0.00  0.00     0.036 C 
ENDBRANCH  11  12
BRANCH  11  18
HETATM   18  C   UNK N   1      34.842  14.435   6.780  0.00  0.00     0.268 C 
HETATM   19  C   UNK N   1      36.238  13.818   6.778  0.00  0.00     0.037 C 
ENDBRANCH  11  18
ENDBRANCH  10  11
ENDBRANCH   9  10
ENDBRANCH   5   8
BRANCH   2  20
HETATM   20  C   UNK N   1      28.147  18.530   6.242  0.00  0.00     0.020 C 
HETATM   21  C   UNK N   1      27.746  19.773   7.038  0.00  0.00     0.009 C 
HETATM   22  C   UNK N   1      26.587  20.489   6.347  0.00  0.00     0.001 C 
HETATM   23  C   UNK N   1      26.984  20.894   4.931  0.00  0.00     0.000 C 
HETATM   24  C   UNK N   1      27.385  19.664   4.125  0.00  0.00     0.001 C 
HETATM   25  C   UNK N   1      28.540  18.946   4.814  0.00  0.00     0.009 C 
ENDBRANCH   2  20
TORSDOF 6
ENDMDL
MODEL 3
REMARK VINA RESULT:      -6.0     24.962     26.702
REMARK  6 active torsions:
REMARK  status: ('A' for Active; 'I' for Inactive)
REMARK    1  A    between atoms: N_3  and  C_4 
REMARK    2  A    between atoms: N_3  and  C_16 
REMARK    3  A    between atoms: N_3  and  C_18 
REMARK    4  A    between atoms: C_10  and  C_17 
REMARK    5  A    between atoms: C_16  and  C_19 
REMARK    6  A    between atoms: C_23  and  C_26 
ROOT
HETATM    1 Cl   UNK N   1      27.277  23.565  -3.236  0.00  0.00    -0.084 Cl
HETATM    2  C   UNK N   1      26.137  24.535  -5.575  0.00  0.00    -0.032 A 
HETATM    3  C   UNK N   1      26.517  24.793  -4.236  0.00  0.00     0.041 A 
HETATM    4  C   UNK N   1      25.562  25.566  -6.324  0.00  0.00     0.010 A 
HETATM    5  C   UNK N   1      25.749  27.094  -4.455  0.00  0.00    -0.035 A 
HETATM    6  C   UNK N   1      26.313  26.072  -3.688  0.00  0.00     0.035 A 
HETATM    7  C   UNK N   1      25.372  26.828  -5.768  0.00  0.00     0.012 A 
ENDROOT
BRANCH   5   8
HETATM    8  C   UNK N   1      25.563  28.438  -3.858  0.00  0.00     0.009 C 
HETATM    9  C   UNK N   1      26.529  29.239  -3.367  0.00  0.00     0.004 C 
BRANCH   9  10
HETATM   10  C   UNK N   1      27.990  28.877  -3.253  0.00  0.00     0.300 C 
BRANCH  10  11
HETATM   11  N   UNK N   1      28.802  29.595  -4.245  0.00  0.00     0.096 N 
BRANCH  11  12
HETATM   12  C   UNK N   1      29.130  28.788  -5.437  0.00  0.00     0.223 C 
HETATM   13  C   UNK N   1      29.203  27.279  -5.167  0.00  0.00     0.036 C 
HETATM   14  C   UNK N   1      29.642  26.547  -6.433  0.00  0.00     0.002 C 
HETATM   15  C   UNK N   1      28.654  26.817  -7.566  0.00  0.00     0.000 C 
HETATM   16  C   UNK N   1      28.572  28.315  -7.845  0.00  0.00     0.002 C 
HETATM   17  C   UNK N   1      28.156  29.065  -6.585  0.00  0.00     0.036 C 
ENDBRANCH  11  12
BRANCH  11  18
HETATM   18  C   UNK N   1      30.002  30.217  -3.662  0.00  0.00     0.268 C 
HETATM   19  C   UNK N   1      30.428  29.596  -2.334  0.00  0.00     0.037 C 
ENDBRANCH  11  18
ENDBRANCH  10  11
ENDBRANCH   9  10
ENDBRANCH   5   8
BRANCH   2  20
HETATM   20  C   UNK N   1      26.368  23.180  -6.216  0.00  0.00     0.020 C 
HETATM   21  C   UNK N   1      25.291  22.873  -7.258  0.00  0.00     0.009 C 
HETATM   22  C   UNK N   1      25.494  21.470  -7.827  0.00  0.00     0.001 C 
HETATM   23  C   UNK N   1      26.874  21.353  -8.467  0.00  0.00     0.000 C 
HETATM   24  C   UNK N   1      27.958  21.655  -7.437  0.00  0.00     0.001 C 
HETATM   25  C   UNK N   1      27.756  23.053  -6.866  0.00  0.00     0.009 C 
ENDBRANCH   2  20
TORSDOF 6
ENDMDL
MODEL 4
REMARK VINA RESULT:      -6.0     22.871     25.824
REMARK  6 active torsions:
REMARK  status: ('A' for Active; 'I' for Inactive)
REMARK    1  A    between atoms: N_3  and  C_4 
REMARK    2  A    between atoms: N_3  and  C_16 
REMARK    3  A    between atoms: N_3  and  C_18 
REMARK    4  A    between atoms: C_10  and  C_17 
REMARK    5  A    between atoms: C_16  and  C_19 
REMARK    6  A    between atoms: C_23  and  C_26 
ROOT
HETATM    1 Cl   UNK N   1      26.864  24.679  -3.285  0.00  0.00    -0.084 Cl
HETATM    2  C   UNK N   1      26.555  25.959  -5.730  0.00  0.00    -0.032 A 
HETATM    3  C   UNK N   1      26.500  24.747  -5.002  0.00  0.00     0.041 A 
HETATM    4  C   UNK N   1      26.226  25.947  -7.089  0.00  0.00     0.010 A 
HETATM    5  C   UNK N   1      25.778  23.569  -7.009  0.00  0.00    -0.035 A 
HETATM    6  C   UNK N   1      26.115  23.560  -5.653  0.00  0.00     0.035 A 
HETATM    7  C   UNK N   1      25.843  24.766  -7.716  0.00  0.00     0.012 A 
ENDROOT
BRANCH   5   8
HETATM    8  C   UNK N   1      25.358  22.307  -7.665  0.00  0.00     0.009 C 
HETATM    9  C   UNK N   1      26.157  21.433  -8.307  0.00  0.00     0.004 C 
BRANCH   9  10
HETATM   10  C   UNK N   1      27.634  21.619  -8.558  0.00  0.00     0.300 C 
BRANCH  10  11
HETATM   11  N   UNK N   1      28.442  21.012  -7.491  0.00  0.00     0.096 N 
BRANCH  11  12
HETATM   12  C   UNK N   1      28.950  21.987  -6.506  0.00  0.00     0.223 C 
HETATM   13  C   UNK N   1      30.001  21.413  -5.547  0.00  0.00     0.036 C 
HETATM   14  C   UNK N   1      30.388  22.466  -4.511  0.00  0.00     0.002 C 
HETATM   15  C   UNK N   1      30.951  23.704  -5.206  0.00  0.00     0.000 C 
HETATM   16  C   UNK N   1      29.917  24.286  -6.163  0.00  0.00     0.002 C 
HETATM   17  C   UNK N   1      29.502  23.240  -7.192  0.00  0.00     0.036 C 
ENDBRANCH  11  12
BRANCH  11  18
HETATM   18  C   UNK N   1      29.518  20.150  -8.007  0.00  0.00     0.268 C 
HETATM   19  C   UNK N   1      29.248  18.660  -7.820  0.00  0.00     0.037 C 
ENDBRANCH  11  18
ENDBRANCH  10  11
ENDBRANCH   9  10
ENDBRANCH   5   8
BRANCH   2  20
HETATM   20  C   UNK N   1      26.934  27.267  -5.061  0.00  0.00     0.020 C 
HETATM   21  C   UNK N   1      27.317  28.326  -6.097  0.00  0.00     0.009 C 
HETATM   22  C   UNK N   1      27.776  29.604  -5.399  0.00  0.00     0.001 C 
HETATM   23  C   UNK N   1      26.667  30.144  -4.501  0.00  0.00     0.000 C 
HETATM   24  C   UNK N   1      26.276  29.099  -3.461  0.00  0.00     0.001 C 
HETATM   25  C   UNK N   1      25.821  27.821  -4.156  0.00  0.00     0.009 C 
ENDBRANCH   2  20
TORSDOF 6
ENDMDL
MODEL 5
REMARK VINA RESULT:      -5.9     21.014     24.097
REMARK  6 active torsions:
REMARK  status: ('A' for Active; 'I' for Inactive)
REMARK    1  A    between atoms: N_3  and  C_4 
REMARK    2  A    between atoms: N_3  and  C_16 
REMARK    3  A    between atoms: N_3  and  C_18 
REMARK    4  A    between atoms: C_10  and  C_17 
REMARK    5  A    between atoms: C_16  and  C_19 
REMARK    6  A    between atoms: C_23  and  C_26 
ROOT
HETATM    1 Cl   UNK N   1      30.353  27.309  -4.103  0.00  0.00    -0.084 Cl
HETATM    2  C   UNK N   1      28.480  25.267  -4.275  0.00  0.00    -0.032 A 
HETATM    3  C   UNK N   1      29.796  25.653  -3.928  0.00  0.00     0.041 A 
HETATM    4  C   UNK N   1      28.093  23.937  -4.084  0.00  0.00     0.010 A 
HETATM    5  C   UNK N   1      30.277  23.378  -3.202  0.00  0.00    -0.035 A 
HETATM    6  C   UNK N   1      30.685  24.700  -3.397  0.00  0.00     0.035 A 
HETATM    7  C   UNK N   1      28.983  23.008  -3.554  0.00  0.00     0.012 A 
ENDROOT
BRANCH   5   8
HETATM    8  C   UNK N   1      31.229  22.398  -2.624  0.00  0.00     0.009 C 
HETATM    9  C   UNK N   1      32.380  21.974  -3.181  0.00  0.00     0.004 C 
BRANCH   9  10
HETATM   10  C   UNK N   1      32.880  22.355  -4.553  0.00  0.00     0.300 C 
BRANCH  10  11
HETATM   11  N   UNK N   1      32.720  21.252  -5.511  0.00  0.00     0.096 N 
BRANCH  11  12
HETATM   12  C   UNK N   1      31.578  21.426  -6.429  0.00  0.00     0.223 C 
HETATM   13  C   UNK N   1      30.332  20.622  -6.033  0.00  0.00     0.036 C 
HETATM   14  C   UNK N   1      29.247  20.793  -7.093  0.00  0.00     0.002 C 
HETATM   15  C   UNK N   1      28.879  22.268  -7.236  0.00  0.00     0.000 C 
HETATM   16  C   UNK N   1      30.108  23.080  -7.629  0.00  0.00     0.002 C 
HETATM   17  C   UNK N   1      31.212  22.904  -6.593  0.00  0.00     0.036 C 
ENDBRANCH  11  12
BRANCH  11  18
HETATM   18  C   UNK N   1      32.702  19.930  -4.865  0.00  0.00     0.268 C 
HETATM   19  C   UNK N   1      34.012  19.161  -5.011  0.00  0.00     0.037 C 
ENDBRANCH  11  18
ENDBRANCH  10  11
ENDBRANCH   9  10
ENDBRANCH   5   8
BRANCH   2  20
HETATM   20  C   UNK N   1      27.480  26.269  -4.820  0.00  0.00     0.020 C 
HETATM   21  C   UNK N   1      26.729  25.699  -6.025  0.00  0.00     0.009 C 
HETATM   22  C   UNK N   1      25.791  26.754  -6.608  0.00  0.00     0.001 C 
HETATM   23  C   UNK N   1      24.790  27.213  -5.553  0.00  0.00     0.000 C 
HETATM   24  C   UNK N   1      25.525  27.786  -4.346  0.00  0.00     0.001 C 
HETATM   25  C   UNK N   1      26.464  26.736  -3.764  0.00  0.00     0.009 C 
ENDBRANCH   2  20
TORSDOF 6
ENDMDL
MODEL 6
REMARK VINA RESULT:      -5.9      2.137      3.855
REMARK  6 active torsions:
REMARK  status: ('A' for Active; 'I' for Inactive)
REMARK    1  A    between atoms: N_3  and  C_4 
REMARK    2  A    between atoms: N_3  and  C_16 
REMARK    3  A    between atoms: N_3  and  C_18 
REMARK    4  A    between atoms: C_10  and  C_17 
REMARK    5  A    between atoms: C_16  and  C_19 
REMARK    6  A    between atoms: C_23  and  C_26 
ROOT
HETATM    1 Cl   UNK N   1      37.937  10.171  14.963  0.00  0.00    -0.084 Cl
HETATM    2  C   UNK N   1      35.289  10.988  15.140  0.00  0.00    -0.032 A 
HETATM    3  C   UNK N   1      36.271  10.271  14.417  0.00  0.00     0.041 A 
HETATM    4  C   UNK N   1      33.975  11.003  14.664  0.00  0.00     0.010 A 
HETATM    5  C   UNK N   1      34.588   9.603  12.787  0.00  0.00    -0.035 A 
HETATM    6  C   UNK N   1      35.909   9.587  13.241  0.00  0.00     0.035 A 
HETATM    7  C   UNK N   1      33.632  10.318  13.502  0.00  0.00     0.012 A 
ENDROOT
BRANCH   5   8
HETATM    8  C   UNK N   1      34.231   8.859  11.555  0.00  0.00     0.009 C 
HETATM    9  C   UNK N   1      33.875   9.393  10.370  0.00  0.00     0.004 C 
BRANCH   9  10
HETATM   10  C   UNK N   1      33.687  10.865  10.095  0.00  0.00     0.300 C 
BRANCH  10  11
HETATM   11  N   UNK N   1      34.871  11.449   9.449  0.00  0.00     0.096 N 
BRANCH  11  12
HETATM   12  C   UNK N   1      35.595  12.414  10.300  0.00  0.00     0.223 C 
HETATM   13  C   UNK N   1      34.738  13.025  11.417  0.00  0.00     0.036 C 
HETATM   14  C   UNK N   1      35.545  14.076  12.174  0.00  0.00     0.002 C 
HETATM   15  C   UNK N   1      36.796  13.443  12.778  0.00  0.00     0.000 C 
HETATM   16  C   UNK N   1      37.659  12.831  11.679  0.00  0.00     0.002 C 
HETATM   17  C   UNK N   1      36.861  11.794  10.897  0.00  0.00     0.036 C 
ENDBRANCH  11  12
BRANCH  11  18
HETATM   18  C   UNK N   1      34.582  12.007   8.119  0.00  0.00     0.268 C 
HETATM   19  C   UNK N   1      35.820  12.520   7.389  0.00  0.00     0.037 C 
ENDBRANCH  11  18
ENDBRANCH  10  11
ENDBRANCH   9  10
ENDBRANCH   5   8
BRANCH   2  20
HETATM   20  C   UNK N   1      35.629  11.713  16.430  0.00  0.00     0.020 C 
HETATM   21  C   UNK N   1      34.947  13.081  16.489  0.00  0.00     0.009 C 
HETATM   22  C   UNK N   1      35.371  13.826  17.753  0.00  0.00     0.001 C 
HETATM   23  C   UNK N   1      35.002  13.016  18.993  0.00  0.00     0.000 C 
HETATM   24  C   UNK N   1      35.677  11.650  18.947  0.00  0.00     0.001 C 
HETATM   25  C   UNK N   1      35.258  10.906  17.685  0.00  0.00     0.009 C 
ENDBRANCH   2  20
TORSDOF 6
ENDMDL
MODEL 7
REMARK VINA RESULT:      -5.9     24.416     26.919
REMARK  6 active torsions:
REMARK  status: ('A' for Active; 'I' for Inactive)
REMARK    1  A    between atoms: N_3  and  C_4 
REMARK    2  A    between atoms: N_3  and  C_16 
REMARK    3  A    between atoms: N_3  and  C_18 
REMARK    4  A    between atoms: C_10  and  C_17 
REMARK    5  A    between atoms: C_16  and  C_19 
REMARK    6  A    between atoms: C_23  and  C_26 
ROOT
HETATM    1 Cl   UNK N   1      25.349  28.051  -4.410  0.00  0.00    -0.084 Cl
HETATM    2  C   UNK N   1      27.609  27.979  -6.021  0.00  0.00    -0.032 A 
HETATM    3  C   UNK N   1      26.256  27.604  -5.846  0.00  0.00     0.041 A 
HETATM    4  C   UNK N   1      28.264  27.614  -7.201  0.00  0.00     0.010 A 
HETATM    5  C   UNK N   1      26.265  26.534  -8.034  0.00  0.00    -0.035 A 
HETATM    6  C   UNK N   1      25.598  26.879  -6.856  0.00  0.00     0.035 A 
HETATM    7  C   UNK N   1      27.598  26.901  -8.192  0.00  0.00     0.012 A 
ENDROOT
BRANCH   5   8
HETATM    8  C   UNK N   1      25.541  25.785  -9.090  0.00  0.00     0.009 C 
HETATM    9  C   UNK N   1      25.542  24.450  -9.271  0.00  0.00     0.004 C 
BRANCH   9  10
HETATM   10  C   UNK N   1      26.359  23.461  -8.475  0.00  0.00     0.300 C 
BRANCH  10  11
HETATM   11  N   UNK N   1      25.680  23.081  -7.228  0.00  0.00     0.096 N 
BRANCH  11  12
HETATM   12  C   UNK N   1      26.505  23.279  -6.021  0.00  0.00     0.223 C 
HETATM   13  C   UNK N   1      27.920  23.797  -6.311  0.00  0.00     0.036 C 
HETATM   14  C   UNK N   1      28.720  23.875  -5.013  0.00  0.00     0.002 C 
HETATM   15  C   UNK N   1      28.027  24.808  -4.024  0.00  0.00     0.000 C 
HETATM   16  C   UNK N   1      26.618  24.305  -3.725  0.00  0.00     0.002 C 
HETATM   17  C   UNK N   1      25.811  24.200  -5.014  0.00  0.00     0.036 C 
ENDBRANCH  11  12
BRANCH  11  18
HETATM   18  C   UNK N   1      25.105  21.727  -7.278  0.00  0.00     0.268 C 
HETATM   19  C   UNK N   1      25.746  20.830  -8.333  0.00  0.00     0.037 C 
ENDBRANCH  11  18
ENDBRANCH  10  11
ENDBRANCH   9  10
ENDBRANCH   5   8
BRANCH   2  20
HETATM   20  C   UNK N   1      28.348  28.788  -4.971  0.00  0.00     0.020 C 
HETATM   21  C   UNK N   1      29.849  28.493  -5.003  0.00  0.00     0.009 C 
HETATM   22  C   UNK N   1      30.558  29.253  -3.884  0.00  0.00     0.001 C 
HETATM   23  C   UNK N   1      30.328  30.754  -4.035  0.00  0.00     0.000 C 
HETATM   24  C   UNK N   1      28.835  31.062  -4.003  0.00  0.00     0.001 C 
HETATM   25  C   UNK N   1      28.125  30.303  -5.117  0.00  0.00     0.009 C 
ENDBRANCH   2  20
TORSDOF 6
ENDMDL
MODEL 8
REMARK VINA RESULT:      -5.9     24.141     26.425
REMARK  6 active torsions:
REMARK  status: ('A' for Active; 'I' for Inactive)
REMARK    1  A    between atoms: N_3  and  C_4 
REMARK    2  A    between atoms: N_3  and  C_16 
REMARK    3  A    between atoms: N_3  and  C_18 
REMARK    4  A    between atoms: C_10  and  C_17 
REMARK    5  A    between atoms: C_16  and  C_19 
REMARK    6  A    between atoms: C_23  and  C_26 
ROOT
HETATM    1 Cl   UNK N   1      28.851  25.324  -8.810  0.00  0.00    -0.084 Cl
HETATM    2  C   UNK N   1      27.525  23.698  -6.992  0.00  0.00    -0.032 A 
HETATM    3  C   UNK N   1      27.656  24.983  -7.569  0.00  0.00     0.041 A 
HETATM    4  C   UNK N   1      26.534  23.488  -6.029  0.00  0.00     0.010 A 
HETATM    5  C   UNK N   1      25.799  25.788  -6.213  0.00  0.00    -0.035 A 
HETATM    6  C   UNK N   1      26.792  26.019  -7.169  0.00  0.00     0.035 A 
HETATM    7  C   UNK N   1      25.684  24.522  -5.647  0.00  0.00     0.012 A 
ENDROOT
BRANCH   5   8
HETATM    8  C   UNK N   1      24.890  26.893  -5.823  0.00  0.00     0.009 C 
HETATM    9  C   UNK N   1      25.021  27.698  -4.750  0.00  0.00     0.004 C 
BRANCH   9  10
HETATM   10  C   UNK N   1      26.083  27.570  -3.685  0.00  0.00     0.300 C 
BRANCH  10  11
HETATM   11  N   UNK N   1      27.239  28.430  -3.969  0.00  0.00     0.096 N 
BRANCH  11  12
HETATM   12  C   UNK N   1      28.507  27.689  -4.112  0.00  0.00     0.223 C 
HETATM   13  C   UNK N   1      28.374  26.176  -3.890  0.00  0.00     0.036 C 
HETATM   14  C   UNK N   1      29.749  25.518  -3.963  0.00  0.00     0.002 C 
HETATM   15  C   UNK N   1      30.385  25.780  -5.326  0.00  0.00     0.000 C 
HETATM   16  C   UNK N   1      30.525  27.280  -5.561  0.00  0.00     0.002 C 
HETATM   17  C   UNK N   1      29.163  27.958  -5.470  0.00  0.00     0.036 C 
ENDBRANCH  11  12
BRANCH  11  18
HETATM   18  C   UNK N   1      27.368  29.550  -3.023  0.00  0.00     0.268 C 
HETATM   19  C   UNK N   1      26.640  30.814  -3.471  0.00  0.00     0.037 C 
ENDBRANCH  11  18
ENDBRANCH  10  11
ENDBRANCH   9  10
ENDBRANCH   5   8
BRANCH   2  20
HETATM   20  C   UNK N   1      28.414  22.545  -7.418  0.00  0.00     0.020 C 
HETATM   21  C   UNK N   1      29.238  22.021  -6.240  0.00  0.00     0.009 C 
HETATM   22  C   UNK N   1      30.187  20.920  -6.710  0.00  0.00     0.001 C 
HETATM   23  C   UNK N   1      29.397  19.772  -7.333  0.00  0.00     0.000 C 
HETATM   24  C   UNK N   1      28.572  20.281  -8.510  0.00  0.00     0.001 C 
HETATM   25  C   UNK N   1      27.627  21.382  -8.045  0.00  0.00     0.009 C 
ENDBRANCH   2  20
TORSDOF 6
ENDMDL
MODEL 9
REMARK VINA RESULT:      -5.8     21.231     24.615
REMARK  6 active torsions:
REMARK  status: ('A' for Active; 'I' for Inactive)
REMARK    1  A    between atoms: N_3  and  C_4 
REMARK    2  A    between atoms: N_3  and  C_16 
REMARK    3  A    between atoms: N_3  and  C_18 
REMARK    4  A    between atoms: C_10  and  C_17 
REMARK    5  A    between atoms: C_16  and  C_19 
REMARK    6  A    between atoms: C_23  and  C_26 
ROOT
HETATM    1 Cl   UNK N   1      26.246  24.338  -3.979  0.00  0.00    -0.084 Cl
HETATM    2  C   UNK N   1      28.576  25.847  -4.028  0.00  0.00    -0.032 A 
HETATM    3  C   UNK N   1      27.965  24.604  -3.738  0.00  0.00     0.041 A 
HETATM    4  C   UNK N   1      29.955  25.982  -3.839  0.00  0.00     0.010 A 
HETATM    5  C   UNK N   1      30.128  23.683  -3.101  0.00  0.00    -0.035 A 
HETATM    6  C   UNK N   1      28.750  23.533  -3.272  0.00  0.00     0.035 A 
HETATM    7  C   UNK N   1      30.717  24.912  -3.382  0.00  0.00     0.012 A 
ENDROOT
BRANCH   5   8
HETATM    8  C   UNK N   1      30.934  22.532  -2.626  0.00  0.00     0.009 C 
HETATM    9  C   UNK N   1      31.205  21.405  -3.312  0.00  0.00     0.004 C 
BRANCH   9  10
HETATM   10  C   UNK N   1      30.661  21.060  -4.678  0.00  0.00     0.300 C 
BRANCH  10  11
HETATM   11  N   UNK N   1      31.317  21.845  -5.733  0.00  0.00     0.096 N 
BRANCH  11  12
HETATM   12  C   UNK N   1      30.372  22.492  -6.664  0.00  0.00     0.223 C 
HETATM   13  C   UNK N   1      28.897  22.185  -6.368  0.00  0.00     0.036 C 
HETATM   14  C   UNK N   1      28.011  22.817  -7.439  0.00  0.00     0.002 C 
HETATM   15  C   UNK N   1      28.223  24.329  -7.471  0.00  0.00     0.000 C 
HETATM   16  C   UNK N   1      29.685  24.649  -7.765  0.00  0.00     0.002 C 
HETATM   17  C   UNK N   1      30.586  24.007  -6.717  0.00  0.00     0.036 C 
ENDBRANCH  11  12
BRANCH  11  18
HETATM   18  C   UNK N   1      32.354  21.087  -6.451  0.00  0.00     0.268 C 
HETATM   19  C   UNK N   1      31.834  19.813  -7.109  0.00  0.00     0.037 C 
ENDBRANCH  11  18
ENDBRANCH  10  11
ENDBRANCH   9  10
ENDBRANCH   5   8
BRANCH   2  20
HETATM   20  C   UNK N   1      27.773  27.018  -4.562  0.00  0.00     0.020 C 
HETATM   21  C   UNK N   1      27.081  27.775  -3.427  0.00  0.00     0.009 C 
HETATM   22  C   UNK N   1      26.212  28.895  -3.995  0.00  0.00     0.001 C 
HETATM   23  C   UNK N   1      27.063  29.863  -4.812  0.00  0.00     0.000 C 
HETATM   24  C   UNK N   1      27.757  29.121  -5.949  0.00  0.00     0.001 C 
HETATM   25  C   UNK N   1      28.623  28.000  -5.385  0.00  0.00     0.009 C 
ENDBRANCH   2  20
TORSDOF 6
ENDMDL
