REMARK  1 active torsions:
REMARK  status: ('A' for Active; 'I' for Inactive)
REMARK    1  A    between atoms: C_21  and  O_2 
ROOT
HETATM    1 Br   UNK N   1      10.430   0.318   1.556  0.00  0.00    -0.083 Br
HETATM    2  O   UNK N   1       8.952   2.807  -0.113  0.00  0.00    -0.296 OA
HETATM    3  C   UNK N   1       4.743  -0.271   0.417  0.00  0.00    -0.002 C 
HETATM    4  C   UNK N   1       3.423  -0.971  -0.045  0.00  0.00    -0.036 C 
HETATM    5  C   UNK N   1       5.967  -0.989  -0.227  0.00  0.00    -0.004 C 
HETATM    6  C   UNK N   1       7.244  -0.209   0.121  0.00  0.00     0.007 C 
HETATM    7  C   UNK N   1       3.542  -2.543   0.033  0.00  0.00    -0.004 C 
HETATM    8  C   UNK N   1       7.167   1.241  -0.363  0.00  0.00     0.022 C 
HETATM    9  C   UNK N   1       4.722   1.256   0.137  0.00  0.00     0.007 C 
HETATM   10  C   UNK N   1       6.071  -2.435   0.300  0.00  0.00     0.006 C 
HETATM   11  C   UNK N   1       6.071   1.936   0.446  0.00  0.00     0.018 C 
HETATM   12  C   UNK N   1       4.750  -2.997   0.852  0.00  0.00     0.006 C 
HETATM   13  C   UNK N   1       2.258  -0.464   0.823  0.00  0.00     0.012 C 
HETATM   14  C   UNK N   1       8.587  -0.708  -0.404  0.00  0.00     0.029 C 
HETATM   15  C   UNK N   1       2.302  -3.218   0.641  0.00  0.00     0.037 C 
HETATM   16  C   UNK N   1       3.120  -0.584  -1.501  0.00  0.00     0.016 C 
HETATM   17  C   UNK N   1       8.577   1.644  -0.132  0.00  0.00     0.149 C 
HETATM   18  C   UNK N   1       9.525   0.484  -0.148  0.00  0.00     0.128 C 
HETATM   19  C   UNK N   1       0.912  -1.097   0.426  0.00  0.00     0.032 C 
HETATM   20  C   UNK N   1       0.989  -2.608   0.158  0.00  0.00     0.118 C 
HETATM   21  C   UNK N   1       6.895   1.390  -1.864  0.00  0.00     0.024 C 
ENDROOT
BRANCH  20  22
HETATM   22  O   UNK N   1       0.794  -2.875  -1.197  0.00  0.00    -0.396 OA
HETATM   23  H   UNK N   1       0.565  -2.850  -2.140  0.00  0.00     0.210 HD
ENDBRANCH  20  22
TORSDOF 1
