MODEL 1
REMARK VINA RESULT:      -6.0      0.000      0.000
REMARK  7 active torsions:
REMARK  status: ('A' for Active; 'I' for Inactive)
REMARK    1  A    between atoms: O_4  and  C_15 
REMARK    2  A    between atoms: O_4  and  C_18 
REMARK    3  A    between atoms: N_7  and  C_9 
REMARK    4  A    between atoms: N_7  and  C_11 
REMARK    5  A    between atoms: C_8  and  C_9 
REMARK    6  A    between atoms: C_11  and  C_12 
REMARK    7  A    between atoms: C_12  and  C_15 
ROOT
HETATM    1  N   UNK N   1      29.668  28.227  -2.942  0.00  0.00    -0.419 N 
HETATM    2  H   UNK N   1      29.942  27.504  -2.277  0.00  0.00     0.153 HD
ENDROOT
BRANCH   1   3
HETATM    3  C   UNK N   1      29.780  28.147  -4.392  0.00  0.00     0.148 C 
BRANCH   3   4
HETATM    4  C   UNK N   1      30.213  26.752  -4.825  0.00  0.00     0.170 C 
HETATM    5  O   UNK N   1      30.168  25.889  -3.742  0.00  0.00    -0.339 OA
HETATM    6  C   UNK N   1      30.125  24.546  -3.922  0.00  0.00     0.102 A 
HETATM    7  C   UNK N   1      29.847  24.033  -5.201  0.00  0.00     0.102 A 
HETATM    8  C   UNK N   1      30.352  23.676  -2.854  0.00  0.00     0.039 A 
HETATM    9  O   UNK N   1      29.590  24.887  -6.216  0.00  0.00    -0.346 OA
HETATM   10  C   UNK N   1      29.825  22.653  -5.412  0.00  0.00     0.039 A 
HETATM   11  C   UNK N   1      29.337  26.225  -5.973  0.00  0.00     0.209 C 
HETATM   12  C   UNK N   1      30.062  21.782  -4.344  0.00  0.00     0.003 A 
HETATM   13  C   UNK N   1      30.320  22.294  -3.065  0.00  0.00     0.003 A 
ENDBRANCH   3   4
ENDBRANCH   1   3
BRANCH   1  14
HETATM   14  C   UNK N   1      29.094  29.526  -2.614  0.00  0.00     0.116 C 
BRANCH  14  15
HETATM   15  C   UNK N   1      28.150  29.977  -3.719  0.00  0.00     0.046 C 
BRANCH  15  16
HETATM   16  C   UNK N   1      26.713  29.902  -3.244  0.00  0.00     0.177 C 
BRANCH  16  17
HETATM   17  O   UNK N   1      26.404  28.618  -2.856  0.00  0.00    -0.351 OA
BRANCH  17  18
HETATM   18  C   UNK N   1      26.065  27.646  -3.733  0.00  0.00     0.071 A 
HETATM   19  C   UNK N   1      26.533  26.336  -3.513  0.00  0.00     0.076 A 
HETATM   20  C   UNK N   1      26.201  25.364  -4.450  0.00  0.00     0.107 A 
HETATM   21  O   UNK N   1      26.552  24.079  -4.466  0.00  0.00    -0.323 OA
HETATM   22  C   UNK N   1      25.450  25.627  -5.525  0.00  0.00     0.105 A 
HETATM   23  C   UNK N   1      26.004  23.485  -5.607  0.00  0.00     0.352 A 
HETATM   24  O   UNK N   1      25.306  24.518  -6.245  0.00  0.00    -0.323 OA
HETATM   25  C   UNK N   1      24.945  26.898  -5.786  0.00  0.00     0.042 A 
HETATM   26  C   UNK N   1      25.265  27.922  -4.877  0.00  0.00     0.039 A 
ENDBRANCH  17  18
ENDBRANCH  16  17
ENDBRANCH  15  16
ENDBRANCH  14  15
ENDBRANCH   1  14
TORSDOF 7
ENDMDL
MODEL 2
REMARK VINA RESULT:      -5.8     18.048     20.759
REMARK  7 active torsions:
REMARK  status: ('A' for Active; 'I' for Inactive)
REMARK    1  A    between atoms: O_4  and  C_15 
REMARK    2  A    between atoms: O_4  and  C_18 
REMARK    3  A    between atoms: N_7  and  C_9 
REMARK    4  A    between atoms: N_7  and  C_11 
REMARK    5  A    between atoms: C_8  and  C_9 
REMARK    6  A    between atoms: C_11  and  C_12 
REMARK    7  A    between atoms: C_12  and  C_15 
ROOT
HETATM    1  N   UNK N   1      35.876  14.031  11.157  0.00  0.00    -0.419 N 
HETATM    2  H   UNK N   1      36.207  13.534  10.330  0.00  0.00     0.153 HD
ENDROOT
BRANCH   1   3
HETATM    3  C   UNK N   1      34.883  13.550  12.109  0.00  0.00     0.148 C 
BRANCH   3   4
HETATM    4  C   UNK N   1      35.557  12.915  13.318  0.00  0.00     0.170 C 
HETATM    5  O   UNK N   1      35.034  13.453  14.483  0.00  0.00    -0.339 OA
HETATM    6  C   UNK N   1      35.166  12.809  15.669  0.00  0.00     0.102 A 
HETATM    7  C   UNK N   1      35.588  11.469  15.680  0.00  0.00     0.102 A 
HETATM    8  C   UNK N   1      34.888  13.464  16.870  0.00  0.00     0.039 A 
HETATM    9  O   UNK N   1      35.815  10.836  14.507  0.00  0.00    -0.346 OA
HETATM   10  C   UNK N   1      35.756  10.797  16.893  0.00  0.00     0.039 A 
HETATM   11  C   UNK N   1      35.395  11.386  13.310  0.00  0.00     0.209 C 
HETATM   12  C   UNK N   1      35.485  11.457  18.096  0.00  0.00     0.003 A 
HETATM   13  C   UNK N   1      35.047  12.787  18.084  0.00  0.00     0.003 A 
ENDBRANCH   3   4
ENDBRANCH   1   3
BRANCH   1  14
HETATM   14  C   UNK N   1      36.312  15.349  11.601  0.00  0.00     0.116 C 
BRANCH  14  15
HETATM   15  C   UNK N   1      35.279  16.399  11.218  0.00  0.00     0.046 C 
BRANCH  15  16
HETATM   16  C   UNK N   1      35.112  16.447   9.713  0.00  0.00     0.177 C 
BRANCH  16  17
HETATM   17  O   UNK N   1      34.265  17.472   9.358  0.00  0.00    -0.351 OA
BRANCH  17  18
HETATM   18  C   UNK N   1      33.490  17.436   8.250  0.00  0.00     0.071 A 
HETATM   19  C   UNK N   1      32.094  17.330   8.398  0.00  0.00     0.076 A 
HETATM   20  C   UNK N   1      31.324  17.258   7.243  0.00  0.00     0.107 A 
HETATM   21  O   UNK N   1      30.003  17.126   7.139  0.00  0.00    -0.323 OA
HETATM   22  C   UNK N   1      31.859  17.302   6.017  0.00  0.00     0.105 A 
HETATM   23  C   UNK N   1      29.669  17.081   5.781  0.00  0.00     0.352 A 
HETATM   24  O   UNK N   1      30.891  17.203   5.110  0.00  0.00    -0.323 OA
HETATM   25  C   UNK N   1      33.230  17.425   5.809  0.00  0.00     0.042 A 
HETATM   26  C   UNK N   1      34.056  17.485   6.945  0.00  0.00     0.039 A 
ENDBRANCH  17  18
ENDBRANCH  16  17
ENDBRANCH  15  16
ENDBRANCH  14  15
ENDBRANCH   1  14
TORSDOF 7
ENDMDL
MODEL 3
REMARK VINA RESULT:      -5.7      1.646      4.617
REMARK  7 active torsions:
REMARK  status: ('A' for Active; 'I' for Inactive)
REMARK    1  A    between atoms: O_4  and  C_15 
REMARK    2  A    between atoms: O_4  and  C_18 
REMARK    3  A    between atoms: N_7  and  C_9 
REMARK    4  A    between atoms: N_7  and  C_11 
REMARK    5  A    between atoms: C_8  and  C_9 
REMARK    6  A    between atoms: C_11  and  C_12 
REMARK    7  A    between atoms: C_12  and  C_15 
ROOT
HETATM    1  N   UNK N   1      27.238  29.864  -4.839  0.00  0.00    -0.419 N 
HETATM    2  H   UNK N   1      27.057  29.916  -5.841  0.00  0.00     0.153 HD
ENDROOT
BRANCH   1   3
HETATM    3  C   UNK N   1      26.266  29.529  -3.807  0.00  0.00     0.148 C 
BRANCH   3   4
HETATM    4  C   UNK N   1      25.768  28.099  -3.976  0.00  0.00     0.170 C 
HETATM    5  O   UNK N   1      25.937  27.696  -5.291  0.00  0.00    -0.339 OA
HETATM    6  C   UNK N   1      25.944  26.381  -5.621  0.00  0.00     0.102 A 
HETATM    7  C   UNK N   1      26.057  25.418  -4.604  0.00  0.00     0.102 A 
HETATM    8  C   UNK N   1      25.840  25.981  -6.955  0.00  0.00     0.039 A 
HETATM    9  O   UNK N   1      26.197  25.822  -3.322  0.00  0.00    -0.346 OA
HETATM   10  C   UNK N   1      26.039  24.058  -4.921  0.00  0.00     0.039 A 
HETATM   11  C   UNK N   1      26.492  27.138  -3.019  0.00  0.00     0.209 C 
HETATM   12  C   UNK N   1      25.926  23.658  -6.257  0.00  0.00     0.003 A 
HETATM   13  C   UNK N   1      25.832  24.618  -7.272  0.00  0.00     0.003 A 
ENDBRANCH   3   4
ENDBRANCH   1   3
BRANCH   1  14
HETATM   14  C   UNK N   1      28.515  30.108  -4.181  0.00  0.00     0.116 C 
BRANCH  14  15
HETATM   15  C   UNK N   1      29.656  29.956  -5.176  0.00  0.00     0.046 C 
BRANCH  15  16
HETATM   16  C   UNK N   1      30.276  28.578  -5.056  0.00  0.00     0.177 C 
BRANCH  16  17
HETATM   17  O   UNK N   1      29.329  27.606  -5.287  0.00  0.00    -0.351 OA
BRANCH  17  18
HETATM   18  C   UNK N   1      29.549  26.293  -5.046  0.00  0.00     0.071 A 
HETATM   19  C   UNK N   1      29.897  25.888  -3.743  0.00  0.00     0.076 A 
HETATM   20  C   UNK N   1      30.153  24.538  -3.532  0.00  0.00     0.107 A 
HETATM   21  O   UNK N   1      30.523  23.936  -2.403  0.00  0.00    -0.323 OA
HETATM   22  C   UNK N   1      30.065  23.627  -4.507  0.00  0.00     0.105 A 
HETATM   23  C   UNK N   1      30.684  22.570  -2.663  0.00  0.00     0.352 A 
HETATM   24  O   UNK N   1      30.374  22.428  -4.021  0.00  0.00    -0.323 OA
HETATM   25  C   UNK N   1      29.708  23.965  -5.810  0.00  0.00     0.042 A 
HETATM   26  C   UNK N   1      29.454  25.322  -6.081  0.00  0.00     0.039 A 
ENDBRANCH  17  18
ENDBRANCH  16  17
ENDBRANCH  15  16
ENDBRANCH  14  15
ENDBRANCH   1  14
TORSDOF 7
ENDMDL
MODEL 4
REMARK VINA RESULT:      -5.7     16.361     19.058
REMARK  7 active torsions:
REMARK  status: ('A' for Active; 'I' for Inactive)
REMARK    1  A    between atoms: O_4  and  C_15 
REMARK    2  A    between atoms: O_4  and  C_18 
REMARK    3  A    between atoms: N_7  and  C_9 
REMARK    4  A    between atoms: N_7  and  C_11 
REMARK    5  A    between atoms: C_8  and  C_9 
REMARK    6  A    between atoms: C_11  and  C_12 
REMARK    7  A    between atoms: C_12  and  C_15 
ROOT
HETATM    1  N   UNK N   1      34.052  15.245  10.902  0.00  0.00    -0.419 N 
HETATM    2  H   UNK N   1      33.500  14.599  11.467  0.00  0.00     0.153 HD
ENDROOT
BRANCH   1   3
HETATM    3  C   UNK N   1      35.276  15.917  11.315  0.00  0.00     0.148 C 
BRANCH   3   4
HETATM    4  C   UNK N   1      36.143  14.993  12.160  0.00  0.00     0.170 C 
HETATM    5  O   UNK N   1      35.406  14.503  13.227  0.00  0.00    -0.339 OA
HETATM    6  C   UNK N   1      35.797  13.389  13.892  0.00  0.00     0.102 A 
HETATM    7  C   UNK N   1      36.794  12.570  13.334  0.00  0.00     0.102 A 
HETATM    8  C   UNK N   1      35.221  13.052  15.118  0.00  0.00     0.039 A 
HETATM    9  O   UNK N   1      37.313  12.888  12.127  0.00  0.00    -0.346 OA
HETATM   10  C   UNK N   1      37.230  11.433  14.016  0.00  0.00     0.039 A 
HETATM   11  C   UNK N   1      36.711  13.836  11.321  0.00  0.00     0.209 C 
HETATM   12  C   UNK N   1      36.659  11.101  15.249  0.00  0.00     0.003 A 
HETATM   13  C   UNK N   1      35.652  11.907  15.796  0.00  0.00     0.003 A 
ENDBRANCH   3   4
ENDBRANCH   1   3
BRANCH   1  14
HETATM   14  C   UNK N   1      33.759  15.660   9.536  0.00  0.00     0.116 C 
BRANCH  14  15
HETATM   15  C   UNK N   1      34.870  16.557   9.010  0.00  0.00     0.046 C 
BRANCH  15  16
HETATM   16  C   UNK N   1      34.282  17.782   8.339  0.00  0.00     0.177 C 
BRANCH  16  17
HETATM   17  O   UNK N   1      34.371  17.666   6.970  0.00  0.00    -0.351 OA
BRANCH  17  18
HETATM   18  C   UNK N   1      33.288  17.525   6.172  0.00  0.00     0.071 A 
HETATM   19  C   UNK N   1      32.026  17.329   6.765  0.00  0.00     0.076 A 
HETATM   20  C   UNK N   1      30.936  17.150   5.921  0.00  0.00     0.107 A 
HETATM   21  O   UNK N   1      29.666  16.921   6.252  0.00  0.00    -0.323 OA
HETATM   22  C   UNK N   1      31.045  17.175   4.588  0.00  0.00     0.105 A 
HETATM   23  C   UNK N   1      28.920  16.789   5.076  0.00  0.00     0.352 A 
HETATM   24  O   UNK N   1      29.849  16.966   4.043  0.00  0.00    -0.323 OA
HETATM   25  C   UNK N   1      32.262  17.383   3.946  0.00  0.00     0.042 A 
HETATM   26  C   UNK N   1      33.401  17.554   4.754  0.00  0.00     0.039 A 
ENDBRANCH  17  18
ENDBRANCH  16  17
ENDBRANCH  15  16
ENDBRANCH  14  15
ENDBRANCH   1  14
TORSDOF 7
ENDMDL
MODEL 5
REMARK VINA RESULT:      -5.7     18.042     20.932
REMARK  7 active torsions:
REMARK  status: ('A' for Active; 'I' for Inactive)
REMARK    1  A    between atoms: O_4  and  C_15 
REMARK    2  A    between atoms: O_4  and  C_18 
REMARK    3  A    between atoms: N_7  and  C_9 
REMARK    4  A    between atoms: N_7  and  C_11 
REMARK    5  A    between atoms: C_8  and  C_9 
REMARK    6  A    between atoms: C_11  and  C_12 
REMARK    7  A    between atoms: C_12  and  C_15 
ROOT
HETATM    1  N   UNK N   1      37.217  13.867  11.635  0.00  0.00    -0.419 N 
HETATM    2  H   UNK N   1      37.996  14.268  12.156  0.00  0.00     0.153 HD
ENDROOT
BRANCH   1   3
HETATM    3  C   UNK N   1      36.473  12.666  11.990  0.00  0.00     0.148 C 
BRANCH   3   4
HETATM    4  C   UNK N   1      36.375  12.519  13.503  0.00  0.00     0.170 C 
HETATM    5  O   UNK N   1      36.773  13.695  14.117  0.00  0.00    -0.339 OA
HETATM    6  C   UNK N   1      36.422  13.967  15.397  0.00  0.00     0.102 A 
HETATM    7  C   UNK N   1      35.428  13.191  16.017  0.00  0.00     0.102 A 
HETATM    8  C   UNK N   1      37.038  15.005  16.100  0.00  0.00     0.039 A 
HETATM    9  O   UNK N   1      34.813  12.216  15.311  0.00  0.00    -0.346 OA
HETATM   10  C   UNK N   1      35.072  13.438  17.345  0.00  0.00     0.039 A 
HETATM   11  C   UNK N   1      34.950  12.138  13.937  0.00  0.00     0.209 C 
HETATM   12  C   UNK N   1      35.695  14.472  18.050  0.00  0.00     0.003 A 
HETATM   13  C   UNK N   1      36.673  15.258  17.427  0.00  0.00     0.003 A 
ENDBRANCH   3   4
ENDBRANCH   1   3
BRANCH   1  14
HETATM   14  C   UNK N   1      36.646  14.391  10.400  0.00  0.00     0.116 C 
BRANCH  14  15
HETATM   15  C   UNK N   1      35.202  14.814  10.627  0.00  0.00     0.046 C 
BRANCH  15  16
HETATM   16  C   UNK N   1      35.119  16.314  10.823  0.00  0.00     0.177 C 
BRANCH  16  17
HETATM   17  O   UNK N   1      35.372  16.966   9.637  0.00  0.00    -0.351 OA
BRANCH  17  18
HETATM   18  C   UNK N   1      34.482  17.014   8.619  0.00  0.00     0.071 A 
HETATM   19  C   UNK N   1      34.826  16.431   7.385  0.00  0.00     0.076 A 
HETATM   20  C   UNK N   1      33.908  16.527   6.345  0.00  0.00     0.107 A 
HETATM   21  O   UNK N   1      34.027  16.082   5.095  0.00  0.00    -0.323 OA
HETATM   22  C   UNK N   1      32.723  17.132   6.485  0.00  0.00     0.105 A 
HETATM   23  C   UNK N   1      32.864  16.417   4.394  0.00  0.00     0.352 A 
HETATM   24  O   UNK N   1      32.063  17.082   5.331  0.00  0.00    -0.323 OA
HETATM   25  C   UNK N   1      32.321  17.710   7.686  0.00  0.00     0.042 A 
HETATM   26  C   UNK N   1      33.221  17.655   8.765  0.00  0.00     0.039 A 
ENDBRANCH  17  18
ENDBRANCH  16  17
ENDBRANCH  15  16
ENDBRANCH  14  15
ENDBRANCH   1  14
TORSDOF 7
ENDMDL
MODEL 6
REMARK VINA RESULT:      -5.6     16.820     19.693
REMARK  7 active torsions:
REMARK  status: ('A' for Active; 'I' for Inactive)
REMARK    1  A    between atoms: O_4  and  C_15 
REMARK    2  A    between atoms: O_4  and  C_18 
REMARK    3  A    between atoms: N_7  and  C_9 
REMARK    4  A    between atoms: N_7  and  C_11 
REMARK    5  A    between atoms: C_8  and  C_9 
REMARK    6  A    between atoms: C_11  and  C_12 
REMARK    7  A    between atoms: C_12  and  C_15 
ROOT
HETATM    1  N   UNK N   1      33.941  14.630  10.983  0.00  0.00    -0.419 N 
HETATM    2  H   UNK N   1      33.232  14.028  11.400  0.00  0.00     0.153 HD
ENDROOT
BRANCH   1   3
HETATM    3  C   UNK N   1      35.093  15.203  11.666  0.00  0.00     0.148 C 
BRANCH   3   4
HETATM    4  C   UNK N   1      35.695  14.201  12.644  0.00  0.00     0.170 C 
HETATM    5  O   UNK N   1      34.692  13.414  13.187  0.00  0.00    -0.339 OA
HETATM    6  C   UNK N   1      34.977  12.223  13.767  0.00  0.00     0.102 A 
HETATM    7  C   UNK N   1      36.247  11.653  13.577  0.00  0.00     0.102 A 
HETATM    8  C   UNK N   1      34.024  11.564  14.546  0.00  0.00     0.039 A 
HETATM    9  O   UNK N   1      37.145  12.283  12.787  0.00  0.00    -0.346 OA
HETATM   10  C   UNK N   1      36.569  10.439  14.188  0.00  0.00     0.039 A 
HETATM   11  C   UNK N   1      36.759  13.325  11.963  0.00  0.00     0.209 C 
HETATM   12  C   UNK N   1      35.618   9.784  14.976  0.00  0.00     0.003 A 
HETATM   13  C   UNK N   1      34.345  10.343  15.150  0.00  0.00     0.003 A 
ENDBRANCH   3   4
ENDBRANCH   1   3
BRANCH   1  14
HETATM   14  C   UNK N   1      33.986  15.073   9.595  0.00  0.00     0.116 C 
BRANCH  14  15
HETATM   15  C   UNK N   1      34.619  16.454   9.504  0.00  0.00     0.046 C 
BRANCH  15  16
HETATM   16  C   UNK N   1      33.912  17.288   8.455  0.00  0.00     0.177 C 
BRANCH  16  17
HETATM   17  O   UNK N   1      34.646  17.314   7.291  0.00  0.00    -0.351 OA
BRANCH  17  18
HETATM   18  C   UNK N   1      34.169  16.857   6.110  0.00  0.00     0.071 A 
HETATM   19  C   UNK N   1      34.588  15.594   5.650  0.00  0.00     0.076 A 
HETATM   20  C   UNK N   1      34.111  15.165   4.416  0.00  0.00     0.107 A 
HETATM   21  O   UNK N   1      34.391  14.032   3.772  0.00  0.00    -0.323 OA
HETATM   22  C   UNK N   1      33.270  15.894   3.675  0.00  0.00     0.105 A 
HETATM   23  C   UNK N   1      33.698  14.032   2.556  0.00  0.00     0.352 A 
HETATM   24  O   UNK N   1      32.994  15.243   2.549  0.00  0.00    -0.323 OA
HETATM   25  C   UNK N   1      32.808  17.142   4.087  0.00  0.00     0.042 A 
HETATM   26  C   UNK N   1      33.273  17.630   5.321  0.00  0.00     0.039 A 
ENDBRANCH  17  18
ENDBRANCH  16  17
ENDBRANCH  15  16
ENDBRANCH  14  15
ENDBRANCH   1  14
TORSDOF 7
ENDMDL
MODEL 7
REMARK VINA RESULT:      -5.6     10.655     13.767
REMARK  7 active torsions:
REMARK  status: ('A' for Active; 'I' for Inactive)
REMARK    1  A    between atoms: O_4  and  C_15 
REMARK    2  A    between atoms: O_4  and  C_18 
REMARK    3  A    between atoms: N_7  and  C_9 
REMARK    4  A    between atoms: N_7  and  C_11 
REMARK    5  A    between atoms: C_8  and  C_9 
REMARK    6  A    between atoms: C_11  and  C_12 
REMARK    7  A    between atoms: C_12  and  C_15 
ROOT
HETATM    1  N   UNK N   1      27.405  19.712   3.846  0.00  0.00    -0.419 N 
HETATM    2  H   UNK N   1      28.034  19.031   3.422  0.00  0.00     0.153 HD
ENDROOT
BRANCH   1   3
HETATM    3  C   UNK N   1      26.304  20.395   3.181  0.00  0.00     0.148 C 
BRANCH   3   4
HETATM    4  C   UNK N   1      24.966  19.956   3.760  0.00  0.00     0.170 C 
HETATM    5  O   UNK N   1      23.931  20.498   3.015  0.00  0.00    -0.339 OA
HETATM    6  C   UNK N   1      22.684  19.970   3.067  0.00  0.00     0.102 A 
HETATM    7  C   UNK N   1      22.495  18.709   3.658  0.00  0.00     0.102 A 
HETATM    8  C   UNK N   1      21.593  20.665   2.541  0.00  0.00     0.039 A 
HETATM    9  O   UNK N   1      23.566  18.031   4.127  0.00  0.00    -0.346 OA
HETATM   10  C   UNK N   1      21.214  18.160   3.746  0.00  0.00     0.039 A 
HETATM   11  C   UNK N   1      24.853  18.423   3.807  0.00  0.00     0.209 C 
HETATM   12  C   UNK N   1      20.121  18.862   3.227  0.00  0.00     0.003 A 
HETATM   13  C   UNK N   1      20.312  20.110   2.620  0.00  0.00     0.003 A 
ENDBRANCH   3   4
ENDBRANCH   1   3
BRANCH   1  14
HETATM   14  C   UNK N   1      27.444  20.177   5.227  0.00  0.00     0.116 C 
BRANCH  14  15
HETATM   15  C   UNK N   1      28.476  19.387   6.018  0.00  0.00     0.046 C 
BRANCH  15  16
HETATM   16  C   UNK N   1      28.302  17.902   5.771  0.00  0.00     0.177 C 
BRANCH  16  17
HETATM   17  O   UNK N   1      29.250  17.452   4.879  0.00  0.00    -0.351 OA
BRANCH  17  18
HETATM   18  C   UNK N   1      30.573  17.433   5.160  0.00  0.00     0.071 A 
HETATM   19  C   UNK N   1      30.984  17.216   6.489  0.00  0.00     0.076 A 
HETATM   20  C   UNK N   1      32.349  17.238   6.756  0.00  0.00     0.107 A 
HETATM   21  O   UNK N   1      32.963  17.089   7.928  0.00  0.00    -0.323 OA
HETATM   22  C   UNK N   1      33.266  17.438   5.803  0.00  0.00     0.105 A 
HETATM   23  C   UNK N   1      34.342  17.200   7.723  0.00  0.00     0.352 A 
HETATM   24  O   UNK N   1      34.480  17.418   6.346  0.00  0.00    -0.323 OA
HETATM   25  C   UNK N   1      32.920  17.640   4.469  0.00  0.00     0.042 A 
HETATM   26  C   UNK N   1      31.551  17.644   4.148  0.00  0.00     0.039 A 
ENDBRANCH  17  18
ENDBRANCH  16  17
ENDBRANCH  15  16
ENDBRANCH  14  15
ENDBRANCH   1  14
TORSDOF 7
ENDMDL
MODEL 8
REMARK VINA RESULT:      -5.6     14.675     16.560
REMARK  7 active torsions:
REMARK  status: ('A' for Active; 'I' for Inactive)
REMARK    1  A    between atoms: O_4  and  C_15 
REMARK    2  A    between atoms: O_4  and  C_18 
REMARK    3  A    between atoms: N_7  and  C_9 
REMARK    4  A    between atoms: N_7  and  C_11 
REMARK    5  A    between atoms: C_8  and  C_9 
REMARK    6  A    between atoms: C_11  and  C_12 
REMARK    7  A    between atoms: C_12  and  C_15 
ROOT
HETATM    1  N   UNK N   1      21.377  14.346   5.379  0.00  0.00    -0.419 N 
HETATM    2  H   UNK N   1      22.360  14.507   5.161  0.00  0.00     0.153 HD
ENDROOT
BRANCH   1   3
HETATM    3  C   UNK N   1      20.792  14.283   6.712  0.00  0.00     0.148 C 
BRANCH   3   4
HETATM    4  C   UNK N   1      21.879  14.275   7.780  0.00  0.00     0.170 C 
HETATM    5  O   UNK N   1      21.495  13.462   8.834  0.00  0.00    -0.339 OA
HETATM    6  C   UNK N   1      22.410  12.977   9.709  0.00  0.00     0.102 A 
HETATM    7  C   UNK N   1      23.777  13.066   9.395  0.00  0.00     0.102 A 
HETATM    8  C   UNK N   1      22.006  12.393  10.911  0.00  0.00     0.039 A 
HETATM    9  O   UNK N   1      24.150  13.597   8.209  0.00  0.00    -0.346 OA
HETATM   10  C   UNK N   1      24.735  12.596  10.295  0.00  0.00     0.039 A 
HETATM   11  C   UNK N   1      23.227  13.810   7.202  0.00  0.00     0.209 C 
HETATM   12  C   UNK N   1      24.330  12.020  11.503  0.00  0.00     0.003 A 
HETATM   13  C   UNK N   1      22.967  11.913  11.808  0.00  0.00     0.003 A 
ENDBRANCH   3   4
ENDBRANCH   1   3
BRANCH   1  14
HETATM   14  C   UNK N   1      20.303  14.138   4.416  0.00  0.00     0.116 C 
BRANCH  14  15
HETATM   15  C   UNK N   1      19.188  15.147   4.647  0.00  0.00     0.046 C 
BRANCH  15  16
HETATM   16  C   UNK N   1      19.496  16.444   3.926  0.00  0.00     0.177 C 
BRANCH  16  17
HETATM   17  O   UNK N   1      20.396  17.192   4.652  0.00  0.00    -0.351 OA
BRANCH  17  18
HETATM   18  C   UNK N   1      21.169  18.154   4.098  0.00  0.00     0.071 A 
HETATM   19  C   UNK N   1      22.567  18.064   4.229  0.00  0.00     0.076 A 
HETATM   20  C   UNK N   1      23.336  19.086   3.682  0.00  0.00     0.107 A 
HETATM   21  O   UNK N   1      24.660  19.227   3.709  0.00  0.00    -0.323 OA
HETATM   22  C   UNK N   1      22.797  20.123   3.033  0.00  0.00     0.105 A 
HETATM   23  C   UNK N   1      24.992  20.414   3.047  0.00  0.00     0.352 A 
HETATM   24  O   UNK N   1      23.764  20.944   2.631  0.00  0.00    -0.323 OA
HETATM   25  C   UNK N   1      21.422  20.257   2.856  0.00  0.00     0.042 A 
HETATM   26  C   UNK N   1      20.598  19.258   3.405  0.00  0.00     0.039 A 
ENDBRANCH  17  18
ENDBRANCH  16  17
ENDBRANCH  15  16
ENDBRANCH  14  15
ENDBRANCH   1  14
TORSDOF 7
ENDMDL
MODEL 9
REMARK VINA RESULT:      -5.6     11.574     14.670
REMARK  7 active torsions:
REMARK  status: ('A' for Active; 'I' for Inactive)
REMARK    1  A    between atoms: O_4  and  C_15 
REMARK    2  A    between atoms: O_4  and  C_18 
REMARK    3  A    between atoms: N_7  and  C_9 
REMARK    4  A    between atoms: N_7  and  C_11 
REMARK    5  A    between atoms: C_8  and  C_9 
REMARK    6  A    between atoms: C_11  and  C_12 
REMARK    7  A    between atoms: C_12  and  C_15 
ROOT
HETATM    1  N   UNK N   1      27.041  17.064   7.348  0.00  0.00    -0.419 N 
HETATM    2  H   UNK N   1      26.047  17.283   7.279  0.00  0.00     0.153 HD
ENDROOT
BRANCH   1   3
HETATM    3  C   UNK N   1      27.979  16.975   6.237  0.00  0.00     0.148 C 
BRANCH   3   4
HETATM    4  C   UNK N   1      27.408  17.641   4.992  0.00  0.00     0.170 C 
HETATM    5  O   UNK N   1      26.042  17.820   5.139  0.00  0.00    -0.339 OA
HETATM    6  C   UNK N   1      25.369  18.714   4.375  0.00  0.00     0.102 A 
HETATM    7  C   UNK N   1      26.092  19.659   3.626  0.00  0.00     0.102 A 
HETATM    8  C   UNK N   1      23.974  18.704   4.327  0.00  0.00     0.039 A 
HETATM    9  O   UNK N   1      27.440  19.682   3.713  0.00  0.00    -0.346 OA
HETATM   10  C   UNK N   1      25.418  20.571   2.811  0.00  0.00     0.039 A 
HETATM   11  C   UNK N   1      28.101  18.984   4.708  0.00  0.00     0.209 C 
HETATM   12  C   UNK N   1      24.020  20.554   2.757  0.00  0.00     0.003 A 
HETATM   13  C   UNK N   1      23.300  19.625   3.519  0.00  0.00     0.003 A 
ENDBRANCH   3   4
ENDBRANCH   1   3
BRANCH   1  14
HETATM   14  C   UNK N   1      27.778  16.783   8.573  0.00  0.00     0.116 C 
BRANCH  14  15
HETATM   15  C   UNK N   1      28.552  18.017   9.014  0.00  0.00     0.046 C 
BRANCH  15  16
HETATM   16  C   UNK N   1      29.950  17.631   9.453  0.00  0.00     0.177 C 
BRANCH  16  17
HETATM   17  O   UNK N   1      30.882  18.446   8.851  0.00  0.00    -0.351 OA
BRANCH  17  18
HETATM   18  C   UNK N   1      31.910  17.968   8.112  0.00  0.00     0.071 A 
HETATM   19  C   UNK N   1      31.628  17.129   7.017  0.00  0.00     0.076 A 
HETATM   20  C   UNK N   1      32.705  16.622   6.297  0.00  0.00     0.107 A 
HETATM   21  O   UNK N   1      32.683  15.795   5.253  0.00  0.00    -0.323 OA
HETATM   22  C   UNK N   1      33.974  16.916   6.598  0.00  0.00     0.105 A 
HETATM   23  C   UNK N   1      34.002  15.541   4.863  0.00  0.00     0.352 A 
HETATM   24  O   UNK N   1      34.786  16.286   5.753  0.00  0.00    -0.323 OA
HETATM   25  C   UNK N   1      34.312  17.754   7.657  0.00  0.00     0.042 A 
HETATM   26  C   UNK N   1      33.261  18.280   8.429  0.00  0.00     0.039 A 
ENDBRANCH  17  18
ENDBRANCH  16  17
ENDBRANCH  15  16
ENDBRANCH  14  15
ENDBRANCH   1  14
TORSDOF 7
ENDMDL
