REMARK  7 active torsions:
REMARK  status: ('A' for Active; 'I' for Inactive)
REMARK    1  A    between atoms: C_19  and  C_20 
REMARK    2  A    between atoms: C_19  and  C_21 
REMARK    3  A    between atoms: C_20  and  C_22 
REMARK    4  A    between atoms: C_21  and  C_23 
REMARK    5  A    between atoms: C_22  and  C_24 
REMARK    6  A    between atoms: C_23  and  C_25 
REMARK    7  A    between atoms: C_24  and  C_26 
ROOT
HETATM    1  F   UNK N   1       4.693   1.125  -1.199  0.00  0.00    -0.192 F 
HETATM    2  F   UNK N   1       5.985  -0.705  -0.983  0.00  0.00    -0.192 F 
HETATM    3  C   UNK N   1       5.342   0.307  -0.286  0.00  0.00     0.384 C 
ENDROOT
BRANCH   3   4
HETATM    4  C   UNK N   1       4.286  -0.322   0.663  0.00  0.00     0.384 C 
HETATM    5  F   UNK N   1       3.581   0.695   1.286  0.00  0.00    -0.192 F 
HETATM    6  F   UNK N   1       4.937  -1.066   1.635  0.00  0.00    -0.192 F 
BRANCH   4   7
HETATM    7  C   UNK N   1       3.294  -1.253  -0.085  0.00  0.00     0.387 C 
HETATM    8  F   UNK N   1       2.657  -0.538  -1.088  0.00  0.00    -0.192 F 
HETATM    9  F   UNK N   1       4.006  -2.288  -0.668  0.00  0.00    -0.192 F 
BRANCH   7  10
HETATM   10  C   UNK N   1       2.219  -1.853   0.862  0.00  0.00     0.409 C 
HETATM   11  F   UNK N   1       2.832  -2.520   1.909  0.00  0.00    -0.189 F 
HETATM   12  F   UNK N   1       1.444  -0.831   1.385  0.00  0.00    -0.189 F 
BRANCH  10  13
HETATM   13  C   UNK N   1       1.291  -2.850   0.146  0.00  0.00     0.461 C 
HETATM   14  F   UNK N   1       0.633  -2.243  -0.905  0.00  0.00    -0.165 F 
HETATM   15  F   UNK N   1       0.350  -3.322   1.045  0.00  0.00    -0.165 F 
HETATM   16  F   UNK N   1       2.015  -3.929  -0.332  0.00  0.00    -0.165 F 
ENDBRANCH  10  13
ENDBRANCH   7  10
ENDBRANCH   4   7
ENDBRANCH   3   4
BRANCH   3  17
HETATM   17  C   UNK N   1       6.414   1.131   0.478  0.00  0.00     0.385 C 
HETATM   18  F   UNK N   1       7.106   0.277   1.321  0.00  0.00    -0.192 F 
HETATM   19  F   UNK N   1       5.783   2.094   1.249  0.00  0.00    -0.192 F 
BRANCH  17  20
HETATM   20  C   UNK N   1       7.419   1.825  -0.482  0.00  0.00     0.388 C 
HETATM   21  F   UNK N   1       6.755   2.797  -1.215  0.00  0.00    -0.191 F 
HETATM   22  F   UNK N   1       7.937   0.894  -1.368  0.00  0.00    -0.191 F 
BRANCH  20  23
HETATM   23  C   UNK N   1       8.625   2.479   0.232  0.00  0.00     0.370 C 
HETATM   24 Br   UNK N   1       8.124   3.859   1.507  0.00  0.00    -0.004 Br
HETATM   25  F   UNK N   1       9.436   3.068  -0.720  0.00  0.00    -0.186 F 
HETATM   26  F   UNK N   1       9.363   1.517   0.891  0.00  0.00    -0.186 F 
ENDBRANCH  20  23
ENDBRANCH  17  20
ENDBRANCH   3  17
TORSDOF 7
