REMARK  5 active torsions:
REMARK  status: ('A' for Active; 'I' for Inactive)
REMARK    1  A    between atoms: S_2  and  N_10 
REMARK    2  A    between atoms: S_2  and  C_14 
REMARK    3  A    between atoms: O_4  and  C_25 
REMARK    4  A    between atoms: N_7  and  C_12 
REMARK    5  A    between atoms: C_11  and  C_13 
ROOT
HETATM    1 Cl   UNK N   1       5.203  -5.513   0.508  0.00  0.00    -0.062 Cl
HETATM    2  N   UNK N   1       6.830  -1.936   0.416  0.00  0.00    -0.304 N 
HETATM    3  N   UNK N   1       7.504  -4.049   0.682  0.00  0.00    -0.341 N 
ATOM      4  HN  UNK N   1       8.103  -4.861   0.830  1.00  0.00     0.167 HD
HETATM    5  C   UNK N   1       5.734  -2.743   0.343  0.00  0.00     0.089 A 
HETATM    6  C   UNK N   1       7.881  -2.752   0.642  0.00  0.00     0.190 A 
HETATM    7  C   UNK N   1       6.171  -4.047   0.485  0.00  0.00     0.132 A 
ENDROOT
BRANCH   2   8
HETATM    8  C   UNK N   1       6.937  -0.508   0.226  0.00  0.00     0.040 A 
HETATM    9  C   UNK N   1       6.049   0.159  -0.627  0.00  0.00     0.031 A 
HETATM   10  C   UNK N   1       6.104   1.535  -0.792  0.00  0.00     0.027 A 
HETATM   11  C   UNK N   1       7.066   2.276  -0.117  0.00  0.00     0.079 A 
HETATM   12  C   UNK N   1       8.007   1.627   0.695  0.00  0.00     0.027 A 
HETATM   13  C   UNK N   1       7.954   0.233   0.854  0.00  0.00     0.031 A 
BRANCH  11  14
HETATM   14  S   UNK N   1       7.045   4.054  -0.278  0.00  0.00     0.256 S 
HETATM   15  O   UNK N   1       5.610   4.603  -0.271  0.00  0.00    -0.201 OA
HETATM   16  O   UNK N   1       7.575   4.553  -1.630  0.00  0.00    -0.201 OA
BRANCH  14  17
HETATM   17  N   UNK N   1       7.882   5.008   0.946  0.00  0.00    -0.324 N 
HETATM   18  H   UNK N   1       8.602   4.865   1.654  0.00  0.00     0.169 HD
HETATM   19  H   UNK N   1       7.554   5.974   0.946  0.00  0.00     0.169 HD
ENDBRANCH  14  17
ENDBRANCH  11  14
ENDBRANCH   2   8
BRANCH   5  20
HETATM   20  C   UNK N   1       4.310  -2.298   0.216  0.00  0.00    -0.003 A 
HETATM   21  C   UNK N   1       3.937  -1.011   0.624  0.00  0.00     0.059 A 
HETATM   22  C   UNK N   1       2.626  -0.563   0.527  0.00  0.00     0.150 A 
HETATM   23  F   UNK N   1       2.323   0.703   0.908  0.00  0.00    -0.203 F 
HETATM   24  C   UNK N   1       1.635  -1.410   0.028  0.00  0.00     0.106 A 
HETATM   25  C   UNK N   1       1.982  -2.722  -0.350  0.00  0.00     0.041 A 
HETATM   26  C   UNK N   1       3.308  -3.164  -0.244  0.00  0.00     0.017 A 
BRANCH  24  27
HETATM   27  O   UNK N   1       0.367  -0.946  -0.079  0.00  0.00    -0.353 OA
HETATM   28  C   UNK N   1      -0.670  -1.692  -0.586  0.00  0.00     0.210 C 
ENDBRANCH  24  27
ENDBRANCH   5  20
TORSDOF 5
