REMARK  2 active torsions:
REMARK  status: ('A' for Active; 'I' for Inactive)
REMARK    1  A    between atoms: O_1  and  C_18 
REMARK    2  A    between atoms: C_9  and  C_21 
ROOT
HETATM    1  C   UNK N   1       2.058   1.172   0.223  0.00  0.00    -0.030 C 
HETATM    2  C   UNK N   1      -1.849  -0.804  -0.053  0.00  0.00    -0.036 C 
HETATM    3  C   UNK N   1      -0.493  -0.311   0.527  0.00  0.00    -0.002 C 
HETATM    4  C   UNK N   1       2.009  -0.351   0.293  0.00  0.00    -0.001 C 
HETATM    5  C   UNK N   1       0.696  -0.886  -0.302  0.00  0.00    -0.005 C 
HETATM    6  C   UNK N   1      -1.852  -2.359  -0.093  0.00  0.00    -0.003 C 
HETATM    7  C   UNK N   1       3.479   1.419   0.722  0.00  0.00     0.063 C 
HETATM    8  C   UNK N   1       0.941   1.743   1.099  0.00  0.00     0.011 C 
HETATM    9  C   UNK N   1      -0.425   1.236   0.597  0.00  0.00     0.006 C 
HETATM   10  C   UNK N   1       0.654  -2.415  -0.282  0.00  0.00     0.006 C 
HETATM   11  C   UNK N   1       3.306  -0.771  -0.379  0.00  0.00     0.006 C 
HETATM   12  C   UNK N   1      -3.010  -0.309   0.840  0.00  0.00     0.013 C 
HETATM   13  C   UNK N   1      -0.662  -2.913  -0.880  0.00  0.00     0.006 C 
HETATM   14  C   UNK N   1       4.311   0.307   0.058  0.00  0.00     0.013 C 
HETATM   15  C   UNK N   1      -3.156  -2.917  -0.686  0.00  0.00     0.043 C 
HETATM   16  C   UNK N   1      -4.417  -2.128  -0.297  0.00  0.00     0.054 C 
HETATM   17  C   UNK N   1       1.906   1.699  -1.219  0.00  0.00     0.016 C 
HETATM   18  C   UNK N   1      -2.049  -0.230  -1.462  0.00  0.00     0.016 C 
HETATM   19  C   UNK N   1      -4.200  -1.281   0.958  0.00  0.00     0.038 C 
HETATM   20  C   UNK N   1      -5.539  -3.112  -0.040  0.00  0.00     0.045 C 
ENDROOT
BRANCH   7  21
HETATM   21  C   UNK N   1       4.000   2.822   0.492  0.00  0.00     0.128 C 
HETATM   22  O   UNK N   1       3.404   3.773   0.966  0.00  0.00    -0.298 OA
HETATM   23  C   UNK N   1       5.233   3.066  -0.319  0.00  0.00     0.091 C 
ENDBRANCH   7  21
BRANCH  16  24
HETATM   24  O   UNK N   1      -4.792  -1.300  -1.356  0.00  0.00    -0.390 OA
HETATM   25  H   UNK N   1      -4.424  -0.787  -2.092  0.00  0.00     0.210 HD
ENDBRANCH  16  24
TORSDOF 2
