REMARK  14 active torsions:
REMARK  status: ('A' for Active; 'I' for Inactive)
REMARK    1  A    between atoms: O_1  and  C_18 
REMARK    2  A    between atoms: O_1  and  C_19 
REMARK    3  A    between atoms: O_2  and  C_20 
REMARK    4  A    between atoms: O_3  and  C_21 
REMARK    5  A    between atoms: C_6  and  C_8 
REMARK    6  A    between atoms: C_6  and  C_20 
REMARK    7  A    between atoms: C_7  and  C_9 
REMARK    8  A    between atoms: C_7  and  C_21 
REMARK    9  A    between atoms: C_8  and  C_10 
REMARK   10  A    between atoms: C_9  and  C_11 
REMARK   11  A    between atoms: C_10  and  C_12 
REMARK   12  A    between atoms: C_11  and  C_13 
REMARK   13  A    between atoms: C_12  and  C_18 
REMARK   14  A    between atoms: C_13  and  C_19 
ROOT
HETATM    1  O   UNK N   1       7.138  -2.354  -0.228  0.00  0.00    -0.391 OA
ENDROOT
BRANCH   1   2
HETATM    2  C   UNK N   1       8.244  -1.507  -0.136  0.00  0.00     0.167 C 
BRANCH   2   3
HETATM    3  C   UNK N   1       9.048  -1.830   1.112  0.00  0.00     0.026 C 
BRANCH   3   4
HETATM    4  C   UNK N   1       9.699  -0.562   1.637  0.00  0.00     0.003 C 
BRANCH   4   5
HETATM    5  C   UNK N   1      11.178  -0.421   1.260  0.00  0.00     0.020 C 
BRANCH   5   6
HETATM    6  C   UNK N   1      11.487  -0.172  -0.226  0.00  0.00     0.038 C 
HETATM    7  C   UNK N   1      11.373  -1.468  -1.011  0.00  0.00     0.026 C 
HETATM    8  C   UNK N   1      10.512   0.845  -0.816  0.00  0.00     0.026 C 
BRANCH   6   9
HETATM    9  C   UNK N   1      12.909   0.329  -0.333  0.00  0.00     0.147 C 
HETATM   10  O   UNK N   1      13.154   1.423  -0.819  0.00  0.00    -0.649 OA
BRANCH   9  11
HETATM   11  O   UNK N   1      13.925  -0.433   0.120  0.00  0.00    -0.776 OA
HETATM   12  H   UNK N   1      13.820  -1.309   0.435  0.00  0.00     0.167 HD
ENDBRANCH   9  11
ENDBRANCH   6   9
ENDBRANCH   5   6
ENDBRANCH   4   5
ENDBRANCH   3   4
ENDBRANCH   2   3
ENDBRANCH   1   2
BRANCH   1  13
HETATM   13  C   UNK N   1       6.043  -1.528   0.035  0.00  0.00     0.167 C 
BRANCH  13  14
HETATM   14  C   UNK N   1       5.105  -1.507  -1.158  0.00  0.00     0.026 C 
BRANCH  14  15
HETATM   15  C   UNK N   1       4.682  -0.074  -1.422  0.00  0.00     0.003 C 
BRANCH  15  16
HETATM   16  C   UNK N   1       3.162   0.098  -1.434  0.00  0.00     0.020 C 
BRANCH  16  17
HETATM   17  C   UNK N   1       2.499   0.120  -0.047  0.00  0.00     0.038 C 
HETATM   18  C   UNK N   1       2.568  -1.263   0.587  0.00  0.00     0.026 C 
HETATM   19  C   UNK N   1       3.203   1.108   0.874  0.00  0.00     0.026 C 
BRANCH  17  20
HETATM   20  C   UNK N   1       1.061   0.554  -0.211  0.00  0.00     0.147 C 
HETATM   21  O   UNK N   1       0.806   1.661  -0.662  0.00  0.00    -0.649 OA
BRANCH  20  22
HETATM   22  O   UNK N   1       0.047  -0.267   0.132  0.00  0.00    -0.776 OA
HETATM   23  H   UNK N   1      -0.799   0.058   0.370  0.00  0.00     0.167 HD
ENDBRANCH  20  22
ENDBRANCH  17  20
ENDBRANCH  16  17
ENDBRANCH  15  16
ENDBRANCH  14  15
ENDBRANCH  13  14
ENDBRANCH   1  13
TORSDOF 14
