REMARK  4 active torsions:
REMARK  status: ('A' for Active; 'I' for Inactive)
REMARK    1  A    between atoms: S_1  and  S_2 
REMARK    2  A    between atoms: S_1  and  C_6 
REMARK    3  A    between atoms: S_2  and  C_10 
REMARK    4  A    between atoms: C_6  and  C_7 
ROOT
HETATM    1  N   UNK N   1       1.551  -0.306   0.236  0.00  0.00    -0.345 N 
HETATM    2  N   UNK N   1       1.207   1.883  -0.066  0.00  0.00    -0.345 N 
ATOM      3  HN  UNK N   1       1.382   2.884  -0.154  1.00  0.00     0.167 HD
HETATM    4  C   UNK N   1       2.109   0.915   0.171  0.00  0.00     0.154 A 
HETATM    5  C   UNK N   1       0.238  -0.105   0.021  0.00  0.00     0.107 A 
HETATM    6  C   UNK N   1       0.025   1.249  -0.163  0.00  0.00     0.107 A 
HETATM    7  H   UNK N   1       2.005  -1.163   0.405  0.00  0.00     0.167 HD
ENDROOT
BRANCH   4   8
HETATM    8  S   UNK N   1       3.851   1.246   0.423  0.00  0.00    -0.021 SA
BRANCH   8   9
HETATM    9  S   UNK N   1       4.547  -0.453  -0.665  0.00  0.00    -0.085 SA
BRANCH   9  10
HETATM   10  C   UNK N   1       6.159  -0.376   0.168  0.00  0.00     0.054 C 
HETATM   11  C   UNK N   1       6.767  -1.765   0.251  0.00  0.00     0.022 C 
BRANCH  10  12
HETATM   12  C   UNK N   1       7.067   0.569  -0.601  0.00  0.00     0.011 C 
HETATM   13  C   UNK N   1       8.285   0.936   0.225  0.00  0.00     0.006 C 
ENDBRANCH  10  12
ENDBRANCH   9  10
ENDBRANCH   8   9
ENDBRANCH   4   8
TORSDOF 4
