MODEL 1
REMARK VINA RESULT:      -4.8      0.000      0.000
REMARK  13 active torsions:
REMARK  status: ('A' for Active; 'I' for Inactive)
REMARK    1  A    between atoms: S_1  and  S_2 
REMARK    2  A    between atoms: S_1  and  C_13 
REMARK    3  A    between atoms: S_2  and  C_14 
REMARK    4  A    between atoms: N_5  and  C_9 
REMARK       I    between atoms: N_5  and  C_15 
REMARK    5  A    between atoms: N_6  and  C_10 
REMARK       I    between atoms: N_6  and  C_16 
REMARK    6  A    between atoms: N_7  and  C_17 
REMARK    7  A    between atoms: N_8  and  C_18 
REMARK    8  A    between atoms: C_9  and  C_13 
REMARK    9  A    between atoms: C_10  and  C_14 
REMARK   10  A    between atoms: C_11  and  C_15 
REMARK   11  A    between atoms: C_11  and  C_17 
REMARK   12  A    between atoms: C_12  and  C_16 
REMARK   13  A    between atoms: C_12  and  C_18 
ROOT
HETATM    1  S   UNK N   1      20.945  15.683   5.457  0.00  0.00    -0.096 SA
ENDROOT
BRANCH   1   2
HETATM    2  S   UNK N   1      20.428  15.983   7.508  0.00  0.00    -0.096 SA
BRANCH   2   3
HETATM    3  C   UNK N   1      20.915  14.295   7.988  0.00  0.00     0.105 C 
BRANCH   3   4
HETATM    4  C   UNK N   1      20.812  14.116   9.495  0.00  0.00     0.133 C 
BRANCH   4   5
HETATM    5  N   UNK N   1      22.050  13.567   9.996  0.00  0.00    -0.360 N 
HETATM    6  C   UNK N   1      22.090  12.549  10.891  0.00  0.00     0.219 C 
HETATM    7  O   UNK N   1      21.055  12.051  11.314  0.00  0.00    -0.274 OA
HETATM    8  H   UNK N   1      22.900  13.946   9.674  0.00  0.00     0.162 HD
BRANCH   6   9
HETATM    9  C   UNK N   1      23.430  12.044  11.354  0.00  0.00     0.121 C 
BRANCH   9  10
HETATM   10  C   UNK N   1      24.532  12.213  10.317  0.00  0.00     0.120 C 
BRANCH  10  11
HETATM   11  N   UNK N   1      25.479  13.212  10.779  0.00  0.00    -0.430 N 
HETATM   12  H   UNK N   1      26.458  13.156  10.495  0.00  0.00     0.149 HD
HETATM   13  H   UNK N   1      25.167  13.968  11.387  0.00  0.00     0.149 HD
ENDBRANCH  10  11
ENDBRANCH   9  10
ENDBRANCH   6   9
ENDBRANCH   4   5
ENDBRANCH   3   4
ENDBRANCH   2   3
ENDBRANCH   1   2
BRANCH   1  14
HETATM   14  C   UNK N   1      22.333  16.860   5.525  0.00  0.00     0.105 C 
BRANCH  14  15
HETATM   15  C   UNK N   1      21.818  18.289   5.624  0.00  0.00     0.133 C 
BRANCH  15  16
HETATM   16  N   UNK N   1      20.941  18.557   4.508  0.00  0.00    -0.360 N 
HETATM   17  C   UNK N   1      21.263  19.426   3.517  0.00  0.00     0.219 C 
HETATM   18  O   UNK N   1      22.330  20.024   3.537  0.00  0.00    -0.274 OA
HETATM   19  H   UNK N   1      20.075  18.092   4.464  0.00  0.00     0.162 HD
BRANCH  17  20
HETATM   20  C   UNK N   1      20.283  19.640   2.395  0.00  0.00     0.121 C 
BRANCH  20  21
HETATM   21  C   UNK N   1      20.940  20.062   1.089  0.00  0.00     0.120 C 
BRANCH  21  22
HETATM   22  N   UNK N   1      20.295  21.263   0.592  0.00  0.00    -0.430 N 
HETATM   23  H   UNK N   1      20.327  22.124   1.139  0.00  0.00     0.149 HD
HETATM   24  H   UNK N   1      19.809  21.247  -0.305  0.00  0.00     0.149 HD
ENDBRANCH  21  22
ENDBRANCH  20  21
ENDBRANCH  17  20
ENDBRANCH  15  16
ENDBRANCH  14  15
ENDBRANCH   1  14
TORSDOF 13
ENDMDL
MODEL 2
REMARK VINA RESULT:      -4.7      1.228      9.451
REMARK  13 active torsions:
REMARK  status: ('A' for Active; 'I' for Inactive)
REMARK    1  A    between atoms: S_1  and  S_2 
REMARK    2  A    between atoms: S_1  and  C_13 
REMARK    3  A    between atoms: S_2  and  C_14 
REMARK    4  A    between atoms: N_5  and  C_9 
REMARK       I    between atoms: N_5  and  C_15 
REMARK    5  A    between atoms: N_6  and  C_10 
REMARK       I    between atoms: N_6  and  C_16 
REMARK    6  A    between atoms: N_7  and  C_17 
REMARK    7  A    between atoms: N_8  and  C_18 
REMARK    8  A    between atoms: C_9  and  C_13 
REMARK    9  A    between atoms: C_10  and  C_14 
REMARK   10  A    between atoms: C_11  and  C_15 
REMARK   11  A    between atoms: C_11  and  C_17 
REMARK   12  A    between atoms: C_12  and  C_16 
REMARK   13  A    between atoms: C_12  and  C_18 
ROOT
HETATM    1  S   UNK N   1      21.457  14.675   6.623  0.00  0.00    -0.096 SA
ENDROOT
BRANCH   1   2
HETATM    2  S   UNK N   1      23.205  15.760   6.044  0.00  0.00    -0.096 SA
BRANCH   2   3
HETATM    3  C   UNK N   1      22.293  17.322   5.832  0.00  0.00     0.105 C 
BRANCH   3   4
HETATM    4  C   UNK N   1      21.267  17.195   4.716  0.00  0.00     0.133 C 
BRANCH   4   5
HETATM    5  N   UNK N   1      21.640  18.065   3.624  0.00  0.00    -0.360 N 
HETATM    6  C   UNK N   1      21.298  19.376   3.583  0.00  0.00     0.219 C 
HETATM    7  O   UNK N   1      20.646  19.877   4.490  0.00  0.00    -0.274 OA
HETATM    8  H   UNK N   1      22.165  17.691   2.880  0.00  0.00     0.162 HD
BRANCH   6   9
HETATM    9  C   UNK N   1      21.734  20.202   2.403  0.00  0.00     0.121 C 
BRANCH   9  10
HETATM   10  C   UNK N   1      20.593  20.961   1.741  0.00  0.00     0.120 C 
BRANCH  10  11
HETATM   11  N   UNK N   1      20.666  20.781   0.301  0.00  0.00    -0.430 N 
HETATM   12  H   UNK N   1      21.571  20.642  -0.149  0.00  0.00     0.149 HD
HETATM   13  H   UNK N   1      19.814  20.795  -0.258  0.00  0.00     0.149 HD
ENDBRANCH  10  11
ENDBRANCH   9  10
ENDBRANCH   6   9
ENDBRANCH   4   5
ENDBRANCH   3   4
ENDBRANCH   2   3
ENDBRANCH   1   2
BRANCH   1  14
HETATM   14  C   UNK N   1      21.117  15.770   8.038  0.00  0.00     0.105 C 
BRANCH  14  15
HETATM   15  C   UNK N   1      20.639  14.963   9.236  0.00  0.00     0.133 C 
BRANCH  15  16
HETATM   16  N   UNK N   1      21.692  14.070   9.659  0.00  0.00    -0.360 N 
HETATM   17  C   UNK N   1      21.450  12.927  10.348  0.00  0.00     0.219 C 
HETATM   18  O   UNK N   1      20.305  12.608  10.640  0.00  0.00    -0.274 OA
HETATM   19  H   UNK N   1      22.624  14.300   9.439  0.00  0.00     0.162 HD
BRANCH  17  20
HETATM   20  C   UNK N   1      22.614  12.061  10.745  0.00  0.00     0.121 C 
BRANCH  20  21
HETATM   21  C   UNK N   1      23.936  12.505  10.135  0.00  0.00     0.120 C 
BRANCH  21  22
HETATM   22  N   UNK N   1      24.980  12.432  11.141  0.00  0.00    -0.430 N 
HETATM   23  H   UNK N   1      25.953  12.319  10.860  0.00  0.00     0.149 HD
HETATM   24  H   UNK N   1      24.739  12.495  12.131  0.00  0.00     0.149 HD
ENDBRANCH  21  22
ENDBRANCH  20  21
ENDBRANCH  17  20
ENDBRANCH  15  16
ENDBRANCH  14  15
ENDBRANCH   1  14
TORSDOF 13
ENDMDL
MODEL 3
REMARK VINA RESULT:      -4.7     12.818     14.815
REMARK  13 active torsions:
REMARK  status: ('A' for Active; 'I' for Inactive)
REMARK    1  A    between atoms: S_1  and  S_2 
REMARK    2  A    between atoms: S_1  and  C_13 
REMARK    3  A    between atoms: S_2  and  C_14 
REMARK    4  A    between atoms: N_5  and  C_9 
REMARK       I    between atoms: N_5  and  C_15 
REMARK    5  A    between atoms: N_6  and  C_10 
REMARK       I    between atoms: N_6  and  C_16 
REMARK    6  A    between atoms: N_7  and  C_17 
REMARK    7  A    between atoms: N_8  and  C_18 
REMARK    8  A    between atoms: C_9  and  C_13 
REMARK    9  A    between atoms: C_10  and  C_14 
REMARK   10  A    between atoms: C_11  and  C_15 
REMARK   11  A    between atoms: C_11  and  C_17 
REMARK   12  A    between atoms: C_12  and  C_16 
REMARK   13  A    between atoms: C_12  and  C_18 
ROOT
HETATM    1  S   UNK N   1      34.972  14.462  11.064  0.00  0.00    -0.096 SA
ENDROOT
BRANCH   1   2
HETATM    2  S   UNK N   1      36.412  12.943  10.631  0.00  0.00    -0.096 SA
BRANCH   2   3
HETATM    3  C   UNK N   1      36.985  12.847  12.357  0.00  0.00     0.105 C 
BRANCH   3   4
HETATM    4  C   UNK N   1      36.007  13.552  13.286  0.00  0.00     0.133 C 
BRANCH   4   5
HETATM    5  N   UNK N   1      36.719  14.531  14.074  0.00  0.00    -0.360 N 
HETATM    6  C   UNK N   1      36.820  14.451  15.424  0.00  0.00     0.219 C 
HETATM    7  O   UNK N   1      36.299  13.526  16.032  0.00  0.00    -0.274 OA
HETATM    8  H   UNK N   1      37.149  15.287  13.613  0.00  0.00     0.162 HD
BRANCH   6   9
HETATM    9  C   UNK N   1      37.583  15.520  16.157  0.00  0.00     0.121 C 
BRANCH   9  10
HETATM   10  C   UNK N   1      36.727  16.316  17.131  0.00  0.00     0.120 C 
BRANCH  10  11
HETATM   11  N   UNK N   1      36.320  15.457  18.229  0.00  0.00    -0.430 N 
HETATM   12  H   UNK N   1      35.801  15.847  19.016  0.00  0.00     0.149 HD
HETATM   13  H   UNK N   1      36.553  14.465  18.213  0.00  0.00     0.149 HD
ENDBRANCH  10  11
ENDBRANCH   9  10
ENDBRANCH   6   9
ENDBRANCH   4   5
ENDBRANCH   3   4
ENDBRANCH   2   3
ENDBRANCH   1   2
BRANCH   1  14
HETATM   14  C   UNK N   1      36.091  15.811  10.567  0.00  0.00     0.105 C 
BRANCH  14  15
HETATM   15  C   UNK N   1      35.357  17.144  10.571  0.00  0.00     0.133 C 
BRANCH  15  16
HETATM   16  N   UNK N   1      34.350  17.135   9.535  0.00  0.00    -0.360 N 
HETATM   17  C   UNK N   1      34.327  18.044   8.529  0.00  0.00     0.219 C 
HETATM   18  O   UNK N   1      35.178  18.921   8.463  0.00  0.00    -0.274 OA
HETATM   19  H   UNK N   1      33.651  16.442   9.561  0.00  0.00     0.162 HD
BRANCH  17  20
HETATM   20  C   UNK N   1      33.236  17.953   7.496  0.00  0.00     0.121 C 
BRANCH  20  21
HETATM   21  C   UNK N   1      31.847  17.788   8.096  0.00  0.00     0.120 C 
BRANCH  21  22
HETATM   22  N   UNK N   1      31.001  17.070   7.160  0.00  0.00    -0.430 N 
HETATM   23  H   UNK N   1      30.548  16.202   7.443  0.00  0.00     0.149 HD
HETATM   24  H   UNK N   1      30.859  17.436   6.217  0.00  0.00     0.149 HD
ENDBRANCH  21  22
ENDBRANCH  20  21
ENDBRANCH  17  20
ENDBRANCH  15  16
ENDBRANCH  14  15
ENDBRANCH   1  14
TORSDOF 13
ENDMDL
MODEL 4
REMARK VINA RESULT:      -4.6      8.326      9.465
REMARK  13 active torsions:
REMARK  status: ('A' for Active; 'I' for Inactive)
REMARK    1  A    between atoms: S_1  and  S_2 
REMARK    2  A    between atoms: S_1  and  C_13 
REMARK    3  A    between atoms: S_2  and  C_14 
REMARK    4  A    between atoms: N_5  and  C_9 
REMARK       I    between atoms: N_5  and  C_15 
REMARK    5  A    between atoms: N_6  and  C_10 
REMARK       I    between atoms: N_6  and  C_16 
REMARK    6  A    between atoms: N_7  and  C_17 
REMARK    7  A    between atoms: N_8  and  C_18 
REMARK    8  A    between atoms: C_9  and  C_13 
REMARK    9  A    between atoms: C_10  and  C_14 
REMARK   10  A    between atoms: C_11  and  C_15 
REMARK   11  A    between atoms: C_11  and  C_17 
REMARK   12  A    between atoms: C_12  and  C_16 
REMARK   13  A    between atoms: C_12  and  C_18 
ROOT
HETATM    1  S   UNK N   1      32.108  15.936   4.121  0.00  0.00    -0.096 SA
ENDROOT
BRANCH   1   2
HETATM    2  S   UNK N   1      33.328  15.773   5.869  0.00  0.00    -0.096 SA
BRANCH   2   3
HETATM    3  C   UNK N   1      31.982  15.063   6.869  0.00  0.00     0.105 C 
BRANCH   3   4
HETATM    4  C   UNK N   1      32.117  15.486   8.325  0.00  0.00     0.133 C 
BRANCH   4   5
HETATM    5  N   UNK N   1      31.083  16.444   8.641  0.00  0.00    -0.360 N 
HETATM    6  C   UNK N   1      31.296  17.783   8.627  0.00  0.00     0.219 C 
HETATM    7  O   UNK N   1      32.397  18.234   8.341  0.00  0.00    -0.274 OA
HETATM    8  H   UNK N   1      30.186  16.111   8.875  0.00  0.00     0.162 HD
BRANCH   6   9
HETATM    9  C   UNK N   1      30.155  18.702   8.971  0.00  0.00     0.121 C 
BRANCH   9  10
HETATM   10  C   UNK N   1      28.919  17.970   9.474  0.00  0.00     0.120 C 
BRANCH  10  11
HETATM   11  N   UNK N   1      27.730  18.597   8.923  0.00  0.00    -0.430 N 
HETATM   12  H   UNK N   1      27.251  18.170   8.130  0.00  0.00     0.149 HD
HETATM   13  H   UNK N   1      27.376  19.462   9.329  0.00  0.00     0.149 HD
ENDBRANCH  10  11
ENDBRANCH   9  10
ENDBRANCH   6   9
ENDBRANCH   4   5
ENDBRANCH   3   4
ENDBRANCH   2   3
ENDBRANCH   1   2
BRANCH   1  14
HETATM   14  C   UNK N   1      31.361  17.507   4.661  0.00  0.00     0.105 C 
BRANCH  14  15
HETATM   15  C   UNK N   1      29.882  17.320   4.962  0.00  0.00     0.133 C 
BRANCH  15  16
HETATM   16  N   UNK N   1      29.139  18.430   4.412  0.00  0.00    -0.360 N 
HETATM   17  C   UNK N   1      27.962  18.854   4.934  0.00  0.00     0.219 C 
HETATM   18  O   UNK N   1      27.479  18.298   5.911  0.00  0.00    -0.274 OA
HETATM   19  H   UNK N   1      29.502  18.898   3.625  0.00  0.00     0.162 HD
BRANCH  17  20
HETATM   20  C   UNK N   1      27.262  20.020   4.290  0.00  0.00     0.121 C 
BRANCH  20  21
HETATM   21  C   UNK N   1      26.729  21.035   5.291  0.00  0.00     0.120 C 
BRANCH  21  22
HETATM   22  N   UNK N   1      27.654  21.146   6.404  0.00  0.00    -0.430 N 
HETATM   23  H   UNK N   1      28.350  21.892   6.416  0.00  0.00     0.149 HD
HETATM   24  H   UNK N   1      27.609  20.478   7.173  0.00  0.00     0.149 HD
ENDBRANCH  21  22
ENDBRANCH  20  21
ENDBRANCH  17  20
ENDBRANCH  15  16
ENDBRANCH  14  15
ENDBRANCH   1  14
TORSDOF 13
ENDMDL
MODEL 5
REMARK VINA RESULT:      -4.6     11.828     13.273
REMARK  13 active torsions:
REMARK  status: ('A' for Active; 'I' for Inactive)
REMARK    1  A    between atoms: S_1  and  S_2 
REMARK    2  A    between atoms: S_1  and  C_13 
REMARK    3  A    between atoms: S_2  and  C_14 
REMARK    4  A    between atoms: N_5  and  C_9 
REMARK       I    between atoms: N_5  and  C_15 
REMARK    5  A    between atoms: N_6  and  C_10 
REMARK       I    between atoms: N_6  and  C_16 
REMARK    6  A    between atoms: N_7  and  C_17 
REMARK    7  A    between atoms: N_8  and  C_18 
REMARK    8  A    between atoms: C_9  and  C_13 
REMARK    9  A    between atoms: C_10  and  C_14 
REMARK   10  A    between atoms: C_11  and  C_15 
REMARK   11  A    between atoms: C_11  and  C_17 
REMARK   12  A    between atoms: C_12  and  C_16 
REMARK   13  A    between atoms: C_12  and  C_18 
ROOT
HETATM    1  S   UNK N   1      34.634  14.956   8.832  0.00  0.00    -0.096 SA
ENDROOT
BRANCH   1   2
HETATM    2  S   UNK N   1      34.944  16.978   9.450  0.00  0.00    -0.096 SA
BRANCH   2   3
HETATM    3  C   UNK N   1      35.322  16.506  11.168  0.00  0.00     0.105 C 
BRANCH   3   4
HETATM    4  C   UNK N   1      35.946  15.119  11.216  0.00  0.00     0.133 C 
BRANCH   4   5
HETATM    5  N   UNK N   1      36.528  14.904  12.521  0.00  0.00    -0.360 N 
HETATM    6  C   UNK N   1      35.948  14.117  13.461  0.00  0.00     0.219 C 
HETATM    7  O   UNK N   1      34.888  13.550  13.229  0.00  0.00    -0.274 OA
HETATM    8  H   UNK N   1      37.381  15.346  12.737  0.00  0.00     0.162 HD
BRANCH   6   9
HETATM    9  C   UNK N   1      36.631  13.954  14.791  0.00  0.00     0.121 C 
BRANCH   9  10
HETATM   10  C   UNK N   1      36.989  12.511  15.116  0.00  0.00     0.120 C 
BRANCH  10  11
HETATM   11  N   UNK N   1      37.718  11.932  14.000  0.00  0.00    -0.430 N 
HETATM   12  H   UNK N   1      37.242  11.764  13.113  0.00  0.00     0.149 HD
HETATM   13  H   UNK N   1      38.703  11.693  14.104  0.00  0.00     0.149 HD
ENDBRANCH  10  11
ENDBRANCH   9  10
ENDBRANCH   6   9
ENDBRANCH   4   5
ENDBRANCH   3   4
ENDBRANCH   2   3
ENDBRANCH   1   2
BRANCH   1  14
HETATM   14  C   UNK N   1      32.831  15.167   8.682  0.00  0.00     0.105 C 
BRANCH  14  15
HETATM   15  C   UNK N   1      32.501  16.516   8.060  0.00  0.00     0.133 C 
BRANCH  15  16
HETATM   16  N   UNK N   1      32.450  16.379   6.623  0.00  0.00    -0.360 N 
HETATM   17  C   UNK N   1      33.265  17.075   5.792  0.00  0.00     0.219 C 
HETATM   18  O   UNK N   1      34.089  17.860   6.242  0.00  0.00    -0.274 OA
HETATM   19  H   UNK N   1      31.797  15.755   6.231  0.00  0.00     0.162 HD
BRANCH  17  20
HETATM   20  C   UNK N   1      33.136  16.864   4.308  0.00  0.00     0.121 C 
BRANCH  20  21
HETATM   21  C   UNK N   1      31.959  17.605   3.690  0.00  0.00     0.120 C 
BRANCH  21  22
HETATM   22  N   UNK N   1      31.743  17.123   2.338  0.00  0.00    -0.430 N 
HETATM   23  H   UNK N   1      31.036  16.410   2.156  0.00  0.00     0.149 HD
HETATM   24  H   UNK N   1      32.298  17.499   1.568  0.00  0.00     0.149 HD
ENDBRANCH  21  22
ENDBRANCH  20  21
ENDBRANCH  17  20
ENDBRANCH  15  16
ENDBRANCH  14  15
ENDBRANCH   1  14
TORSDOF 13
ENDMDL
MODEL 6
REMARK VINA RESULT:      -4.6     11.053     15.265
REMARK  13 active torsions:
REMARK  status: ('A' for Active; 'I' for Inactive)
REMARK    1  A    between atoms: S_1  and  S_2 
REMARK    2  A    between atoms: S_1  and  C_13 
REMARK    3  A    between atoms: S_2  and  C_14 
REMARK    4  A    between atoms: N_5  and  C_9 
REMARK       I    between atoms: N_5  and  C_15 
REMARK    5  A    between atoms: N_6  and  C_10 
REMARK       I    between atoms: N_6  and  C_16 
REMARK    6  A    between atoms: N_7  and  C_17 
REMARK    7  A    between atoms: N_8  and  C_18 
REMARK    8  A    between atoms: C_9  and  C_13 
REMARK    9  A    between atoms: C_10  and  C_14 
REMARK   10  A    between atoms: C_11  and  C_15 
REMARK   11  A    between atoms: C_11  and  C_17 
REMARK   12  A    between atoms: C_12  and  C_16 
REMARK   13  A    between atoms: C_12  and  C_18 
ROOT
HETATM    1  S   UNK N   1      35.466  13.792   9.555  0.00  0.00    -0.096 SA
ENDROOT
BRANCH   1   2
HETATM    2  S   UNK N   1      33.809  14.977  10.204  0.00  0.00    -0.096 SA
BRANCH   2   3
HETATM    3  C   UNK N   1      32.834  14.623   8.708  0.00  0.00     0.105 C 
BRANCH   3   4
HETATM    4  C   UNK N   1      32.891  15.797   7.742  0.00  0.00     0.133 C 
BRANCH   4   5
HETATM    5  N   UNK N   1      32.341  16.968   8.382  0.00  0.00    -0.360 N 
HETATM    6  C   UNK N   1      31.058  17.369   8.198  0.00  0.00     0.219 C 
HETATM    7  O   UNK N   1      30.308  16.736   7.467  0.00  0.00    -0.274 OA
HETATM    8  H   UNK N   1      32.919  17.498   8.977  0.00  0.00     0.162 HD
BRANCH   6   9
HETATM    9  C   UNK N   1      30.576  18.603   8.910  0.00  0.00     0.121 C 
BRANCH   9  10
HETATM   10  C   UNK N   1      29.398  18.346   9.840  0.00  0.00     0.120 C 
BRANCH  10  11
HETATM   11  N   UNK N   1      29.533  17.028  10.435  0.00  0.00    -0.430 N 
HETATM   12  H   UNK N   1      30.421  16.745  10.851  0.00  0.00     0.149 HD
HETATM   13  H   UNK N   1      28.741  16.386  10.438  0.00  0.00     0.149 HD
ENDBRANCH  10  11
ENDBRANCH   9  10
ENDBRANCH   6   9
ENDBRANCH   4   5
ENDBRANCH   3   4
ENDBRANCH   2   3
ENDBRANCH   1   2
BRANCH   1  14
HETATM   14  C   UNK N   1      36.670  14.759  10.520  0.00  0.00     0.105 C 
BRANCH  14  15
HETATM   15  C   UNK N   1      36.022  15.321  11.776  0.00  0.00     0.133 C 
BRANCH  15  16
HETATM   16  N   UNK N   1      36.580  14.664  12.935  0.00  0.00    -0.360 N 
HETATM   17  C   UNK N   1      35.901  13.730  13.646  0.00  0.00     0.219 C 
HETATM   18  O   UNK N   1      34.766  13.405  13.321  0.00  0.00    -0.274 OA
HETATM   19  H   UNK N   1      37.491  14.905  13.222  0.00  0.00     0.162 HD
BRANCH  17  20
HETATM   20  C   UNK N   1      36.567  13.102  14.839  0.00  0.00     0.121 C 
BRANCH  20  21
HETATM   21  C   UNK N   1      35.982  13.555  16.169  0.00  0.00     0.120 C 
BRANCH  21  22
HETATM   22  N   UNK N   1      34.620  13.064  16.288  0.00  0.00    -0.430 N 
HETATM   23  H   UNK N   1      34.379  12.403  17.025  0.00  0.00     0.149 HD
HETATM   24  H   UNK N   1      33.905  13.382  15.633  0.00  0.00     0.149 HD
ENDBRANCH  21  22
ENDBRANCH  20  21
ENDBRANCH  17  20
ENDBRANCH  15  16
ENDBRANCH  14  15
ENDBRANCH   1  14
TORSDOF 13
ENDMDL
MODEL 7
REMARK VINA RESULT:      -4.5      8.995     11.156
REMARK  13 active torsions:
REMARK  status: ('A' for Active; 'I' for Inactive)
REMARK    1  A    between atoms: S_1  and  S_2 
REMARK    2  A    between atoms: S_1  and  C_13 
REMARK    3  A    between atoms: S_2  and  C_14 
REMARK    4  A    between atoms: N_5  and  C_9 
REMARK       I    between atoms: N_5  and  C_15 
REMARK    5  A    between atoms: N_6  and  C_10 
REMARK       I    between atoms: N_6  and  C_16 
REMARK    6  A    between atoms: N_7  and  C_17 
REMARK    7  A    between atoms: N_8  and  C_18 
REMARK    8  A    between atoms: C_9  and  C_13 
REMARK    9  A    between atoms: C_10  and  C_14 
REMARK   10  A    between atoms: C_11  and  C_15 
REMARK   11  A    between atoms: C_11  and  C_17 
REMARK   12  A    between atoms: C_12  and  C_16 
REMARK   13  A    between atoms: C_12  and  C_18 
ROOT
HETATM    1  S   UNK N   1      31.345  15.233   3.968  0.00  0.00    -0.096 SA
ENDROOT
BRANCH   1   2
HETATM    2  S   UNK N   1      29.563  15.159   2.790  0.00  0.00    -0.096 SA
BRANCH   2   3
HETATM    3  C   UNK N   1      28.604  14.336   4.102  0.00  0.00     0.105 C 
BRANCH   3   4
HETATM    4  C   UNK N   1      28.986  14.886   5.469  0.00  0.00     0.133 C 
BRANCH   4   5
HETATM    5  N   UNK N   1      28.256  16.109   5.712  0.00  0.00    -0.360 N 
HETATM    6  C   UNK N   1      28.702  17.073   6.554  0.00  0.00     0.219 C 
HETATM    7  O   UNK N   1      29.763  16.936   7.150  0.00  0.00    -0.274 OA
HETATM    8  H   UNK N   1      27.399  16.248   5.247  0.00  0.00     0.162 HD
BRANCH   6   9
HETATM    9  C   UNK N   1      27.870  18.312   6.742  0.00  0.00     0.121 C 
BRANCH   9  10
HETATM   10  C   UNK N   1      28.133  19.025   8.061  0.00  0.00     0.120 C 
BRANCH  10  11
HETATM   11  N   UNK N   1      27.663  18.198   9.158  0.00  0.00    -0.430 N 
HETATM   12  H   UNK N   1      27.873  17.200   9.170  0.00  0.00     0.149 HD
HETATM   13  H   UNK N   1      27.123  18.615   9.916  0.00  0.00     0.149 HD
ENDBRANCH  10  11
ENDBRANCH   9  10
ENDBRANCH   6   9
ENDBRANCH   4   5
ENDBRANCH   3   4
ENDBRANCH   2   3
ENDBRANCH   1   2
BRANCH   1  14
HETATM   14  C   UNK N   1      31.646  16.990   3.592  0.00  0.00     0.105 C 
BRANCH  14  15
HETATM   15  C   UNK N   1      32.809  17.521   4.416  0.00  0.00     0.133 C 
BRANCH  15  16
HETATM   16  N   UNK N   1      32.468  17.460   5.818  0.00  0.00    -0.360 N 
HETATM   17  C   UNK N   1      33.389  17.600   6.803  0.00  0.00     0.219 C 
HETATM   18  O   UNK N   1      34.567  17.788   6.530  0.00  0.00    -0.274 OA
HETATM   19  H   UNK N   1      31.528  17.310   6.070  0.00  0.00     0.162 HD
BRANCH  17  20
HETATM   20  C   UNK N   1      32.936  17.521   8.236  0.00  0.00     0.121 C 
BRANCH  20  21
HETATM   21  C   UNK N   1      33.825  16.643   9.105  0.00  0.00     0.120 C 
BRANCH  21  22
HETATM   22  N   UNK N   1      34.913  17.442   9.641  0.00  0.00    -0.430 N 
HETATM   23  H   UNK N   1      34.938  18.447   9.474  0.00  0.00     0.149 HD
HETATM   24  H   UNK N   1      35.652  16.996  10.186  0.00  0.00     0.149 HD
ENDBRANCH  21  22
ENDBRANCH  20  21
ENDBRANCH  17  20
ENDBRANCH  15  16
ENDBRANCH  14  15
ENDBRANCH   1  14
TORSDOF 13
ENDMDL
MODEL 8
REMARK VINA RESULT:      -4.5     10.730     12.432
REMARK  13 active torsions:
REMARK  status: ('A' for Active; 'I' for Inactive)
REMARK    1  A    between atoms: S_1  and  S_2 
REMARK    2  A    between atoms: S_1  and  C_13 
REMARK    3  A    between atoms: S_2  and  C_14 
REMARK    4  A    between atoms: N_5  and  C_9 
REMARK       I    between atoms: N_5  and  C_15 
REMARK    5  A    between atoms: N_6  and  C_10 
REMARK       I    between atoms: N_6  and  C_16 
REMARK    6  A    between atoms: N_7  and  C_17 
REMARK    7  A    between atoms: N_8  and  C_18 
REMARK    8  A    between atoms: C_9  and  C_13 
REMARK    9  A    between atoms: C_10  and  C_14 
REMARK   10  A    between atoms: C_11  and  C_15 
REMARK   11  A    between atoms: C_11  and  C_17 
REMARK   12  A    between atoms: C_12  and  C_16 
REMARK   13  A    between atoms: C_12  and  C_18 
ROOT
HETATM    1  S   UNK N   1      34.084  14.796   9.113  0.00  0.00    -0.096 SA
ENDROOT
BRANCH   1   2
HETATM    2  S   UNK N   1      34.692  16.836   9.312  0.00  0.00    -0.096 SA
BRANCH   2   3
HETATM    3  C   UNK N   1      35.682  16.505  10.805  0.00  0.00     0.105 C 
BRANCH   3   4
HETATM    4  C   UNK N   1      35.206  15.233  11.491  0.00  0.00     0.133 C 
BRANCH   4   5
HETATM    5  N   UNK N   1      36.071  14.943  12.611  0.00  0.00    -0.360 N 
HETATM    6  C   UNK N   1      35.787  13.986  13.528  0.00  0.00     0.219 C 
HETATM    7  O   UNK N   1      34.763  13.321  13.435  0.00  0.00    -0.274 OA
HETATM    8  H   UNK N   1      36.902  15.462  12.713  0.00  0.00     0.162 HD
BRANCH   6   9
HETATM    9  C   UNK N   1      36.751  13.757  14.660  0.00  0.00     0.121 C 
BRANCH   9  10
HETATM   10  C   UNK N   1      36.079  13.685  16.023  0.00  0.00     0.120 C 
BRANCH  10  11
HETATM   11  N   UNK N   1      35.533  12.353  16.222  0.00  0.00    -0.430 N 
HETATM   12  H   UNK N   1      36.126  11.609  16.590  0.00  0.00     0.149 HD
HETATM   13  H   UNK N   1      34.558  12.163  15.993  0.00  0.00     0.149 HD
ENDBRANCH  10  11
ENDBRANCH   9  10
ENDBRANCH   6   9
ENDBRANCH   4   5
ENDBRANCH   3   4
ENDBRANCH   2   3
ENDBRANCH   1   2
BRANCH   1  14
HETATM   14  C   UNK N   1      32.345  15.236   8.798  0.00  0.00     0.105 C 
BRANCH  14  15
HETATM   15  C   UNK N   1      32.200  16.738   8.603  0.00  0.00     0.133 C 
BRANCH  15  16
HETATM   16  N   UNK N   1      31.063  17.000   7.750  0.00  0.00    -0.360 N 
HETATM   17  C   UNK N   1      29.825  17.259   8.240  0.00  0.00     0.219 C 
HETATM   18  O   UNK N   1      29.626  17.279   9.448  0.00  0.00    -0.274 OA
HETATM   19  H   UNK N   1      31.192  16.990   6.775  0.00  0.00     0.162 HD
BRANCH  17  20
HETATM   20  C   UNK N   1      28.704  17.519   7.272  0.00  0.00     0.121 C 
BRANCH  20  21
HETATM   21  C   UNK N   1      28.101  18.911   7.404  0.00  0.00     0.120 C 
BRANCH  21  22
HETATM   22  N   UNK N   1      27.463  19.038   8.702  0.00  0.00    -0.430 N 
HETATM   23  H   UNK N   1      28.016  19.293   9.520  0.00  0.00     0.149 HD
HETATM   24  H   UNK N   1      26.460  18.872   8.796  0.00  0.00     0.149 HD
ENDBRANCH  21  22
ENDBRANCH  20  21
ENDBRANCH  17  20
ENDBRANCH  15  16
ENDBRANCH  14  15
ENDBRANCH   1  14
TORSDOF 13
ENDMDL
MODEL 9
REMARK VINA RESULT:      -4.4      2.492      3.165
REMARK  13 active torsions:
REMARK  status: ('A' for Active; 'I' for Inactive)
REMARK    1  A    between atoms: S_1  and  S_2 
REMARK    2  A    between atoms: S_1  and  C_13 
REMARK    3  A    between atoms: S_2  and  C_14 
REMARK    4  A    between atoms: N_5  and  C_9 
REMARK       I    between atoms: N_5  and  C_15 
REMARK    5  A    between atoms: N_6  and  C_10 
REMARK       I    between atoms: N_6  and  C_16 
REMARK    6  A    between atoms: N_7  and  C_17 
REMARK    7  A    between atoms: N_8  and  C_18 
REMARK    8  A    between atoms: C_9  and  C_13 
REMARK    9  A    between atoms: C_10  and  C_14 
REMARK   10  A    between atoms: C_11  and  C_15 
REMARK   11  A    between atoms: C_11  and  C_17 
REMARK   12  A    between atoms: C_12  and  C_16 
REMARK   13  A    between atoms: C_12  and  C_18 
ROOT
HETATM    1  S   UNK N   1      22.357  17.368   5.679  0.00  0.00    -0.096 SA
ENDROOT
BRANCH   1   2
HETATM    2  S   UNK N   1      20.917  16.425   6.946  0.00  0.00    -0.096 SA
BRANCH   2   3
HETATM    3  C   UNK N   1      22.080  15.128   7.478  0.00  0.00     0.105 C 
BRANCH   3   4
HETATM    4  C   UNK N   1      21.325  13.898   7.960  0.00  0.00     0.133 C 
BRANCH   4   5
HETATM    5  N   UNK N   1      21.695  13.617   9.328  0.00  0.00    -0.360 N 
HETATM    6  C   UNK N   1      22.495  12.576   9.670  0.00  0.00     0.219 C 
HETATM    7  O   UNK N   1      22.939  11.825   8.812  0.00  0.00    -0.274 OA
HETATM    8  H   UNK N   1      21.354  14.204  10.040  0.00  0.00     0.162 HD
BRANCH   6   9
HETATM    9  C   UNK N   1      22.825  12.365  11.123  0.00  0.00     0.121 C 
BRANCH   9  10
HETATM   10  C   UNK N   1      24.278  11.983  11.364  0.00  0.00     0.120 C 
BRANCH  10  11
HETATM   11  N   UNK N   1      25.145  12.932  10.689  0.00  0.00    -0.430 N 
HETATM   12  H   UNK N   1      26.080  12.648  10.394  0.00  0.00     0.149 HD
HETATM   13  H   UNK N   1      24.819  13.882  10.509  0.00  0.00     0.149 HD
ENDBRANCH  10  11
ENDBRANCH   9  10
ENDBRANCH   6   9
ENDBRANCH   4   5
ENDBRANCH   3   4
ENDBRANCH   2   3
ENDBRANCH   1   2
BRANCH   1  14
HETATM   14  C   UNK N   1      21.085  18.208   4.682  0.00  0.00     0.105 C 
BRANCH  14  15
HETATM   15  C   UNK N   1      21.725  19.210   3.732  0.00  0.00     0.133 C 
BRANCH  15  16
HETATM   16  N   UNK N   1      23.160  19.049   3.766  0.00  0.00    -0.360 N 
HETATM   17  C   UNK N   1      24.017  20.031   3.389  0.00  0.00     0.219 C 
HETATM   18  O   UNK N   1      23.591  21.110   2.998  0.00  0.00    -0.274 OA
HETATM   19  H   UNK N   1      23.533  18.192   4.075  0.00  0.00     0.162 HD
BRANCH  17  20
HETATM   20  C   UNK N   1      25.496  19.768   3.459  0.00  0.00     0.121 C 
BRANCH  20  21
HETATM   21  C   UNK N   1      26.185  20.489   4.609  0.00  0.00     0.120 C 
BRANCH  21  22
HETATM   22  N   UNK N   1      25.969  19.748   5.839  0.00  0.00    -0.430 N 
HETATM   23  H   UNK N   1      26.765  19.378   6.359  0.00  0.00     0.149 HD
HETATM   24  H   UNK N   1      25.020  19.599   6.185  0.00  0.00     0.149 HD
ENDBRANCH  21  22
ENDBRANCH  20  21
ENDBRANCH  17  20
ENDBRANCH  15  16
ENDBRANCH  14  15
ENDBRANCH   1  14
TORSDOF 13
ENDMDL
