MODEL 1
REMARK VINA RESULT:      -5.9      0.000      0.000
REMARK  6 active torsions:
REMARK  status: ('A' for Active; 'I' for Inactive)
REMARK    1  A    between atoms: N_3  and  C_6 
REMARK    2  A    between atoms: N_3  and  C_8 
REMARK    3  A    between atoms: N_4  and  C_9 
REMARK    4  A    between atoms: N_5  and  C_10 
REMARK    5  A    between atoms: C_6  and  C_7 
REMARK    6  A    between atoms: C_7  and  C_9 
ROOT
HETATM    1  C   UNK N   1      31.907  17.581   7.775  0.00  0.00     0.061 A 
HETATM    2  C   UNK N   1      33.274  17.754   7.430  0.00  0.00     0.129 A 
HETATM    3  C   UNK N   1      30.986  17.214   6.779  0.00  0.00     0.032 A 
HETATM    4  C   UNK N   1      32.728  17.186   5.120  0.00  0.00    -0.059 A 
HETATM    5  C   UNK N   1      33.662  17.551   6.093  0.00  0.00     0.045 A 
HETATM    6  C   UNK N   1      31.391  17.018   5.464  0.00  0.00     0.009 A 
HETATM    7  C   UNK N   1      33.156  16.976   3.714  0.00  0.00     0.048 C 
ENDROOT
BRANCH   1   8
HETATM    8  N   UNK N   1      31.449  17.770   9.106  0.00  0.00    -0.388 N 
HETATM    9  H   UNK N   1      31.990  17.448   9.862  0.00  0.00     0.159 HD
BRANCH   8  10
HETATM   10  C   UNK N   1      30.195  18.433   9.349  0.00  0.00     0.121 C 
BRANCH  10  11
HETATM   11  C   UNK N   1      29.197  17.519  10.009  0.00  0.00     0.038 C 
BRANCH  11  12
HETATM   12  C   UNK N   1      27.988  17.485   9.100  0.00  0.00     0.112 C 
BRANCH  12  13
HETATM   13  N   UNK N   1      27.628  18.830   8.700  0.00  0.00    -0.430 N 
HETATM   14  H   UNK N   1      27.331  19.015   7.743  0.00  0.00     0.149 HD
HETATM   15  H   UNK N   1      27.670  19.592   9.377  0.00  0.00     0.149 HD
ENDBRANCH  12  13
ENDBRANCH  11  12
ENDBRANCH  10  11
ENDBRANCH   8  10
ENDBRANCH   1   8
BRANCH   2  16
HETATM   16  N   UNK N   1      34.266  18.127   8.390  0.00  0.00    -0.113 N 
HETATM   17  O   UNK N   1      34.424  17.407   9.482  0.00  0.00    -0.532 OA
HETATM   18  O   UNK N   1      34.959  19.083   8.222  0.00  0.00    -0.532 OA
ENDBRANCH   2  16
TORSDOF 6
ENDMDL
MODEL 2
REMARK VINA RESULT:      -5.5      2.749      3.906
REMARK  6 active torsions:
REMARK  status: ('A' for Active; 'I' for Inactive)
REMARK    1  A    between atoms: N_3  and  C_6 
REMARK    2  A    between atoms: N_3  and  C_8 
REMARK    3  A    between atoms: N_4  and  C_9 
REMARK    4  A    between atoms: N_5  and  C_10 
REMARK    5  A    between atoms: C_6  and  C_7 
REMARK    6  A    between atoms: C_7  and  C_9 
ROOT
HETATM    1  C   UNK N   1      33.134  16.326   8.737  0.00  0.00     0.061 A 
HETATM    2  C   UNK N   1      34.307  17.109   8.909  0.00  0.00     0.129 A 
HETATM    3  C   UNK N   1      32.892  15.249   9.606  0.00  0.00     0.032 A 
HETATM    4  C   UNK N   1      34.930  15.702  10.802  0.00  0.00    -0.059 A 
HETATM    5  C   UNK N   1      35.192  16.778   9.950  0.00  0.00     0.045 A 
HETATM    6  C   UNK N   1      33.780  14.939  10.629  0.00  0.00     0.009 A 
HETATM    7  C   UNK N   1      35.875  15.366  11.897  0.00  0.00     0.048 C 
ENDROOT
BRANCH   1   8
HETATM    8  N   UNK N   1      32.200  16.607   7.706  0.00  0.00    -0.388 N 
HETATM    9  H   UNK N   1      32.472  16.535   6.763  0.00  0.00     0.159 HD
BRANCH   8  10
HETATM   10  C   UNK N   1      30.855  16.998   8.038  0.00  0.00     0.121 C 
BRANCH  10  11
HETATM   11  C   UNK N   1      30.818  18.318   8.761  0.00  0.00     0.038 C 
BRANCH  11  12
HETATM   12  C   UNK N   1      29.618  18.262   9.682  0.00  0.00     0.112 C 
BRANCH  12  13
HETATM   13  N   UNK N   1      29.605  17.007  10.407  0.00  0.00    -0.430 N 
HETATM   14  H   UNK N   1      30.244  16.259  10.142  0.00  0.00     0.149 HD
HETATM   15  H   UNK N   1      28.955  16.873  11.181  0.00  0.00     0.149 HD
ENDBRANCH  12  13
ENDBRANCH  11  12
ENDBRANCH  10  11
ENDBRANCH   8  10
ENDBRANCH   1   8
BRANCH   2  16
HETATM   16  N   UNK N   1      34.618  18.220   8.062  0.00  0.00    -0.113 N 
HETATM   17  O   UNK N   1      34.370  18.149   6.771  0.00  0.00    -0.532 OA
HETATM   18  O   UNK N   1      35.101  19.217   8.506  0.00  0.00    -0.532 OA
ENDBRANCH   2  16
TORSDOF 6
ENDMDL
MODEL 3
REMARK VINA RESULT:      -5.2      9.402     10.969
REMARK  6 active torsions:
REMARK  status: ('A' for Active; 'I' for Inactive)
REMARK    1  A    between atoms: N_3  and  C_6 
REMARK    2  A    between atoms: N_3  and  C_8 
REMARK    3  A    between atoms: N_4  and  C_9 
REMARK    4  A    between atoms: N_5  and  C_10 
REMARK    5  A    between atoms: C_6  and  C_7 
REMARK    6  A    between atoms: C_7  and  C_9 
ROOT
HETATM    1  C   UNK N   1      22.977  18.605   3.908  0.00  0.00     0.061 A 
HETATM    2  C   UNK N   1      22.950  19.845   3.216  0.00  0.00     0.129 A 
HETATM    3  C   UNK N   1      24.208  18.090   4.350  0.00  0.00     0.032 A 
HETATM    4  C   UNK N   1      25.375  19.989   3.444  0.00  0.00    -0.059 A 
HETATM    5  C   UNK N   1      24.163  20.521   2.995  0.00  0.00     0.045 A 
HETATM    6  C   UNK N   1      25.396  18.775   4.121  0.00  0.00     0.009 A 
HETATM    7  C   UNK N   1      26.647  20.716   3.202  0.00  0.00     0.048 C 
ENDROOT
BRANCH   1   8
HETATM    8  N   UNK N   1      21.788  17.872   4.163  0.00  0.00    -0.388 N 
HETATM    9  H   UNK N   1      21.169  18.170   4.867  0.00  0.00     0.159 HD
BRANCH   8  10
HETATM   10  C   UNK N   1      21.488  16.694   3.392  0.00  0.00     0.121 C 
BRANCH  10  11
HETATM   11  C   UNK N   1      20.418  16.954   2.366  0.00  0.00     0.038 C 
BRANCH  11  12
HETATM   12  C   UNK N   1      19.330  17.730   3.077  0.00  0.00     0.112 C 
BRANCH  12  13
HETATM   13  N   UNK N   1      18.833  18.787   2.220  0.00  0.00    -0.430 N 
HETATM   14  H   UNK N   1      18.027  18.618   1.619  0.00  0.00     0.149 HD
HETATM   15  H   UNK N   1      19.288  19.699   2.219  0.00  0.00     0.149 HD
ENDBRANCH  12  13
ENDBRANCH  11  12
ENDBRANCH  10  11
ENDBRANCH   8  10
ENDBRANCH   1   8
BRANCH   2  16
HETATM   16  N   UNK N   1      21.735  20.429   2.737  0.00  0.00    -0.113 N 
HETATM   17  O   UNK N   1      21.537  20.561   1.441  0.00  0.00    -0.532 OA
HETATM   18  O   UNK N   1      20.890  20.802   3.493  0.00  0.00    -0.532 OA
ENDBRANCH   2  16
TORSDOF 6
ENDMDL
MODEL 4
REMARK VINA RESULT:      -5.2      3.487      5.286
REMARK  6 active torsions:
REMARK  status: ('A' for Active; 'I' for Inactive)
REMARK    1  A    between atoms: N_3  and  C_6 
REMARK    2  A    between atoms: N_3  and  C_8 
REMARK    3  A    between atoms: N_4  and  C_9 
REMARK    4  A    between atoms: N_5  and  C_10 
REMARK    5  A    between atoms: C_6  and  C_7 
REMARK    6  A    between atoms: C_7  and  C_9 
ROOT
HETATM    1  C   UNK N   1      28.597  17.831   6.539  0.00  0.00     0.061 A 
HETATM    2  C   UNK N   1      28.232  18.594   7.680  0.00  0.00     0.129 A 
HETATM    3  C   UNK N   1      28.417  18.379   5.257  0.00  0.00     0.032 A 
HETATM    4  C   UNK N   1      27.529  20.404   6.202  0.00  0.00    -0.059 A 
HETATM    5  C   UNK N   1      27.698  19.881   7.487  0.00  0.00     0.045 A 
HETATM    6  C   UNK N   1      27.888  19.653   5.089  0.00  0.00     0.009 A 
HETATM    7  C   UNK N   1      26.964  21.765   6.017  0.00  0.00     0.048 C 
ENDROOT
BRANCH   1   8
HETATM    8  N   UNK N   1      29.141  16.525   6.663  0.00  0.00    -0.388 N 
HETATM    9  H   UNK N   1      28.649  15.834   7.161  0.00  0.00     0.159 HD
BRANCH   8  10
HETATM   10  C   UNK N   1      30.411  16.213   6.063  0.00  0.00     0.121 C 
BRANCH  10  11
HETATM   11  C   UNK N   1      31.526  17.035   6.652  0.00  0.00     0.038 C 
BRANCH  11  12
HETATM   12  C   UNK N   1      31.810  16.446   8.017  0.00  0.00     0.112 C 
BRANCH  12  13
HETATM   13  N   UNK N   1      31.879  17.499   9.009  0.00  0.00    -0.430 N 
HETATM   14  H   UNK N   1      31.025  17.846   9.444  0.00  0.00     0.149 HD
HETATM   15  H   UNK N   1      32.782  17.894   9.272  0.00  0.00     0.149 HD
ENDBRANCH  12  13
ENDBRANCH  11  12
ENDBRANCH  10  11
ENDBRANCH   8  10
ENDBRANCH   1   8
BRANCH   2  16
HETATM   16  N   UNK N   1      28.386  18.101   9.013  0.00  0.00    -0.113 N 
HETATM   17  O   UNK N   1      29.320  18.606   9.795  0.00  0.00    -0.532 OA
HETATM   18  O   UNK N   1      27.682  17.236   9.437  0.00  0.00    -0.532 OA
ENDBRANCH   2  16
TORSDOF 6
ENDMDL
MODEL 5
REMARK VINA RESULT:      -5.0      2.208      4.952
REMARK  6 active torsions:
REMARK  status: ('A' for Active; 'I' for Inactive)
REMARK    1  A    between atoms: N_3  and  C_6 
REMARK    2  A    between atoms: N_3  and  C_8 
REMARK    3  A    between atoms: N_4  and  C_9 
REMARK    4  A    between atoms: N_5  and  C_10 
REMARK    5  A    between atoms: C_6  and  C_7 
REMARK    6  A    between atoms: C_7  and  C_9 
ROOT
HETATM    1  C   UNK N   1      31.923  17.198   6.498  0.00  0.00     0.061 A 
HETATM    2  C   UNK N   1      32.373  17.689   7.753  0.00  0.00     0.129 A 
HETATM    3  C   UNK N   1      30.544  17.070   6.262  0.00  0.00     0.032 A 
HETATM    4  C   UNK N   1      30.048  17.896   8.467  0.00  0.00    -0.059 A 
HETATM    5  C   UNK N   1      31.415  18.032   8.724  0.00  0.00     0.045 A 
HETATM    6  C   UNK N   1      29.614  17.415   7.237  0.00  0.00     0.009 A 
HETATM    7  C   UNK N   1      29.051  18.263   9.504  0.00  0.00     0.048 C 
ENDROOT
BRANCH   1   8
HETATM    8  N   UNK N   1      32.837  16.834   5.474  0.00  0.00    -0.388 N 
HETATM    9  H   UNK N   1      33.419  16.050   5.592  0.00  0.00     0.159 HD
BRANCH   8  10
HETATM   10  C   UNK N   1      32.912  17.612   4.265  0.00  0.00     0.121 C 
BRANCH  10  11
HETATM   11  C   UNK N   1      32.359  16.862   3.082  0.00  0.00     0.038 C 
BRANCH  11  12
HETATM   12  C   UNK N   1      32.839  15.434   3.225  0.00  0.00     0.112 C 
BRANCH  12  13
HETATM   13  N   UNK N   1      33.870  15.155   2.246  0.00  0.00    -0.430 N 
HETATM   14  H   UNK N   1      33.690  14.495   1.491  0.00  0.00     0.149 HD
HETATM   15  H   UNK N   1      34.775  15.620   2.313  0.00  0.00     0.149 HD
ENDBRANCH  12  13
ENDBRANCH  11  12
ENDBRANCH  10  11
ENDBRANCH   8  10
ENDBRANCH   1   8
BRANCH   2  16
HETATM   16  N   UNK N   1      33.760  17.846   8.062  0.00  0.00    -0.113 N 
HETATM   17  O   UNK N   1      34.591  18.289   7.141  0.00  0.00    -0.532 OA
HETATM   18  O   UNK N   1      34.184  17.582   9.146  0.00  0.00    -0.532 OA
ENDBRANCH   2  16
TORSDOF 6
ENDMDL
MODEL 6
REMARK VINA RESULT:      -4.9      2.089      4.691
REMARK  6 active torsions:
REMARK  status: ('A' for Active; 'I' for Inactive)
REMARK    1  A    between atoms: N_3  and  C_6 
REMARK    2  A    between atoms: N_3  and  C_8 
REMARK    3  A    between atoms: N_4  and  C_9 
REMARK    4  A    between atoms: N_5  and  C_10 
REMARK    5  A    between atoms: C_6  and  C_7 
REMARK    6  A    between atoms: C_7  and  C_9 
ROOT
HETATM    1  C   UNK N   1      32.695  17.267   6.444  0.00  0.00     0.061 A 
HETATM    2  C   UNK N   1      32.823  17.713   7.786  0.00  0.00     0.129 A 
HETATM    3  C   UNK N   1      31.415  17.025   5.917  0.00  0.00     0.032 A 
HETATM    4  C   UNK N   1      30.393  17.650   8.003  0.00  0.00    -0.059 A 
HETATM    5  C   UNK N   1      31.656  17.898   8.549  0.00  0.00     0.045 A 
HETATM    6  C   UNK N   1      30.274  17.214   6.689  0.00  0.00     0.009 A 
HETATM    7  C   UNK N   1      29.171  17.850   8.823  0.00  0.00     0.048 C 
ENDROOT
BRANCH   1   8
HETATM    8  N   UNK N   1      33.833  17.061   5.620  0.00  0.00    -0.388 N 
HETATM    9  H   UNK N   1      34.323  17.833   5.256  0.00  0.00     0.159 HD
BRANCH   8  10
HETATM   10  C   UNK N   1      34.270  15.723   5.317  0.00  0.00     0.121 C 
BRANCH  10  11
HETATM   11  C   UNK N   1      35.347  15.259   6.260  0.00  0.00     0.038 C 
BRANCH  11  12
HETATM   12  C   UNK N   1      34.673  14.334   7.250  0.00  0.00     0.112 C 
BRANCH  12  13
HETATM   13  N   UNK N   1      35.113  14.639   8.596  0.00  0.00    -0.430 N 
HETATM   14  H   UNK N   1      34.462  15.052   9.263  0.00  0.00     0.149 HD
HETATM   15  H   UNK N   1      36.073  14.440   8.876  0.00  0.00     0.149 HD
ENDBRANCH  12  13
ENDBRANCH  11  12
ENDBRANCH  10  11
ENDBRANCH   8  10
ENDBRANCH   1   8
BRANCH   2  16
HETATM   16  N   UNK N   1      34.093  17.979   8.388  0.00  0.00    -0.113 N 
HETATM   17  O   UNK N   1      34.964  18.747   7.767  0.00  0.00    -0.532 OA
HETATM   18  O   UNK N   1      34.381  17.517   9.450  0.00  0.00    -0.532 OA
ENDBRANCH   2  16
TORSDOF 6
ENDMDL
MODEL 7
REMARK VINA RESULT:      -4.9      3.150      4.069
REMARK  6 active torsions:
REMARK  status: ('A' for Active; 'I' for Inactive)
REMARK    1  A    between atoms: N_3  and  C_6 
REMARK    2  A    between atoms: N_3  and  C_8 
REMARK    3  A    between atoms: N_4  and  C_9 
REMARK    4  A    between atoms: N_5  and  C_10 
REMARK    5  A    between atoms: C_6  and  C_7 
REMARK    6  A    between atoms: C_7  and  C_9 
ROOT
HETATM    1  C   UNK N   1      29.584  17.359   7.125  0.00  0.00     0.061 A 
HETATM    2  C   UNK N   1      30.130  17.741   8.379  0.00  0.00     0.129 A 
HETATM    3  C   UNK N   1      30.450  17.078   6.054  0.00  0.00     0.032 A 
HETATM    4  C   UNK N   1      32.369  17.541   7.429  0.00  0.00    -0.059 A 
HETATM    5  C   UNK N   1      31.528  17.826   8.508  0.00  0.00     0.045 A 
HETATM    6  C   UNK N   1      31.829  17.167   6.203  0.00  0.00     0.009 A 
HETATM    7  C   UNK N   1      33.843  17.635   7.584  0.00  0.00     0.048 C 
ENDROOT
BRANCH   1   8
HETATM    8  N   UNK N   1      28.182  17.255   6.927  0.00  0.00    -0.388 N 
HETATM    9  H   UNK N   1      27.661  16.599   7.443  0.00  0.00     0.159 HD
BRANCH   8  10
HETATM   10  C   UNK N   1      27.524  18.108   5.972  0.00  0.00     0.121 C 
BRANCH  10  11
HETATM   11  C   UNK N   1      27.558  19.552   6.395  0.00  0.00     0.038 C 
BRANCH  11  12
HETATM   12  C   UNK N   1      27.790  20.356   5.134  0.00  0.00     0.112 C 
BRANCH  12  13
HETATM   13  N   UNK N   1      28.069  19.469   4.022  0.00  0.00    -0.430 N 
HETATM   14  H   UNK N   1      29.033  19.292   3.742  0.00  0.00     0.149 HD
HETATM   15  H   UNK N   1      27.301  19.023   3.521  0.00  0.00     0.149 HD
ENDBRANCH  12  13
ENDBRANCH  11  12
ENDBRANCH  10  11
ENDBRANCH   8  10
ENDBRANCH   1   8
BRANCH   2  16
HETATM   16  N   UNK N   1      29.310  18.043   9.512  0.00  0.00    -0.113 N 
HETATM   17  O   UNK N   1      28.207  17.355   9.724  0.00  0.00    -0.532 OA
HETATM   18  O   UNK N   1      29.607  18.911  10.275  0.00  0.00    -0.532 OA
ENDBRANCH   2  16
TORSDOF 6
ENDMDL
MODEL 8
REMARK VINA RESULT:      -4.8      8.482      9.912
REMARK  6 active torsions:
REMARK  status: ('A' for Active; 'I' for Inactive)
REMARK    1  A    between atoms: N_3  and  C_6 
REMARK    2  A    between atoms: N_3  and  C_8 
REMARK    3  A    between atoms: N_4  and  C_9 
REMARK    4  A    between atoms: N_5  and  C_10 
REMARK    5  A    between atoms: C_6  and  C_7 
REMARK    6  A    between atoms: C_7  and  C_9 
ROOT
HETATM    1  C   UNK N   1      23.761  19.577   3.573  0.00  0.00     0.061 A 
HETATM    2  C   UNK N   1      24.314  18.738   4.577  0.00  0.00     0.129 A 
HETATM    3  C   UNK N   1      24.602  20.463   2.877  0.00  0.00     0.032 A 
HETATM    4  C   UNK N   1      26.508  19.711   4.137  0.00  0.00    -0.059 A 
HETATM    5  C   UNK N   1      25.693  18.822   4.842  0.00  0.00     0.045 A 
HETATM    6  C   UNK N   1      25.962  20.530   3.155  0.00  0.00     0.009 A 
HETATM    7  C   UNK N   1      27.962  19.786   4.430  0.00  0.00     0.048 C 
ENDROOT
BRANCH   1   8
HETATM    8  N   UNK N   1      22.378  19.542   3.256  0.00  0.00    -0.388 N 
HETATM    9  H   UNK N   1      21.828  18.778   3.542  0.00  0.00     0.159 HD
BRANCH   8  10
HETATM   10  C   UNK N   1      21.780  20.623   2.517  0.00  0.00     0.121 C 
BRANCH  10  11
HETATM   11  C   UNK N   1      20.450  20.232   1.931  0.00  0.00     0.038 C 
BRANCH  11  12
HETATM   12  C   UNK N   1      19.918  19.114   2.800  0.00  0.00     0.112 C 
BRANCH  12  13
HETATM   13  N   UNK N   1      18.642  18.653   2.291  0.00  0.00    -0.430 N 
HETATM   14  H   UNK N   1      17.901  18.388   2.939  0.00  0.00     0.149 HD
HETATM   15  H   UNK N   1      18.485  18.593   1.285  0.00  0.00     0.149 HD
ENDBRANCH  12  13
ENDBRANCH  11  12
ENDBRANCH  10  11
ENDBRANCH   8  10
ENDBRANCH   1   8
BRANCH   2  16
HETATM   16  N   UNK N   1      23.520  17.813   5.325  0.00  0.00    -0.113 N 
HETATM   17  O   UNK N   1      23.939  16.575   5.493  0.00  0.00    -0.532 OA
HETATM   18  O   UNK N   1      22.478  18.142   5.804  0.00  0.00    -0.532 OA
ENDBRANCH   2  16
TORSDOF 6
ENDMDL
MODEL 9
REMARK VINA RESULT:      -4.8     12.218     13.468
REMARK  6 active torsions:
REMARK  status: ('A' for Active; 'I' for Inactive)
REMARK    1  A    between atoms: N_3  and  C_6 
REMARK    2  A    between atoms: N_3  and  C_8 
REMARK    3  A    between atoms: N_4  and  C_9 
REMARK    4  A    between atoms: N_5  and  C_10 
REMARK    5  A    between atoms: C_6  and  C_7 
REMARK    6  A    between atoms: C_7  and  C_9 
ROOT
HETATM    1  C   UNK N   1      29.368  23.181  -4.296  0.00  0.00     0.061 A 
HETATM    2  C   UNK N   1      30.320  22.255  -3.790  0.00  0.00     0.129 A 
HETATM    3  C   UNK N   1      28.837  22.988  -5.583  0.00  0.00     0.032 A 
HETATM    4  C   UNK N   1      30.159  21.000  -5.877  0.00  0.00    -0.059 A 
HETATM    5  C   UNK N   1      30.701  21.170  -4.600  0.00  0.00     0.045 A 
HETATM    6  C   UNK N   1      29.227  21.909  -6.367  0.00  0.00     0.009 A 
HETATM    7  C   UNK N   1      30.572  19.848  -6.718  0.00  0.00     0.048 C 
ENDROOT
BRANCH   1   8
HETATM    8  N   UNK N   1      28.941  24.297  -3.531  0.00  0.00    -0.388 N 
HETATM    9  H   UNK N   1      29.603  24.856  -3.065  0.00  0.00     0.159 HD
BRANCH   8  10
HETATM   10  C   UNK N   1      27.539  24.612  -3.435  0.00  0.00     0.121 C 
BRANCH  10  11
HETATM   11  C   UNK N   1      27.241  25.998  -3.940  0.00  0.00     0.038 C 
BRANCH  11  12
HETATM   12  C   UNK N   1      25.976  25.886  -4.762  0.00  0.00     0.112 C 
BRANCH  12  13
HETATM   13  N   UNK N   1      25.619  24.493  -4.939  0.00  0.00    -0.430 N 
HETATM   14  H   UNK N   1      25.512  23.887  -4.126  0.00  0.00     0.149 HD
HETATM   15  H   UNK N   1      25.475  24.119  -5.877  0.00  0.00     0.149 HD
ENDBRANCH  12  13
ENDBRANCH  11  12
ENDBRANCH  10  11
ENDBRANCH   8  10
ENDBRANCH   1   8
BRANCH   2  16
HETATM   16  N   UNK N   1      30.903  22.388  -2.491  0.00  0.00    -0.113 N 
HETATM   17  O   UNK N   1      30.224  22.972  -1.525  0.00  0.00    -0.532 OA
HETATM   18  O   UNK N   1      31.999  21.977  -2.262  0.00  0.00    -0.532 OA
ENDBRANCH   2  16
TORSDOF 6
ENDMDL
