MODEL 1
REMARK VINA RESULT:      -7.1      0.000      0.000
REMARK  8 active torsions:
REMARK  status: ('A' for Active; 'I' for Inactive)
REMARK    1  A    between atoms: O_2  and  C_11 
REMARK    2  A    between atoms: O_2  and  C_20 
REMARK    3  A    between atoms: O_3  and  C_13 
REMARK    4  A    between atoms: O_3  and  C_21 
REMARK    5  A    between atoms: O_4  and  C_28 
REMARK    6  A    between atoms: C_10  and  C_14 
REMARK    7  A    between atoms: C_17  and  C_18 
REMARK    8  A    between atoms: C_23  and  C_28 
ROOT
HETATM    1  S   UNK N   1      21.101  17.932   4.427  0.00  0.00    -0.081 SA
HETATM    2  N   UNK N   1      23.194  17.760   5.664  0.00  0.00    -0.348 N 
ATOM      3  HN  UNK N   1      23.903  17.504   6.351  1.00  0.00     0.166 HD
HETATM    4  C   UNK N   1      21.943  17.280   5.694  0.00  0.00     0.085 A 
HETATM    5  C   UNK N   1      23.439  18.621   4.633  0.00  0.00     0.066 A 
HETATM    6  C   UNK N   1      22.340  18.864   3.779  0.00  0.00     0.083 A 
ENDROOT
BRANCH   4   7
HETATM    7  C   UNK N   1      21.571  16.290   6.708  0.00  0.00     0.001 A 
HETATM    8  C   UNK N   1      20.398  16.544   7.421  0.00  0.00     0.054 A 
HETATM    9  C   UNK N   1      19.964  15.711   8.446  0.00  0.00     0.102 A 
HETATM   10  C   UNK N   1      20.722  14.579   8.770  0.00  0.00     0.102 A 
HETATM   11  C   UNK N   1      21.907  14.304   8.046  0.00  0.00     0.040 A 
HETATM   12  C   UNK N   1      22.335  15.162   7.019  0.00  0.00     0.017 A 
BRANCH   9  13
HETATM   13  O   UNK N   1      18.833  15.998   9.139  0.00  0.00    -0.349 OA
BRANCH  13  14
HETATM   14  C   UNK N   1      17.974  17.015   8.774  0.00  0.00     0.171 C 
HETATM   15  C   UNK N   1      17.494  17.755  10.003  0.00  0.00     0.034 C 
ENDBRANCH  13  14
ENDBRANCH   9  13
BRANCH  10  16
HETATM   16  O   UNK N   1      20.306  13.785   9.783  0.00  0.00    -0.349 OA
BRANCH  16  17
HETATM   17  C   UNK N   1      21.105  12.848  10.392  0.00  0.00     0.171 C 
HETATM   18  C   UNK N   1      20.333  12.200  11.522  0.00  0.00     0.034 C 
ENDBRANCH  16  17
ENDBRANCH  10  16
ENDBRANCH   4   7
BRANCH   5  19
HETATM   19  C   UNK N   1      24.800  19.144   4.515  0.00  0.00     0.060 A 
HETATM   20  N   UNK N   1      25.680  18.761   5.478  0.00  0.00    -0.349 N 
HETATM   21  C   UNK N   1      26.982  19.128   5.479  0.00  0.00     0.107 A 
ATOM     22  HN  UNK N   1      25.342  18.170   6.237  1.00  0.00     0.166 HD
HETATM   23  C   UNK N   1      27.463  19.934   4.444  0.00  0.00     0.037 A 
HETATM   24  C   UNK N   1      26.581  20.352   3.436  0.00  0.00     0.005 A 
HETATM   25  C   UNK N   1      25.236  19.956   3.465  0.00  0.00     0.032 A 
BRANCH  21  26
HETATM   26  C   UNK N   1      27.849  18.650   6.572  0.00  0.00     0.193 C 
HETATM   27  O   UNK N   1      28.187  19.415   7.462  0.00  0.00    -0.645 OA
BRANCH  26  28
HETATM   28  O   UNK N   1      28.272  17.371   6.601  0.00  0.00    -0.772 OA
HETATM   29  H   UNK N   1      27.680  16.683   6.836  0.00  0.00     0.167 HD
ENDBRANCH  26  28
ENDBRANCH  21  26
ENDBRANCH   5  19
TORSDOF 8
ENDMDL
MODEL 2
REMARK VINA RESULT:      -6.8      6.188      8.890
REMARK  8 active torsions:
REMARK  status: ('A' for Active; 'I' for Inactive)
REMARK    1  A    between atoms: O_2  and  C_11 
REMARK    2  A    between atoms: O_2  and  C_20 
REMARK    3  A    between atoms: O_3  and  C_13 
REMARK    4  A    between atoms: O_3  and  C_21 
REMARK    5  A    between atoms: O_4  and  C_28 
REMARK    6  A    between atoms: C_10  and  C_14 
REMARK    7  A    between atoms: C_17  and  C_18 
REMARK    8  A    between atoms: C_23  and  C_28 
ROOT
HETATM    1  S   UNK N   1      28.180  18.027   9.015  0.00  0.00    -0.081 SA
HETATM    2  N   UNK N   1      29.849  17.934   7.242  0.00  0.00    -0.348 N 
ATOM      3  HN  UNK N   1      30.314  17.990   6.335  1.00  0.00     0.166 HD
HETATM    4  C   UNK N   1      28.561  18.258   7.421  0.00  0.00     0.085 A 
HETATM    5  C   UNK N   1      30.486  17.521   8.376  0.00  0.00     0.066 A 
HETATM    6  C   UNK N   1      29.686  17.502   9.541  0.00  0.00     0.083 A 
ENDROOT
BRANCH   4   7
HETATM    7  C   UNK N   1      27.783  18.784   6.297  0.00  0.00     0.001 A 
HETATM    8  C   UNK N   1      27.327  17.848   5.367  0.00  0.00     0.054 A 
HETATM    9  C   UNK N   1      26.625  18.224   4.227  0.00  0.00     0.102 A 
HETATM   10  C   UNK N   1      26.360  19.582   4.008  0.00  0.00     0.102 A 
HETATM   11  C   UNK N   1      26.808  20.539   4.949  0.00  0.00     0.040 A 
HETATM   12  C   UNK N   1      27.524  20.142   6.091  0.00  0.00     0.017 A 
BRANCH   9  13
HETATM   13  O   UNK N   1      26.216  17.293   3.327  0.00  0.00    -0.349 OA
BRANCH  13  14
HETATM   14  C   UNK N   1      26.949  16.159   3.046  0.00  0.00     0.171 C 
HETATM   15  C   UNK N   1      26.290  15.380   1.929  0.00  0.00     0.034 C 
ENDBRANCH  13  14
ENDBRANCH   9  13
BRANCH  10  16
HETATM   16  O   UNK N   1      25.696  19.943   2.886  0.00  0.00    -0.349 OA
BRANCH  16  17
HETATM   17  C   UNK N   1      24.491  20.601   2.894  0.00  0.00     0.171 C 
HETATM   18  C   UNK N   1      23.432  19.685   3.471  0.00  0.00     0.034 C 
ENDBRANCH  16  17
ENDBRANCH  10  16
ENDBRANCH   4   7
BRANCH   5  19
HETATM   19  C   UNK N   1      31.908  17.198   8.259  0.00  0.00     0.060 A 
HETATM   20  N   UNK N   1      32.399  16.297   9.151  0.00  0.00    -0.349 N 
HETATM   21  C   UNK N   1      33.682  15.868   9.139  0.00  0.00     0.107 A 
ATOM     22  HN  UNK N   1      31.771  15.930   9.865  1.00  0.00     0.166 HD
HETATM   23  C   UNK N   1      34.556  16.359   8.166  0.00  0.00     0.037 A 
HETATM   24  C   UNK N   1      34.084  17.293   7.232  0.00  0.00     0.005 A 
HETATM   25  C   UNK N   1      32.749  17.720   7.272  0.00  0.00     0.032 A 
BRANCH  21  26
HETATM   26  C   UNK N   1      34.106  14.885  10.154  0.00  0.00     0.193 C 
HETATM   27  O   UNK N   1      35.018  14.110   9.910  0.00  0.00    -0.645 OA
BRANCH  26  28
HETATM   28  O   UNK N   1      33.497  14.835  11.354  0.00  0.00    -0.772 OA
HETATM   29  H   UNK N   1      33.219  15.625  11.776  0.00  0.00     0.167 HD
ENDBRANCH  26  28
ENDBRANCH  21  26
ENDBRANCH   5  19
TORSDOF 8
ENDMDL
MODEL 3
REMARK VINA RESULT:      -6.8      1.363      2.885
REMARK  8 active torsions:
REMARK  status: ('A' for Active; 'I' for Inactive)
REMARK    1  A    between atoms: O_2  and  C_11 
REMARK    2  A    between atoms: O_2  and  C_20 
REMARK    3  A    between atoms: O_3  and  C_13 
REMARK    4  A    between atoms: O_3  and  C_21 
REMARK    5  A    between atoms: O_4  and  C_28 
REMARK    6  A    between atoms: C_10  and  C_14 
REMARK    7  A    between atoms: C_17  and  C_18 
REMARK    8  A    between atoms: C_23  and  C_28 
ROOT
HETATM    1  S   UNK N   1      21.304  17.954   4.362  0.00  0.00    -0.081 SA
HETATM    2  N   UNK N   1      23.361  17.751   5.654  0.00  0.00    -0.348 N 
ATOM      3  HN  UNK N   1      24.050  17.474   6.352  1.00  0.00     0.166 HD
HETATM    4  C   UNK N   1      22.114  17.261   5.627  0.00  0.00     0.085 A 
HETATM    5  C   UNK N   1      23.628  18.654   4.665  0.00  0.00     0.066 A 
HETATM    6  C   UNK N   1      22.553  18.920   3.788  0.00  0.00     0.083 A 
ENDROOT
BRANCH   4   7
HETATM    7  C   UNK N   1      21.721  16.229   6.591  0.00  0.00     0.001 A 
HETATM    8  C   UNK N   1      22.213  14.944   6.357  0.00  0.00     0.054 A 
HETATM    9  C   UNK N   1      21.870  13.865   7.166  0.00  0.00     0.102 A 
HETATM   10  C   UNK N   1      21.011  14.075   8.251  0.00  0.00     0.102 A 
HETATM   11  C   UNK N   1      20.514  15.376   8.505  0.00  0.00     0.040 A 
HETATM   12  C   UNK N   1      20.864  16.452   7.672  0.00  0.00     0.017 A 
BRANCH   9  13
HETATM   13  O   UNK N   1      22.344  12.621   6.899  0.00  0.00    -0.349 OA
BRANCH  13  14
HETATM   14  C   UNK N   1      23.440  12.401   6.089  0.00  0.00     0.171 C 
HETATM   15  C   UNK N   1      24.699  12.347   6.925  0.00  0.00     0.034 C 
ENDBRANCH  13  14
ENDBRANCH   9  13
BRANCH  10  16
HETATM   16  O   UNK N   1      20.664  13.018   9.021  0.00  0.00    -0.349 OA
BRANCH  16  17
HETATM   17  C   UNK N   1      20.756  13.011  10.391  0.00  0.00     0.171 C 
HETATM   18  C   UNK N   1      21.963  12.194  10.801  0.00  0.00     0.034 C 
ENDBRANCH  16  17
ENDBRANCH  10  16
ENDBRANCH   4   7
BRANCH   5  19
HETATM   19  C   UNK N   1      24.987  19.192   4.608  0.00  0.00     0.060 A 
HETATM   20  N   UNK N   1      25.784  18.935   5.680  0.00  0.00    -0.349 N 
HETATM   21  C   UNK N   1      27.076  19.329   5.753  0.00  0.00     0.107 A 
ATOM     22  HN  UNK N   1      25.388  18.423   6.468  1.00  0.00     0.166 HD
HETATM   23  C   UNK N   1      27.636  20.030   4.681  0.00  0.00     0.037 A 
HETATM   24  C   UNK N   1      26.841  20.315   3.561  0.00  0.00     0.005 A 
HETATM   25  C   UNK N   1      25.504  19.894   3.518  0.00  0.00     0.032 A 
BRANCH  21  26
HETATM   26  C   UNK N   1      27.849  18.993   6.964  0.00  0.00     0.193 C 
HETATM   27  O   UNK N   1      28.890  18.362   6.868  0.00  0.00    -0.645 OA
BRANCH  26  28
HETATM   28  O   UNK N   1      27.418  19.380   8.180  0.00  0.00    -0.772 OA
HETATM   29  H   UNK N   1      27.960  19.257   8.935  0.00  0.00     0.167 HD
ENDBRANCH  26  28
ENDBRANCH  21  26
ENDBRANCH   5  19
TORSDOF 8
ENDMDL
MODEL 4
REMARK VINA RESULT:      -6.8      6.702     10.541
REMARK  8 active torsions:
REMARK  status: ('A' for Active; 'I' for Inactive)
REMARK    1  A    between atoms: O_2  and  C_11 
REMARK    2  A    between atoms: O_2  and  C_20 
REMARK    3  A    between atoms: O_3  and  C_13 
REMARK    4  A    between atoms: O_3  and  C_21 
REMARK    5  A    between atoms: O_4  and  C_28 
REMARK    6  A    between atoms: C_10  and  C_14 
REMARK    7  A    between atoms: C_17  and  C_18 
REMARK    8  A    between atoms: C_23  and  C_28 
ROOT
HETATM    1  S   UNK N   1      29.366  15.453   3.163  0.00  0.00    -0.081 SA
HETATM    2  N   UNK N   1      29.734  17.333   4.670  0.00  0.00    -0.348 N 
ATOM      3  HN  UNK N   1      30.151  17.979   5.340  1.00  0.00     0.166 HD
HETATM    4  C   UNK N   1      30.367  16.242   4.219  0.00  0.00     0.085 A 
HETATM    5  C   UNK N   1      28.481  17.506   4.156  0.00  0.00     0.066 A 
HETATM    6  C   UNK N   1      28.064  16.511   3.243  0.00  0.00     0.083 A 
ENDROOT
BRANCH   4   7
HETATM    7  C   UNK N   1      31.747  15.980   4.638  0.00  0.00     0.001 A 
HETATM    8  C   UNK N   1      32.360  16.973   5.404  0.00  0.00     0.054 A 
HETATM    9  C   UNK N   1      33.684  16.871   5.819  0.00  0.00     0.102 A 
HETATM   10  C   UNK N   1      34.423  15.736   5.463  0.00  0.00     0.102 A 
HETATM   11  C   UNK N   1      33.809  14.718   4.695  0.00  0.00     0.040 A 
HETATM   12  C   UNK N   1      32.473  14.842   4.277  0.00  0.00     0.017 A 
BRANCH   9  13
HETATM   13  O   UNK N   1      34.261  17.864   6.543  0.00  0.00    -0.349 OA
BRANCH  13  14
HETATM   14  C   UNK N   1      33.822  18.217   7.803  0.00  0.00     0.171 C 
HETATM   15  C   UNK N   1      34.545  17.399   8.851  0.00  0.00     0.034 C 
ENDBRANCH  13  14
ENDBRANCH   9  13
BRANCH  10  16
HETATM   16  O   UNK N   1      35.717  15.653   5.851  0.00  0.00    -0.349 OA
BRANCH  16  17
HETATM   17  C   UNK N   1      36.331  14.477   6.202  0.00  0.00     0.171 C 
HETATM   18  C   UNK N   1      36.065  14.199   7.666  0.00  0.00     0.034 C 
ENDBRANCH  16  17
ENDBRANCH  10  16
ENDBRANCH   4   7
BRANCH   5  19
HETATM   19  C   UNK N   1      27.753  18.705   4.571  0.00  0.00     0.060 A 
HETATM   20  N   UNK N   1      26.658  19.033   3.834  0.00  0.00    -0.349 N 
HETATM   21  C   UNK N   1      25.861  20.087   4.122  0.00  0.00     0.107 A 
ATOM     22  HN  UNK N   1      26.428  18.457   3.024  1.00  0.00     0.166 HD
HETATM   23  C   UNK N   1      26.160  20.884   5.230  0.00  0.00     0.037 A 
HETATM   24  C   UNK N   1      27.285  20.577   6.010  0.00  0.00     0.005 A 
HETATM   25  C   UNK N   1      28.092  19.478   5.684  0.00  0.00     0.032 A 
BRANCH  21  26
HETATM   26  C   UNK N   1      24.696  20.347   3.256  0.00  0.00     0.193 C 
HETATM   27  O   UNK N   1      23.573  20.059   3.639  0.00  0.00    -0.645 OA
BRANCH  26  28
HETATM   28  O   UNK N   1      24.858  20.908   2.041  0.00  0.00    -0.772 OA
HETATM   29  H   UNK N   1      24.441  20.534   1.289  0.00  0.00     0.167 HD
ENDBRANCH  26  28
ENDBRANCH  21  26
ENDBRANCH   5  19
TORSDOF 8
ENDMDL
MODEL 5
REMARK VINA RESULT:      -6.7      4.108      7.017
REMARK  8 active torsions:
REMARK  status: ('A' for Active; 'I' for Inactive)
REMARK    1  A    between atoms: O_2  and  C_11 
REMARK    2  A    between atoms: O_2  and  C_20 
REMARK    3  A    between atoms: O_3  and  C_13 
REMARK    4  A    between atoms: O_3  and  C_21 
REMARK    5  A    between atoms: O_4  and  C_28 
REMARK    6  A    between atoms: C_10  and  C_14 
REMARK    7  A    between atoms: C_17  and  C_18 
REMARK    8  A    between atoms: C_23  and  C_28 
ROOT
HETATM    1  S   UNK N   1      27.859  16.413   3.377  0.00  0.00    -0.081 SA
HETATM    2  N   UNK N   1      28.046  18.028   5.192  0.00  0.00    -0.348 N 
ATOM      3  HN  UNK N   1      27.877  18.816   5.818  1.00  0.00     0.166 HD
HETATM    4  C   UNK N   1      27.255  17.747   4.147  0.00  0.00     0.085 A 
HETATM    5  C   UNK N   1      29.096  17.170   5.346  0.00  0.00     0.066 A 
HETATM    6  C   UNK N   1      29.175  16.139   4.384  0.00  0.00     0.083 A 
ENDROOT
BRANCH   4   7
HETATM    7  C   UNK N   1      26.052  18.550   3.912  0.00  0.00     0.001 A 
HETATM    8  C   UNK N   1      24.851  18.018   4.387  0.00  0.00     0.054 A 
HETATM    9  C   UNK N   1      23.632  18.654   4.181  0.00  0.00     0.102 A 
HETATM   10  C   UNK N   1      23.607  19.868   3.482  0.00  0.00     0.102 A 
HETATM   11  C   UNK N   1      24.819  20.422   3.005  0.00  0.00     0.040 A 
HETATM   12  C   UNK N   1      26.040  19.761   3.215  0.00  0.00     0.017 A 
BRANCH   9  13
HETATM   13  O   UNK N   1      22.477  18.101   4.633  0.00  0.00    -0.349 OA
BRANCH  13  14
HETATM   14  C   UNK N   1      22.434  17.260   5.726  0.00  0.00     0.171 C 
HETATM   15  C   UNK N   1      21.228  17.584   6.581  0.00  0.00     0.034 C 
ENDBRANCH  13  14
ENDBRANCH   9  13
BRANCH  10  16
HETATM   16  O   UNK N   1      22.415  20.470   3.266  0.00  0.00    -0.349 OA
BRANCH  16  17
HETATM   17  C   UNK N   1      21.713  20.368   2.090  0.00  0.00     0.171 C 
HETATM   18  C   UNK N   1      20.404  19.656   2.355  0.00  0.00     0.034 C 
ENDBRANCH  16  17
ENDBRANCH  10  16
ENDBRANCH   4   7
BRANCH   5  19
HETATM   19  C   UNK N   1      29.970  17.393   6.498  0.00  0.00     0.060 A 
HETATM   20  N   UNK N   1      31.303  17.224   6.286  0.00  0.00    -0.349 N 
HETATM   21  C   UNK N   1      32.237  17.436   7.241  0.00  0.00     0.107 A 
ATOM     22  HN  UNK N   1      31.613  16.921   5.363  1.00  0.00     0.166 HD
HETATM   23  C   UNK N   1      31.829  17.854   8.511  0.00  0.00     0.037 A 
HETATM   24  C   UNK N   1      30.462  18.034   8.766  0.00  0.00     0.005 A 
HETATM   25  C   UNK N   1      29.519  17.804   7.754  0.00  0.00     0.032 A 
BRANCH  21  26
HETATM   26  C   UNK N   1      33.656  17.225   6.900  0.00  0.00     0.193 C 
HETATM   27  O   UNK N   1      34.166  17.861   5.991  0.00  0.00    -0.645 OA
BRANCH  26  28
HETATM   28  O   UNK N   1      34.400  16.337   7.587  0.00  0.00    -0.772 OA
HETATM   29  H   UNK N   1      34.753  16.563   8.425  0.00  0.00     0.167 HD
ENDBRANCH  26  28
ENDBRANCH  21  26
ENDBRANCH   5  19
TORSDOF 8
ENDMDL
MODEL 6
REMARK VINA RESULT:      -6.5      3.627      6.604
REMARK  8 active torsions:
REMARK  status: ('A' for Active; 'I' for Inactive)
REMARK    1  A    between atoms: O_2  and  C_11 
REMARK    2  A    between atoms: O_2  and  C_20 
REMARK    3  A    between atoms: O_3  and  C_13 
REMARK    4  A    between atoms: O_3  and  C_21 
REMARK    5  A    between atoms: O_4  and  C_28 
REMARK    6  A    between atoms: C_10  and  C_14 
REMARK    7  A    between atoms: C_17  and  C_18 
REMARK    8  A    between atoms: C_23  and  C_28 
ROOT
HETATM    1  S   UNK N   1      27.343  16.306   2.975  0.00  0.00    -0.081 SA
HETATM    2  N   UNK N   1      27.627  17.862   4.829  0.00  0.00    -0.348 N 
ATOM      3  HN  UNK N   1      27.489  18.625   5.491  1.00  0.00     0.166 HD
HETATM    4  C   UNK N   1      26.774  17.605   3.827  0.00  0.00     0.085 A 
HETATM    5  C   UNK N   1      28.695  17.014   4.886  0.00  0.00     0.066 A 
HETATM    6  C   UNK N   1      28.725  16.017   3.886  0.00  0.00     0.083 A 
ENDROOT
BRANCH   4   7
HETATM    7  C   UNK N   1      25.548  18.397   3.698  0.00  0.00     0.001 A 
HETATM    8  C   UNK N   1      24.389  17.836   4.237  0.00  0.00     0.054 A 
HETATM    9  C   UNK N   1      23.151  18.461   4.133  0.00  0.00     0.102 A 
HETATM   10  C   UNK N   1      23.065  19.694   3.473  0.00  0.00     0.102 A 
HETATM   11  C   UNK N   1      24.235  20.277   2.932  0.00  0.00     0.040 A 
HETATM   12  C   UNK N   1      25.476  19.627   3.039  0.00  0.00     0.017 A 
BRANCH   9  13
HETATM   13  O   UNK N   1      22.036  17.880   4.645  0.00  0.00    -0.349 OA
BRANCH  13  14
HETATM   14  C   UNK N   1      21.626  18.079   5.948  0.00  0.00     0.171 C 
HETATM   15  C   UNK N   1      21.568  16.756   6.680  0.00  0.00     0.034 C 
ENDBRANCH  13  14
ENDBRANCH   9  13
BRANCH  10  16
HETATM   16  O   UNK N   1      21.854  20.286   3.355  0.00  0.00    -0.349 OA
BRANCH  16  17
HETATM   17  C   UNK N   1      20.896  19.886   2.457  0.00  0.00     0.171 C 
HETATM   18  C   UNK N   1      20.722  20.963   1.407  0.00  0.00     0.034 C 
ENDBRANCH  16  17
ENDBRANCH  10  16
ENDBRANCH   4   7
BRANCH   5  19
HETATM   19  C   UNK N   1      29.639  17.210   5.986  0.00  0.00     0.060 A 
HETATM   20  N   UNK N   1      29.102  17.525   7.195  0.00  0.00    -0.349 N 
HETATM   21  C   UNK N   1      29.844  17.694   8.314  0.00  0.00     0.107 A 
ATOM     22  HN  UNK N   1      28.091  17.641   7.261  1.00  0.00     0.166 HD
HETATM   23  C   UNK N   1      31.230  17.534   8.241  0.00  0.00     0.037 A 
HETATM   24  C   UNK N   1      31.819  17.214   7.009  0.00  0.00     0.005 A 
HETATM   25  C   UNK N   1      31.022  17.048   5.868  0.00  0.00     0.032 A 
BRANCH  21  26
HETATM   26  C   UNK N   1      29.154  18.030   9.574  0.00  0.00     0.193 C 
HETATM   27  O   UNK N   1      28.027  17.612   9.783  0.00  0.00    -0.645 OA
BRANCH  26  28
HETATM   28  O   UNK N   1      29.761  18.795  10.502  0.00  0.00    -0.772 OA
HETATM   29  H   UNK N   1      29.262  19.399  11.016  0.00  0.00     0.167 HD
ENDBRANCH  26  28
ENDBRANCH  21  26
ENDBRANCH   5  19
TORSDOF 8
ENDMDL
MODEL 7
REMARK VINA RESULT:      -6.5      7.524     11.474
REMARK  8 active torsions:
REMARK  status: ('A' for Active; 'I' for Inactive)
REMARK    1  A    between atoms: O_2  and  C_11 
REMARK    2  A    between atoms: O_2  and  C_20 
REMARK    3  A    between atoms: O_3  and  C_13 
REMARK    4  A    between atoms: O_3  and  C_21 
REMARK    5  A    between atoms: O_4  and  C_28 
REMARK    6  A    between atoms: C_10  and  C_14 
REMARK    7  A    between atoms: C_17  and  C_18 
REMARK    8  A    between atoms: C_23  and  C_28 
ROOT
HETATM    1  S   UNK N   1      33.932  18.054   8.278  0.00  0.00    -0.081 SA
HETATM    2  N   UNK N   1      32.726  16.105   9.105  0.00  0.00    -0.348 N 
ATOM      3  HN  UNK N   1      31.986  15.442   9.339  1.00  0.00     0.166 HD
HETATM    4  C   UNK N   1      32.493  17.259   8.464  0.00  0.00     0.085 A 
HETATM    5  C   UNK N   1      34.037  15.893   9.418  0.00  0.00     0.066 A 
HETATM    6  C   UNK N   1      34.924  16.919   9.020  0.00  0.00     0.083 A 
ENDROOT
BRANCH   4   7
HETATM    7  C   UNK N   1      31.137  17.574   8.007  0.00  0.00     0.001 A 
HETATM    8  C   UNK N   1      30.827  17.214   6.694  0.00  0.00     0.054 A 
HETATM    9  C   UNK N   1      29.592  17.506   6.123  0.00  0.00     0.102 A 
HETATM   10  C   UNK N   1      28.629  18.174   6.889  0.00  0.00     0.102 A 
HETATM   11  C   UNK N   1      28.928  18.534   8.225  0.00  0.00     0.040 A 
HETATM   12  C   UNK N   1      30.183  18.239   8.782  0.00  0.00     0.017 A 
BRANCH   9  13
HETATM   13  O   UNK N   1      29.328  17.167   4.835  0.00  0.00    -0.349 OA
BRANCH  13  14
HETATM   14  C   UNK N   1      29.518  15.889   4.349  0.00  0.00     0.171 C 
HETATM   15  C   UNK N   1      30.463  15.920   3.168  0.00  0.00     0.034 C 
ENDBRANCH  13  14
ENDBRANCH   9  13
BRANCH  10  16
HETATM   16  O   UNK N   1      27.439  18.475   6.320  0.00  0.00    -0.349 OA
BRANCH  16  17
HETATM   17  C   UNK N   1      27.023  19.757   6.058  0.00  0.00     0.171 C 
HETATM   18  C   UNK N   1      27.502  20.159   4.679  0.00  0.00     0.034 C 
ENDBRANCH  16  17
ENDBRANCH  10  16
ENDBRANCH   4   7
BRANCH   5  19
HETATM   19  C   UNK N   1      34.366  14.629  10.076  0.00  0.00     0.060 A 
HETATM   20  N   UNK N   1      34.832  14.714  11.351  0.00  0.00    -0.349 N 
HETATM   21  C   UNK N   1      35.136  13.631  12.102  0.00  0.00     0.107 A 
ATOM     22  HN  UNK N   1      34.960  15.640  11.760  1.00  0.00     0.166 HD
HETATM   23  C   UNK N   1      34.963  12.356  11.559  0.00  0.00     0.037 A 
HETATM   24  C   UNK N   1      34.489  12.230  10.245  0.00  0.00     0.005 A 
HETATM   25  C   UNK N   1      34.184  13.373   9.492  0.00  0.00     0.032 A 
BRANCH  21  26
HETATM   26  C   UNK N   1      35.630  13.842  13.476  0.00  0.00     0.193 C 
HETATM   27  O   UNK N   1      34.963  13.472  14.428  0.00  0.00    -0.645 OA
BRANCH  26  28
HETATM   28  O   UNK N   1      36.819  14.437  13.691  0.00  0.00    -0.772 OA
HETATM   29  H   UNK N   1      37.214  14.411  14.541  0.00  0.00     0.167 HD
ENDBRANCH  26  28
ENDBRANCH  21  26
ENDBRANCH   5  19
TORSDOF 8
ENDMDL
MODEL 8
REMARK VINA RESULT:      -6.5      8.861     12.455
REMARK  8 active torsions:
REMARK  status: ('A' for Active; 'I' for Inactive)
REMARK    1  A    between atoms: O_2  and  C_11 
REMARK    2  A    between atoms: O_2  and  C_20 
REMARK    3  A    between atoms: O_3  and  C_13 
REMARK    4  A    between atoms: O_3  and  C_21 
REMARK    5  A    between atoms: O_4  and  C_28 
REMARK    6  A    between atoms: C_10  and  C_14 
REMARK    7  A    between atoms: C_17  and  C_18 
REMARK    8  A    between atoms: C_23  and  C_28 
ROOT
HETATM    1  S   UNK N   1      34.848  17.080   9.227  0.00  0.00    -0.081 SA
HETATM    2  N   UNK N   1      32.866  15.733   8.786  0.00  0.00    -0.348 N 
ATOM      3  HN  UNK N   1      32.195  14.965   8.757  1.00  0.00     0.166 HD
HETATM    4  C   UNK N   1      34.047  15.644   9.413  0.00  0.00     0.085 A 
HETATM    5  C   UNK N   1      32.639  16.939   8.188  0.00  0.00     0.066 A 
HETATM    6  C   UNK N   1      33.680  17.884   8.327  0.00  0.00     0.083 A 
ENDROOT
BRANCH   4   7
HETATM    7  C   UNK N   1      34.384  14.427  10.155  0.00  0.00     0.001 A 
HETATM    8  C   UNK N   1      34.642  14.585  11.518  0.00  0.00     0.054 A 
HETATM    9  C   UNK N   1      35.025  13.517  12.324  0.00  0.00     0.102 A 
HETATM   10  C   UNK N   1      35.149  12.245  11.753  0.00  0.00     0.102 A 
HETATM   11  C   UNK N   1      34.880  12.070  10.375  0.00  0.00     0.040 A 
HETATM   12  C   UNK N   1      34.503  13.162   9.575  0.00  0.00     0.017 A 
BRANCH   9  13
HETATM   13  O   UNK N   1      35.294  13.706  13.641  0.00  0.00    -0.349 OA
BRANCH  13  14
HETATM   14  C   UNK N   1      36.403  14.399  14.082  0.00  0.00     0.171 C 
HETATM   15  C   UNK N   1      36.802  13.915  15.459  0.00  0.00     0.034 C 
ENDBRANCH  13  14
ENDBRANCH   9  13
BRANCH  10  16
HETATM   16  O   UNK N   1      35.544  11.215  12.538  0.00  0.00    -0.349 OA
BRANCH  16  17
HETATM   17  C   UNK N   1      36.855  10.836  12.693  0.00  0.00     0.171 C 
HETATM   18  C   UNK N   1      36.924   9.690  13.679  0.00  0.00     0.034 C 
ENDBRANCH  16  17
ENDBRANCH  10  16
ENDBRANCH   4   7
BRANCH   5  19
HETATM   19  C   UNK N   1      31.346  17.118   7.527  0.00  0.00     0.060 A 
HETATM   20  N   UNK N   1      30.284  17.378   8.336  0.00  0.00    -0.349 N 
HETATM   21  C   UNK N   1      29.036  17.609   7.868  0.00  0.00     0.107 A 
ATOM     22  HN  UNK N   1      30.436  17.398   9.344  1.00  0.00     0.166 HD
HETATM   23  C   UNK N   1      28.812  17.590   6.489  0.00  0.00     0.037 A 
HETATM   24  C   UNK N   1      29.884  17.320   5.625  0.00  0.00     0.005 A 
HETATM   25  C   UNK N   1      31.165  17.082   6.142  0.00  0.00     0.032 A 
BRANCH  21  26
HETATM   26  C   UNK N   1      27.959  17.885   8.837  0.00  0.00     0.193 C 
HETATM   27  O   UNK N   1      27.654  17.044   9.667  0.00  0.00    -0.645 OA
BRANCH  26  28
HETATM   28  O   UNK N   1      27.307  19.064   8.817  0.00  0.00    -0.772 OA
HETATM   29  H   UNK N   1      26.724  19.293   9.515  0.00  0.00     0.167 HD
ENDBRANCH  26  28
ENDBRANCH  21  26
ENDBRANCH   5  19
TORSDOF 8
ENDMDL
MODEL 9
REMARK VINA RESULT:      -6.5      3.373      9.135
REMARK  8 active torsions:
REMARK  status: ('A' for Active; 'I' for Inactive)
REMARK    1  A    between atoms: O_2  and  C_11 
REMARK    2  A    between atoms: O_2  and  C_20 
REMARK    3  A    between atoms: O_3  and  C_13 
REMARK    4  A    between atoms: O_3  and  C_21 
REMARK    5  A    between atoms: O_4  and  C_28 
REMARK    6  A    between atoms: C_10  and  C_14 
REMARK    7  A    between atoms: C_17  and  C_18 
REMARK    8  A    between atoms: C_23  and  C_28 
ROOT
HETATM    1  S   UNK N   1      24.056  15.261   5.696  0.00  0.00    -0.081 SA
HETATM    2  N   UNK N   1      25.407  14.422   7.542  0.00  0.00    -0.348 N 
ATOM      3  HN  UNK N   1      26.193  14.193   8.150  1.00  0.00     0.166 HD
HETATM    4  C   UNK N   1      25.548  15.098   6.394  0.00  0.00     0.085 A 
HETATM    5  C   UNK N   1      24.121  14.065   7.828  0.00  0.00     0.066 A 
HETATM    6  C   UNK N   1      23.160  14.462   6.870  0.00  0.00     0.083 A 
ENDROOT
BRANCH   4   7
HETATM    7  C   UNK N   1      26.868  15.603   6.007  0.00  0.00     0.001 A 
HETATM    8  C   UNK N   1      27.066  16.979   6.132  0.00  0.00     0.054 A 
HETATM    9  C   UNK N   1      28.255  17.590   5.748  0.00  0.00     0.102 A 
HETATM   10  C   UNK N   1      29.287  16.801   5.226  0.00  0.00     0.102 A 
HETATM   11  C   UNK N   1      29.102  15.403   5.104  0.00  0.00     0.040 A 
HETATM   12  C   UNK N   1      27.891  14.804   5.489  0.00  0.00     0.017 A 
BRANCH   9  13
HETATM   13  O   UNK N   1      28.410  18.934   5.858  0.00  0.00    -0.349 OA
BRANCH  13  14
HETATM   14  C   UNK N   1      27.656  19.701   6.723  0.00  0.00     0.171 C 
HETATM   15  C   UNK N   1      27.357  21.045   6.096  0.00  0.00     0.034 C 
ENDBRANCH  13  14
ENDBRANCH   9  13
BRANCH  10  16
HETATM   16  O   UNK N   1      30.433  17.404   4.833  0.00  0.00    -0.349 OA
BRANCH  16  17
HETATM   17  C   UNK N   1      31.679  17.028   5.271  0.00  0.00     0.171 C 
HETATM   18  C   UNK N   1      31.752  17.215   6.771  0.00  0.00     0.034 C 
ENDBRANCH  16  17
ENDBRANCH  10  16
ENDBRANCH   4   7
BRANCH   5  19
HETATM   19  C   UNK N   1      23.892  13.365   9.092  0.00  0.00     0.060 A 
HETATM   20  N   UNK N   1      22.597  13.242   9.489  0.00  0.00    -0.349 N 
HETATM   21  C   UNK N   1      22.226  12.584  10.611  0.00  0.00     0.107 A 
ATOM     22  HN  UNK N   1      21.870  13.668   8.913  1.00  0.00     0.166 HD
HETATM   23  C   UNK N   1      23.208  11.992  11.409  0.00  0.00     0.037 A 
HETATM   24  C   UNK N   1      24.555  12.103  11.032  0.00  0.00     0.005 A 
HETATM   25  C   UNK N   1      24.906  12.794   9.863  0.00  0.00     0.032 A 
BRANCH  21  26
HETATM   26  C   UNK N   1      20.791  12.510  10.943  0.00  0.00     0.193 C 
HETATM   27  O   UNK N   1      19.979  13.146  10.291  0.00  0.00    -0.645 OA
BRANCH  26  28
HETATM   28  O   UNK N   1      20.364  11.739  11.962  0.00  0.00    -0.772 OA
HETATM   29  H   UNK N   1      19.543  11.290  11.904  0.00  0.00     0.167 HD
ENDBRANCH  26  28
ENDBRANCH  21  26
ENDBRANCH   5  19
TORSDOF 8
ENDMDL
