REMARK  3 active torsions:
REMARK  status: ('A' for Active; 'I' for Inactive)
REMARK    1  A    between atoms: C_4  and  C_3 
REMARK    2  A    between atoms: C_4  and  O_32 
REMARK    3  A    between atoms: C_10  and  C_22 
ROOT
HETATM    1  C   UNK N   1      -1.134  -7.957  -1.103  0.00  0.00     0.112 C 
HETATM    2  C   UNK N   1      -0.215  -6.941  -0.588  0.00  0.00    -0.108 C 
HETATM    3  C   UNK N   1       0.574  -6.129  -0.174  0.00  0.00    -0.068 C 
ENDROOT
BRANCH   3   4
HETATM    4  C   UNK N   1       1.617  -5.208   0.298  0.00  0.00     0.128 C 
HETATM    5  C   UNK N   1       2.715  -5.096  -0.731  0.00  0.00     0.052 C 
HETATM    6  C   UNK N   1       3.519  -3.890  -0.277  0.00  0.00     0.010 C 
HETATM    7  C   UNK N   1       2.550  -3.008   0.511  0.00  0.00     0.006 C 
HETATM    8  C   UNK N   1       1.189  -3.741   0.518  0.00  0.00     0.004 C 
HETATM    9  C   UNK N   1       2.608  -1.598  -0.110  0.00  0.00     0.021 C 
HETATM   10  C   UNK N   1       0.282  -3.178  -0.591  0.00  0.00     0.027 C 
HETATM   11  C   UNK N   1       0.468  -3.576   1.856  0.00  0.00     0.020 C 
HETATM   12  C   UNK N   1       0.041  -1.683  -0.334  0.00  0.00     0.049 C 
HETATM   13  C   UNK N   1       1.289  -0.837  -0.078  0.00  0.00    -0.060 C 
HETATM   14  C   UNK N   1       1.285   0.514   0.133  0.00  0.00    -0.048 C 
HETATM   15  C   UNK N   1      -0.000   1.303   0.273  0.00  0.00     0.047 C 
HETATM   16  C   UNK N   1       2.584   1.267   0.237  0.00  0.00    -0.048 C 
HETATM   17  C   UNK N   1       0.121   2.707  -0.308  0.00  0.00     0.087 C 
HETATM   18  C   UNK N   1       1.349   3.374   0.228  0.00  0.00     0.150 C 
HETATM   19  O   UNK N   1       1.332   4.557   0.522  0.00  0.00    -0.293 OA
HETATM   20  C   UNK N   1       2.599   2.605   0.312  0.00  0.00     0.057 C 
HETATM   21  C   UNK N   1       3.895   0.559   0.144  0.00  0.00     0.040 C 
HETATM   22  C   UNK N   1       3.759  -0.877   0.589  0.00  0.00     0.014 C 
BRANCH  12  23
HETATM   23  C   UNK N   1      -1.370  -1.186  -0.466  0.00  0.00    -0.047 A 
HETATM   24  C   UNK N   1      -1.732  -0.305  -1.517  0.00  0.00     0.011 A 
HETATM   25  C   UNK N   1      -3.059   0.152  -1.635  0.00  0.00     0.040 A 
HETATM   26  C   UNK N   1      -3.985  -0.306  -0.699  0.00  0.00     0.105 A 
HETATM   27  C   UNK N   1      -3.648  -1.149   0.284  0.00  0.00     0.105 A 
HETATM   28  O   UNK N   1      -5.282  -0.022  -0.611  0.00  0.00    -0.323 OA
HETATM   29  C   UNK N   1      -2.350  -1.623   0.449  0.00  0.00     0.047 A 
HETATM   30  O   UNK N   1      -4.728  -1.421   1.016  0.00  0.00    -0.323 OA
HETATM   31  C   UNK N   1      -5.813  -0.718   0.481  0.00  0.00     0.352 A 
ENDBRANCH  12  23
BRANCH   4  32
HETATM   32  O   UNK N   1       2.177  -5.735   1.470  0.00  0.00    -0.377 OA
HETATM   33  H   UNK N   1       2.055  -6.253   2.281  0.00  0.00     0.211 HD
ENDBRANCH   4  32
ENDBRANCH   3   4
TORSDOF 3
