REMARK  5 active torsions:
REMARK  status: ('A' for Active; 'I' for Inactive)
REMARK    1  A    between atoms: C_2  and  O_27 
REMARK    2  A    between atoms: C_7  and  O_26 
REMARK    3  A    between atoms: C_8  and  C_11 
REMARK       I    between atoms: C_11  and  N_12 
REMARK    4  A    between atoms: N_12  and  C_13 
REMARK    5  A    between atoms: C_17  and  C_20 
ROOT
HETATM    1  C   UNK N   1      -3.992  -0.135  -0.129  0.00  0.00     0.059 A 
HETATM    2  C   UNK N   1      -5.184   0.622  -0.315  0.00  0.00     0.083 A 
HETATM    3  C   UNK N   1      -6.403  -0.046  -0.522  0.00  0.00     0.038 A 
HETATM    4  C   UNK N   1      -6.460  -1.434  -0.547  0.00  0.00     0.005 A 
HETATM    5  C   UNK N   1      -5.303  -2.179  -0.358  0.00  0.00     0.031 A 
HETATM    6  C   UNK N   1      -4.063  -1.550  -0.147  0.00  0.00     0.052 A 
HETATM    7  C   UNK N   1      -2.734   0.480   0.069  0.00  0.00     0.102 A 
HETATM    8  C   UNK N   1      -1.567  -0.302   0.240  0.00  0.00     0.134 A 
HETATM    9  C   UNK N   1      -1.709  -1.714   0.265  0.00  0.00     0.266 A 
HETATM   10  N   UNK N   1      -2.938  -2.302   0.055  0.00  0.00    -0.317 N 
HETATM   11  O   UNK N   1      -0.750  -2.425   0.516  0.00  0.00    -0.267 OA
HETATM   12  C   UNK N   1      -3.030  -3.764   0.065  0.00  0.00     0.159 C 
ENDROOT
BRANCH   8  13
HETATM   13  C   UNK N   1      -0.229   0.402   0.423  0.00  0.00     0.266 C 
HETATM   14  N   UNK N   1       0.964  -0.076  -0.103  0.00  0.00    -0.318 N 
HETATM   15  C   UNK N   1       0.961  -1.229  -0.979  0.00  0.00     0.159 C 
HETATM   16  O   UNK N   1      -0.238   1.466   1.024  0.00  0.00    -0.267 OA
BRANCH  14  17
HETATM   17  C   UNK N   1       2.229   0.609   0.049  0.00  0.00     0.037 A 
HETATM   18  C   UNK N   1       3.401   0.014  -0.457  0.00  0.00     0.030 A 
HETATM   19  C   UNK N   1       4.629   0.669  -0.398  0.00  0.00     0.018 A 
HETATM   20  C   UNK N   1       4.719   1.946   0.158  0.00  0.00     0.048 A 
HETATM   21  C   UNK N   1       3.569   2.549   0.687  0.00  0.00     0.018 A 
HETATM   22  C   UNK N   1       2.338   1.883   0.639  0.00  0.00     0.030 A 
BRANCH  20  23
HETATM   23  C   UNK N   1       6.039   2.662   0.141  0.00  0.00     0.417 C 
HETATM   24  F   UNK N   1       5.927   3.933   0.678  0.00  0.00    -0.166 F 
HETATM   25  F   UNK N   1       6.970   1.945   0.870  0.00  0.00    -0.166 F 
HETATM   26  F   UNK N   1       6.478   2.771  -1.167  0.00  0.00    -0.166 F 
ENDBRANCH  20  23
ENDBRANCH  14  17
ENDBRANCH   8  13
BRANCH   7  27
HETATM   27  O   UNK N   1      -2.636   1.824   0.069  0.00  0.00    -0.358 OA
HETATM   28  H   UNK N   1      -1.792   2.233   0.068  0.00  0.00     0.217 HD
ENDBRANCH   7  27
BRANCH   2  29
HETATM   29  O   UNK N   1      -5.150   1.979  -0.289  0.00  0.00    -0.355 OA
HETATM   30  C   UNK N   1      -6.268   2.771  -0.432  0.00  0.00     0.210 C 
ENDBRANCH   2  29
TORSDOF 5
