MODEL 1
REMARK VINA RESULT:      -7.3      0.000      0.000
REMARK  19 active torsions:
REMARK  status: ('A' for Active; 'I' for Inactive)
REMARK    1  A    between atoms: C_2  and  C_4 
REMARK    2  A    between atoms: C_4  and  C_5 
REMARK    3  A    between atoms: C_5  and  C_6 
REMARK    4  A    between atoms: C_5  and  N_9 
REMARK       I    between atoms: C_6  and  N_8 
REMARK       I    between atoms: N_9  and  C_10 
REMARK    5  A    between atoms: C_10  and  C_12 
REMARK    6  A    between atoms: C_12  and  C_13 
REMARK    7  A    between atoms: C_12  and  N_20 
REMARK    8  A    between atoms: C_13  and  C_14 
REMARK       I    between atoms: N_20  and  C_21 
REMARK    9  A    between atoms: C_21  and  C_23 
REMARK   10  A    between atoms: C_23  and  C_24 
REMARK   11  A    between atoms: C_23  and  N_31 
REMARK   12  A    between atoms: C_24  and  C_25 
REMARK       I    between atoms: N_31  and  C_32 
REMARK   13  A    between atoms: C_32  and  C_34 
REMARK   14  A    between atoms: C_34  and  C_35 
REMARK   15  A    between atoms: C_34  and  N_38 
REMARK       I    between atoms: N_38  and  C_39 
REMARK   16  A    between atoms: C_39  and  C_41 
REMARK   17  A    between atoms: C_41  and  C_42 
REMARK   18  A    between atoms: C_41  and  N_46 
REMARK   19  A    between atoms: C_42  and  C_43 
ROOT
HETATM    1  C   UNK N   1      25.584  14.537   5.981  0.00  0.00     0.180 C 
ENDROOT
BRANCH   1   2
HETATM    2  C   UNK N   1      26.668  15.485   6.436  0.00  0.00     0.241 C 
HETATM    3  N   UNK N   1      27.754  15.672   5.644  0.00  0.00    -0.346 N 
HETATM    4  H   UNK N   1      27.788  15.180   4.792  0.00  0.00     0.163 HD
HETATM    5  O   UNK N   1      26.563  16.064   7.510  0.00  0.00    -0.271 OA
BRANCH   3   6
HETATM    6  C   UNK N   1      28.869  16.546   5.965  0.00  0.00     0.180 C 
BRANCH   6   7
HETATM    7  C   UNK N   1      30.155  15.825   6.297  0.00  0.00     0.241 C 
HETATM    8  N   UNK N   1      30.976  16.409   7.205  0.00  0.00    -0.346 N 
HETATM    9  H   UNK N   1      30.685  17.303   7.499  0.00  0.00     0.163 HD
HETATM   10  O   UNK N   1      30.422  14.741   5.801  0.00  0.00    -0.271 OA
BRANCH   8  11
HETATM   11  C   UNK N   1      32.204  15.953   7.819  0.00  0.00     0.176 C 
BRANCH  11  12
HETATM   12  C   UNK N   1      32.805  17.189   8.477  0.00  0.00     0.038 C 
BRANCH  12  13
HETATM   13  C   UNK N   1      34.318  17.240   8.447  0.00  0.00    -0.020 C 
HETATM   14  C   UNK N   1      34.727  18.671   8.172  0.00  0.00     0.009 C 
HETATM   15  C   UNK N   1      34.889  16.815   9.784  0.00  0.00     0.009 C 
ENDBRANCH  12  13
ENDBRANCH  11  12
BRANCH  11  16
HETATM   16  C   UNK N   1      32.024  14.864   8.835  0.00  0.00     0.238 C 
HETATM   17  O   UNK N   1      32.188  13.696   8.519  0.00  0.00    -0.271 OA
HETATM   18  N   UNK N   1      31.643  15.175  10.089  0.00  0.00    -0.368 N 
HETATM   19  H   UNK N   1      30.804  15.562  10.429  0.00  0.00     0.159 HD
HETATM   20  H   UNK N   1      32.316  14.982  10.782  0.00  0.00     0.159 HD
ENDBRANCH  11  16
ENDBRANCH   8  11
ENDBRANCH   6   7
BRANCH   6  21
HETATM   21  C   UNK N   1      29.017  17.716   4.984  0.00  0.00     0.073 C 
BRANCH  21  22
HETATM   22  C   UNK N   1      28.277  18.919   5.467  0.00  0.00    -0.056 A 
HETATM   23  C   UNK N   1      27.998  19.096   6.829  0.00  0.00     0.007 A 
HETATM   24  C   UNK N   1      27.282  20.212   7.264  0.00  0.00     0.001 A 
HETATM   25  C   UNK N   1      26.848  21.162   6.336  0.00  0.00     0.000 A 
HETATM   26  C   UNK N   1      27.136  20.997   4.979  0.00  0.00     0.001 A 
HETATM   27  C   UNK N   1      27.851  19.876   4.545  0.00  0.00     0.007 A 
ENDBRANCH  21  22
ENDBRANCH   6  21
ENDBRANCH   3   6
ENDBRANCH   1   2
BRANCH   1  28
HETATM   28  C   UNK N   1      25.762  13.107   6.520  0.00  0.00     0.073 C 
BRANCH  28  29
HETATM   29  C   UNK N   1      24.870  12.671   7.661  0.00  0.00    -0.056 A 
HETATM   30  C   UNK N   1      24.891  13.296   8.920  0.00  0.00     0.007 A 
HETATM   31  C   UNK N   1      24.003  12.900   9.924  0.00  0.00     0.001 A 
HETATM   32  C   UNK N   1      23.090  11.872   9.681  0.00  0.00     0.000 A 
HETATM   33  C   UNK N   1      23.071  11.236   8.437  0.00  0.00     0.001 A 
HETATM   34  C   UNK N   1      23.957  11.636   7.431  0.00  0.00     0.007 A 
ENDBRANCH  28  29
ENDBRANCH   1  28
BRANCH   1  35
HETATM   35  N   UNK N   1      24.220  15.014   6.219  0.00  0.00    -0.346 N 
HETATM   36  C   UNK N   1      23.183  14.967   5.335  0.00  0.00     0.241 C 
HETATM   37  O   UNK N   1      23.353  14.562   4.190  0.00  0.00    -0.271 OA
HETATM   38  H   UNK N   1      24.033  15.407   7.103  0.00  0.00     0.163 HD
BRANCH  36  39
HETATM   39  C   UNK N   1      21.781  15.301   5.766  0.00  0.00     0.180 C 
BRANCH  39  40
HETATM   40  C   UNK N   1      21.584  15.154   7.276  0.00  0.00     0.009 C 
HETATM   41  C   UNK N   1      20.835  16.351   7.830  0.00  0.00     0.012 C 
HETATM   42  C   UNK N   1      20.761  13.912   7.578  0.00  0.00     0.012 C 
ENDBRANCH  39  40
BRANCH  39  43
HETATM   43  N   UNK N   1      21.539  16.642   5.280  0.00  0.00    -0.346 N 
HETATM   44  C   UNK N   1      20.832  16.875   4.157  0.00  0.00     0.240 C 
HETATM   45  O   UNK N   1      20.050  16.031   3.735  0.00  0.00    -0.271 OA
HETATM   46  H   UNK N   1      21.900  17.405   5.784  0.00  0.00     0.163 HD
BRANCH  44  47
HETATM   47  C   UNK N   1      21.310  17.967   3.249  0.00  0.00     0.169 C 
BRANCH  47  48
HETATM   48  C   UNK N   1      22.093  19.092   3.922  0.00  0.00     0.038 C 
BRANCH  48  49
HETATM   49  C   UNK N   1      23.576  19.029   3.603  0.00  0.00    -0.020 C 
HETATM   50  C   UNK N   1      24.049  20.393   3.162  0.00  0.00     0.009 C 
HETATM   51  C   UNK N   1      24.339  18.605   4.845  0.00  0.00     0.009 C 
ENDBRANCH  48  49
ENDBRANCH  47  48
BRANCH  47  52
HETATM   52  N   UNK N   1      20.231  18.425   2.379  0.00  0.00    -0.413 N 
HETATM   53  C   UNK N   1      20.192  19.872   2.427  0.00  0.00     0.140 C 
HETATM   54  H   UNK N   1      19.611  17.829   1.831  0.00  0.00     0.153 HD
ENDBRANCH  47  52
ENDBRANCH  44  47
ENDBRANCH  39  43
ENDBRANCH  36  39
ENDBRANCH   1  35
TORSDOF 19
ENDMDL
MODEL 2
REMARK VINA RESULT:      -7.2      2.949      7.591
REMARK  19 active torsions:
REMARK  status: ('A' for Active; 'I' for Inactive)
REMARK    1  A    between atoms: C_2  and  C_4 
REMARK    2  A    between atoms: C_4  and  C_5 
REMARK    3  A    between atoms: C_5  and  C_6 
REMARK    4  A    between atoms: C_5  and  N_9 
REMARK       I    between atoms: C_6  and  N_8 
REMARK       I    between atoms: N_9  and  C_10 
REMARK    5  A    between atoms: C_10  and  C_12 
REMARK    6  A    between atoms: C_12  and  C_13 
REMARK    7  A    between atoms: C_12  and  N_20 
REMARK    8  A    between atoms: C_13  and  C_14 
REMARK       I    between atoms: N_20  and  C_21 
REMARK    9  A    between atoms: C_21  and  C_23 
REMARK   10  A    between atoms: C_23  and  C_24 
REMARK   11  A    between atoms: C_23  and  N_31 
REMARK   12  A    between atoms: C_24  and  C_25 
REMARK       I    between atoms: N_31  and  C_32 
REMARK   13  A    between atoms: C_32  and  C_34 
REMARK   14  A    between atoms: C_34  and  C_35 
REMARK   15  A    between atoms: C_34  and  N_38 
REMARK       I    between atoms: N_38  and  C_39 
REMARK   16  A    between atoms: C_39  and  C_41 
REMARK   17  A    between atoms: C_41  and  C_42 
REMARK   18  A    between atoms: C_41  and  N_46 
REMARK   19  A    between atoms: C_42  and  C_43 
ROOT
HETATM    1  C   UNK N   1      26.412  15.759   4.960  0.00  0.00     0.180 C 
ENDROOT
BRANCH   1   2
HETATM    2  C   UNK N   1      25.833  16.673   3.906  0.00  0.00     0.241 C 
HETATM    3  N   UNK N   1      25.282  17.854   4.289  0.00  0.00    -0.346 N 
HETATM    4  H   UNK N   1      25.289  18.071   5.248  0.00  0.00     0.163 HD
HETATM    5  O   UNK N   1      25.856  16.341   2.728  0.00  0.00    -0.271 OA
BRANCH   3   6
HETATM    6  C   UNK N   1      24.686  18.818   3.382  0.00  0.00     0.180 C 
BRANCH   6   7
HETATM    7  C   UNK N   1      23.231  19.120   3.656  0.00  0.00     0.241 C 
HETATM    8  N   UNK N   1      22.509  18.165   4.296  0.00  0.00    -0.346 N 
HETATM    9  H   UNK N   1      22.996  17.321   4.443  0.00  0.00     0.163 HD
HETATM   10  O   UNK N   1      22.737  20.195   3.354  0.00  0.00    -0.271 OA
BRANCH   8  11
HETATM   11  C   UNK N   1      21.153  18.165   4.797  0.00  0.00     0.176 C 
BRANCH  11  12
HETATM   12  C   UNK N   1      20.438  17.066   4.019  0.00  0.00     0.038 C 
BRANCH  12  13
HETATM   13  C   UNK N   1      19.645  17.559   2.827  0.00  0.00    -0.020 C 
HETATM   14  C   UNK N   1      19.528  19.064   2.941  0.00  0.00     0.009 C 
HETATM   15  C   UNK N   1      20.361  17.219   1.537  0.00  0.00     0.009 C 
ENDBRANCH  12  13
ENDBRANCH  11  12
BRANCH  11  16
HETATM   16  C   UNK N   1      21.035  17.912   6.271  0.00  0.00     0.238 C 
HETATM   17  O   UNK N   1      20.965  18.849   7.051  0.00  0.00    -0.271 OA
HETATM   18  N   UNK N   1      21.046  16.648   6.737  0.00  0.00    -0.368 N 
HETATM   19  H   UNK N   1      21.754  15.965   6.726  0.00  0.00     0.159 HD
HETATM   20  H   UNK N   1      20.204  16.359   7.159  0.00  0.00     0.159 HD
ENDBRANCH  11  16
ENDBRANCH   8  11
ENDBRANCH   6   7
BRANCH   6  21
HETATM   21  C   UNK N   1      25.569  20.051   3.147  0.00  0.00     0.073 C 
BRANCH  21  22
HETATM   22  C   UNK N   1      26.428  20.330   4.336  0.00  0.00    -0.056 A 
HETATM   23  C   UNK N   1      27.785  19.981   4.344  0.00  0.00     0.007 A 
HETATM   24  C   UNK N   1      28.570  20.224   5.472  0.00  0.00     0.001 A 
HETATM   25  C   UNK N   1      28.001  20.828   6.595  0.00  0.00     0.000 A 
HETATM   26  C   UNK N   1      26.652  21.192   6.587  0.00  0.00     0.001 A 
HETATM   27  C   UNK N   1      25.865  20.944   5.457  0.00  0.00     0.007 A 
ENDBRANCH  21  22
ENDBRANCH   6  21
ENDBRANCH   3   6
ENDBRANCH   1   2
BRANCH   1  28
HETATM   28  C   UNK N   1      26.912  16.511   6.206  0.00  0.00     0.073 C 
BRANCH  28  29
HETATM   29  C   UNK N   1      28.398  16.774   6.317  0.00  0.00    -0.056 A 
HETATM   30  C   UNK N   1      28.998  17.234   7.502  0.00  0.00     0.007 A 
HETATM   31  C   UNK N   1      30.384  17.400   7.577  0.00  0.00     0.001 A 
HETATM   32  C   UNK N   1      31.181  17.114   6.467  0.00  0.00     0.000 A 
HETATM   33  C   UNK N   1      30.591  16.669   5.281  0.00  0.00     0.001 A 
HETATM   34  C   UNK N   1      29.205  16.497   5.209  0.00  0.00     0.007 A 
ENDBRANCH  28  29
ENDBRANCH   1  28
BRANCH   1  35
HETATM   35  N   UNK N   1      25.543  14.644   5.341  0.00  0.00    -0.346 N 
HETATM   36  C   UNK N   1      24.281  14.742   5.847  0.00  0.00     0.241 C 
HETATM   37  O   UNK N   1      23.787  15.836   6.095  0.00  0.00    -0.271 OA
HETATM   38  H   UNK N   1      25.905  13.736   5.221  0.00  0.00     0.163 HD
BRANCH  36  39
HETATM   39  C   UNK N   1      23.413  13.523   6.008  0.00  0.00     0.180 C 
BRANCH  39  40
HETATM   40  C   UNK N   1      22.855  13.387   7.425  0.00  0.00     0.009 C 
HETATM   41  C   UNK N   1      21.868  12.236   7.496  0.00  0.00     0.012 C 
HETATM   42  C   UNK N   1      23.979  13.093   8.406  0.00  0.00     0.012 C 
ENDBRANCH  39  40
BRANCH  39  43
HETATM   43  N   UNK N   1      22.390  13.643   4.992  0.00  0.00    -0.346 N 
HETATM   44  C   UNK N   1      22.531  13.093   3.771  0.00  0.00     0.240 C 
HETATM   45  O   UNK N   1      23.309  12.162   3.601  0.00  0.00    -0.271 OA
HETATM   46  H   UNK N   1      21.567  14.141   5.200  0.00  0.00     0.163 HD
BRANCH  44  47
HETATM   47  C   UNK N   1      22.042  13.880   2.593  0.00  0.00     0.169 C 
BRANCH  47  48
HETATM   48  C   UNK N   1      21.393  13.067   1.476  0.00  0.00     0.038 C 
BRANCH  48  49
HETATM   49  C   UNK N   1      19.992  13.554   1.151  0.00  0.00    -0.020 C 
HETATM   50  C   UNK N   1      19.281  12.509   0.326  0.00  0.00     0.009 C 
HETATM   51  C   UNK N   1      19.229  13.787   2.442  0.00  0.00     0.009 C 
ENDBRANCH  48  49
ENDBRANCH  47  48
BRANCH  47  52
HETATM   52  N   UNK N   1      23.064  14.816   2.136  0.00  0.00    -0.413 N 
HETATM   53  C   UNK N   1      23.632  14.304   0.907  0.00  0.00     0.140 C 
HETATM   54  H   UNK N   1      23.333  15.682   2.603  0.00  0.00     0.153 HD
ENDBRANCH  47  52
ENDBRANCH  44  47
ENDBRANCH  39  43
ENDBRANCH  36  39
ENDBRANCH   1  35
TORSDOF 19
ENDMDL
MODEL 3
REMARK VINA RESULT:      -7.1      1.940     10.024
REMARK  19 active torsions:
REMARK  status: ('A' for Active; 'I' for Inactive)
REMARK    1  A    between atoms: C_2  and  C_4 
REMARK    2  A    between atoms: C_4  and  C_5 
REMARK    3  A    between atoms: C_5  and  C_6 
REMARK    4  A    between atoms: C_5  and  N_9 
REMARK       I    between atoms: C_6  and  N_8 
REMARK       I    between atoms: N_9  and  C_10 
REMARK    5  A    between atoms: C_10  and  C_12 
REMARK    6  A    between atoms: C_12  and  C_13 
REMARK    7  A    between atoms: C_12  and  N_20 
REMARK    8  A    between atoms: C_13  and  C_14 
REMARK       I    between atoms: N_20  and  C_21 
REMARK    9  A    between atoms: C_21  and  C_23 
REMARK   10  A    between atoms: C_23  and  C_24 
REMARK   11  A    between atoms: C_23  and  N_31 
REMARK   12  A    between atoms: C_24  and  C_25 
REMARK       I    between atoms: N_31  and  C_32 
REMARK   13  A    between atoms: C_32  and  C_34 
REMARK   14  A    between atoms: C_34  and  C_35 
REMARK   15  A    between atoms: C_34  and  N_38 
REMARK       I    between atoms: N_38  and  C_39 
REMARK   16  A    between atoms: C_39  and  C_41 
REMARK   17  A    between atoms: C_41  and  C_42 
REMARK   18  A    between atoms: C_41  and  N_46 
REMARK   19  A    between atoms: C_42  and  C_43 
ROOT
HETATM    1  C   UNK N   1      27.511  15.393   5.271  0.00  0.00     0.180 C 
ENDROOT
BRANCH   1   2
HETATM    2  C   UNK N   1      26.302  14.593   5.694  0.00  0.00     0.241 C 
HETATM    3  N   UNK N   1      25.592  14.997   6.779  0.00  0.00    -0.346 N 
HETATM    4  H   UNK N   1      25.895  15.808   7.247  0.00  0.00     0.163 HD
HETATM    5  O   UNK N   1      25.980  13.592   5.068  0.00  0.00    -0.271 OA
BRANCH   3   6
HETATM    6  C   UNK N   1      24.418  14.318   7.296  0.00  0.00     0.180 C 
BRANCH   6   7
HETATM    7  C   UNK N   1      23.159  14.540   6.489  0.00  0.00     0.241 C 
HETATM    8  N   UNK N   1      22.523  15.728   6.645  0.00  0.00    -0.346 N 
HETATM    9  H   UNK N   1      22.907  16.303   7.347  0.00  0.00     0.163 HD
HETATM   10  O   UNK N   1      22.757  13.702   5.696  0.00  0.00    -0.271 OA
BRANCH   8  11
HETATM   11  C   UNK N   1      21.381  16.300   5.967  0.00  0.00     0.176 C 
BRANCH  11  12
HETATM   12  C   UNK N   1      20.202  16.068   6.905  0.00  0.00     0.038 C 
BRANCH  12  13
HETATM   13  C   UNK N   1      20.525  16.251   8.372  0.00  0.00    -0.020 C 
HETATM   14  C   UNK N   1      19.668  17.383   8.896  0.00  0.00     0.009 C 
HETATM   15  C   UNK N   1      20.200  14.991   9.147  0.00  0.00     0.009 C 
ENDBRANCH  12  13
ENDBRANCH  11  12
BRANCH  11  16
HETATM   16  C   UNK N   1      21.511  17.761   5.654  0.00  0.00     0.238 C 
HETATM   17  O   UNK N   1      21.922  18.537   6.502  0.00  0.00    -0.271 OA
HETATM   18  N   UNK N   1      21.135  18.223   4.446  0.00  0.00    -0.368 N 
HETATM   19  H   UNK N   1      20.249  18.261   4.019  0.00  0.00     0.159 HD
HETATM   20  H   UNK N   1      21.870  18.584   3.898  0.00  0.00     0.159 HD
ENDBRANCH  11  16
ENDBRANCH   8  11
ENDBRANCH   6   7
BRANCH   6  21
HETATM   21  C   UNK N   1      24.688  12.859   7.685  0.00  0.00     0.073 C 
BRANCH  21  22
HETATM   22  C   UNK N   1      24.073  12.532   9.005  0.00  0.00    -0.056 A 
HETATM   23  C   UNK N   1      22.700  12.276   9.118  0.00  0.00     0.007 A 
HETATM   24  C   UNK N   1      22.134  11.997  10.363  0.00  0.00     0.001 A 
HETATM   25  C   UNK N   1      22.943  11.964  11.501  0.00  0.00     0.000 A 
HETATM   26  C   UNK N   1      24.316  12.204  11.391  0.00  0.00     0.001 A 
HETATM   27  C   UNK N   1      24.881  12.487  10.143  0.00  0.00     0.007 A 
ENDBRANCH  21  22
ENDBRANCH   6  21
ENDBRANCH   3   6
ENDBRANCH   1   2
BRANCH   1  28
HETATM   28  C   UNK N   1      27.269  16.234   4.005  0.00  0.00     0.073 C 
BRANCH  28  29
HETATM   29  C   UNK N   1      26.765  17.648   4.188  0.00  0.00    -0.056 A 
HETATM   30  C   UNK N   1      25.446  17.937   4.582  0.00  0.00     0.007 A 
HETATM   31  C   UNK N   1      25.045  19.258   4.800  0.00  0.00     0.001 A 
HETATM   32  C   UNK N   1      25.954  20.302   4.622  0.00  0.00     0.000 A 
HETATM   33  C   UNK N   1      27.263  20.025   4.218  0.00  0.00     0.001 A 
HETATM   34  C   UNK N   1      27.666  18.703   4.004  0.00  0.00     0.007 A 
ENDBRANCH  28  29
ENDBRANCH   1  28
BRANCH   1  35
HETATM   35  N   UNK N   1      28.100  16.212   6.332  0.00  0.00    -0.346 N 
HETATM   36  C   UNK N   1      29.426  16.477   6.504  0.00  0.00     0.241 C 
HETATM   37  O   UNK N   1      30.268  15.959   5.778  0.00  0.00    -0.271 OA
HETATM   38  H   UNK N   1      27.479  16.610   6.985  0.00  0.00     0.163 HD
BRANCH  36  39
HETATM   39  C   UNK N   1      29.890  17.497   7.509  0.00  0.00     0.180 C 
BRANCH  39  40
HETATM   40  C   UNK N   1      28.747  18.010   8.388  0.00  0.00     0.009 C 
HETATM   41  C   UNK N   1      29.264  18.370   9.768  0.00  0.00     0.012 C 
HETATM   42  C   UNK N   1      28.142  19.264   7.779  0.00  0.00     0.012 C 
ENDBRANCH  39  40
BRANCH  39  43
HETATM   43  N   UNK N   1      30.946  16.848   8.255  0.00  0.00    -0.346 N 
HETATM   44  C   UNK N   1      32.160  17.410   8.405  0.00  0.00     0.240 C 
HETATM   45  O   UNK N   1      32.298  18.621   8.275  0.00  0.00    -0.271 OA
HETATM   46  H   UNK N   1      30.772  15.970   8.664  0.00  0.00     0.163 HD
BRANCH  44  47
HETATM   47  C   UNK N   1      33.357  16.512   8.329  0.00  0.00     0.169 C 
BRANCH  47  48
HETATM   48  C   UNK N   1      33.388  15.547   7.146  0.00  0.00     0.038 C 
BRANCH  48  49
HETATM   49  C   UNK N   1      34.282  16.043   6.024  0.00  0.00    -0.020 C 
HETATM   50  C   UNK N   1      34.600  14.896   5.097  0.00  0.00     0.009 C 
HETATM   51  C   UNK N   1      33.561  17.134   5.253  0.00  0.00     0.009 C 
ENDBRANCH  48  49
ENDBRANCH  47  48
BRANCH  47  52
HETATM   52  N   UNK N   1      33.616  15.884   9.621  0.00  0.00    -0.413 N 
HETATM   53  C   UNK N   1      34.885  16.371  10.117  0.00  0.00     0.140 C 
HETATM   54  H   UNK N   1      33.007  15.216  10.094  0.00  0.00     0.153 HD
ENDBRANCH  47  52
ENDBRANCH  44  47
ENDBRANCH  39  43
ENDBRANCH  36  39
ENDBRANCH   1  35
TORSDOF 19
ENDMDL
MODEL 4
REMARK VINA RESULT:      -7.1      3.263      8.480
REMARK  19 active torsions:
REMARK  status: ('A' for Active; 'I' for Inactive)
REMARK    1  A    between atoms: C_2  and  C_4 
REMARK    2  A    between atoms: C_4  and  C_5 
REMARK    3  A    between atoms: C_5  and  C_6 
REMARK    4  A    between atoms: C_5  and  N_9 
REMARK       I    between atoms: C_6  and  N_8 
REMARK       I    between atoms: N_9  and  C_10 
REMARK    5  A    between atoms: C_10  and  C_12 
REMARK    6  A    between atoms: C_12  and  C_13 
REMARK    7  A    between atoms: C_12  and  N_20 
REMARK    8  A    between atoms: C_13  and  C_14 
REMARK       I    between atoms: N_20  and  C_21 
REMARK    9  A    between atoms: C_21  and  C_23 
REMARK   10  A    between atoms: C_23  and  C_24 
REMARK   11  A    between atoms: C_23  and  N_31 
REMARK   12  A    between atoms: C_24  and  C_25 
REMARK       I    between atoms: N_31  and  C_32 
REMARK   13  A    between atoms: C_32  and  C_34 
REMARK   14  A    between atoms: C_34  and  C_35 
REMARK   15  A    between atoms: C_34  and  N_38 
REMARK       I    between atoms: N_38  and  C_39 
REMARK   16  A    between atoms: C_39  and  C_41 
REMARK   17  A    between atoms: C_41  and  C_42 
REMARK   18  A    between atoms: C_41  and  N_46 
REMARK   19  A    between atoms: C_42  and  C_43 
ROOT
HETATM    1  C   UNK N   1      23.403  14.172   7.249  0.00  0.00     0.180 C 
ENDROOT
BRANCH   1   2
HETATM    2  C   UNK N   1      22.010  14.686   6.974  0.00  0.00     0.241 C 
HETATM    3  N   UNK N   1      21.772  16.020   7.054  0.00  0.00    -0.346 N 
HETATM    4  H   UNK N   1      22.529  16.605   7.286  0.00  0.00     0.163 HD
HETATM    5  O   UNK N   1      21.113  13.902   6.692  0.00  0.00    -0.271 OA
BRANCH   3   6
HETATM    6  C   UNK N   1      20.482  16.644   6.822  0.00  0.00     0.180 C 
BRANCH   6   7
HETATM    7  C   UNK N   1      20.095  16.759   5.366  0.00  0.00     0.241 C 
HETATM    8  N   UNK N   1      21.064  17.135   4.494  0.00  0.00    -0.346 N 
HETATM    9  H   UNK N   1      21.917  17.382   4.920  0.00  0.00     0.163 HD
HETATM   10  O   UNK N   1      18.968  16.482   4.984  0.00  0.00    -0.271 OA
BRANCH   8  11
HETATM   11  C   UNK N   1      21.067  17.240   3.052  0.00  0.00     0.176 C 
BRANCH  11  12
HETATM   12  C   UNK N   1      20.906  15.810   2.547  0.00  0.00     0.038 C 
BRANCH  12  13
HETATM   13  C   UNK N   1      22.202  15.037   2.435  0.00  0.00    -0.020 C 
HETATM   14  C   UNK N   1      22.111  13.845   3.364  0.00  0.00     0.009 C 
HETATM   15  C   UNK N   1      22.402  14.540   1.019  0.00  0.00     0.009 C 
ENDBRANCH  12  13
ENDBRANCH  11  12
BRANCH  11  16
HETATM   16  C   UNK N   1      19.982  18.110   2.489  0.00  0.00     0.238 C 
HETATM   17  O   UNK N   1      19.808  19.236   2.928  0.00  0.00    -0.271 OA
HETATM   18  N   UNK N   1      19.172  17.631   1.525  0.00  0.00    -0.368 N 
HETATM   19  H   UNK N   1      18.510  16.903   1.543  0.00  0.00     0.159 HD
HETATM   20  H   UNK N   1      19.256  18.087   0.655  0.00  0.00     0.159 HD
ENDBRANCH  11  16
ENDBRANCH   8  11
ENDBRANCH   6   7
BRANCH   6  21
HETATM   21  C   UNK N   1      19.379  16.108   7.744  0.00  0.00     0.073 C 
BRANCH  21  22
HETATM   22  C   UNK N   1      18.977  17.132   8.753  0.00  0.00    -0.056 A 
HETATM   23  C   UNK N   1      17.743  17.050   9.412  0.00  0.00     0.007 A 
HETATM   24  C   UNK N   1      17.369  18.029  10.333  0.00  0.00     0.001 A 
HETATM   25  C   UNK N   1      18.234  19.091  10.606  0.00  0.00     0.000 A 
HETATM   26  C   UNK N   1      19.472  19.169   9.963  0.00  0.00     0.001 A 
HETATM   27  C   UNK N   1      19.844  18.189   9.037  0.00  0.00     0.007 A 
ENDBRANCH  21  22
ENDBRANCH   6  21
ENDBRANCH   3   6
ENDBRANCH   1   2
BRANCH   1  28
HETATM   28  C   UNK N   1      23.430  12.700   7.697  0.00  0.00     0.073 C 
BRANCH  28  29
HETATM   29  C   UNK N   1      23.323  12.416   9.179  0.00  0.00    -0.056 A 
HETATM   30  C   UNK N   1      24.451  12.253  10.002  0.00  0.00     0.007 A 
HETATM   31  C   UNK N   1      24.302  12.056  11.378  0.00  0.00     0.001 A 
HETATM   32  C   UNK N   1      23.026  12.015  11.942  0.00  0.00     0.000 A 
HETATM   33  C   UNK N   1      21.899  12.163  11.130  0.00  0.00     0.001 A 
HETATM   34  C   UNK N   1      22.049  12.365   9.754  0.00  0.00     0.007 A 
ENDBRANCH  28  29
ENDBRANCH   1  28
BRANCH   1  35
HETATM   35  N   UNK N   1      24.360  14.401   6.164  0.00  0.00    -0.346 N 
HETATM   36  C   UNK N   1      25.596  14.965   6.286  0.00  0.00     0.241 C 
HETATM   37  O   UNK N   1      25.981  15.406   7.363  0.00  0.00    -0.271 OA
HETATM   38  H   UNK N   1      24.086  14.122   5.261  0.00  0.00     0.163 HD
BRANCH  36  39
HETATM   39  C   UNK N   1      26.566  14.960   5.136  0.00  0.00     0.180 C 
BRANCH  39  40
HETATM   40  C   UNK N   1      26.496  13.668   4.319  0.00  0.00     0.009 C 
HETATM   41  C   UNK N   1      25.957  13.951   2.929  0.00  0.00     0.012 C 
HETATM   42  C   UNK N   1      27.885  13.071   4.163  0.00  0.00     0.012 C 
ENDBRANCH  39  40
BRANCH  39  43
HETATM   43  N   UNK N   1      26.258  16.147   4.368  0.00  0.00    -0.346 N 
HETATM   44  C   UNK N   1      27.074  17.217   4.354  0.00  0.00     0.240 C 
HETATM   45  O   UNK N   1      28.258  17.093   4.645  0.00  0.00    -0.271 OA
HETATM   46  H   UNK N   1      25.428  16.172   3.840  0.00  0.00     0.163 HD
BRANCH  44  47
HETATM   47  C   UNK N   1      26.441  18.575   4.375  0.00  0.00     0.169 C 
BRANCH  47  48
HETATM   48  C   UNK N   1      27.346  19.722   4.818  0.00  0.00     0.038 C 
BRANCH  48  49
HETATM   49  C   UNK N   1      27.016  20.206   6.218  0.00  0.00    -0.020 C 
HETATM   50  C   UNK N   1      27.954  19.552   7.204  0.00  0.00     0.009 C 
HETATM   51  C   UNK N   1      27.184  21.713   6.281  0.00  0.00     0.009 C 
ENDBRANCH  48  49
ENDBRANCH  47  48
BRANCH  47  52
HETATM   52  N   UNK N   1      25.150  18.534   5.055  0.00  0.00    -0.413 N 
HETATM   53  C   UNK N   1      24.148  19.075   4.160  0.00  0.00     0.140 C 
HETATM   54  H   UNK N   1      24.982  18.186   5.999  0.00  0.00     0.153 HD
ENDBRANCH  47  52
ENDBRANCH  44  47
ENDBRANCH  39  43
ENDBRANCH  36  39
ENDBRANCH   1  35
TORSDOF 19
ENDMDL
MODEL 5
REMARK VINA RESULT:      -7.0      1.887      9.725
REMARK  19 active torsions:
REMARK  status: ('A' for Active; 'I' for Inactive)
REMARK    1  A    between atoms: C_2  and  C_4 
REMARK    2  A    between atoms: C_4  and  C_5 
REMARK    3  A    between atoms: C_5  and  C_6 
REMARK    4  A    between atoms: C_5  and  N_9 
REMARK       I    between atoms: C_6  and  N_8 
REMARK       I    between atoms: N_9  and  C_10 
REMARK    5  A    between atoms: C_10  and  C_12 
REMARK    6  A    between atoms: C_12  and  C_13 
REMARK    7  A    between atoms: C_12  and  N_20 
REMARK    8  A    between atoms: C_13  and  C_14 
REMARK       I    between atoms: N_20  and  C_21 
REMARK    9  A    between atoms: C_21  and  C_23 
REMARK   10  A    between atoms: C_23  and  C_24 
REMARK   11  A    between atoms: C_23  and  N_31 
REMARK   12  A    between atoms: C_24  and  C_25 
REMARK       I    between atoms: N_31  and  C_32 
REMARK   13  A    between atoms: C_32  and  C_34 
REMARK   14  A    between atoms: C_34  and  C_35 
REMARK   15  A    between atoms: C_34  and  N_38 
REMARK       I    between atoms: N_38  and  C_39 
REMARK   16  A    between atoms: C_39  and  C_41 
REMARK   17  A    between atoms: C_41  and  C_42 
REMARK   18  A    between atoms: C_41  and  N_46 
REMARK   19  A    between atoms: C_42  and  C_43 
ROOT
HETATM    1  C   UNK N   1      26.484  15.148   4.699  0.00  0.00     0.180 C 
ENDROOT
BRANCH   1   2
HETATM    2  C   UNK N   1      25.534  15.183   5.872  0.00  0.00     0.241 C 
HETATM    3  N   UNK N   1      24.237  14.832   5.679  0.00  0.00    -0.346 N 
HETATM    4  H   UNK N   1      23.967  14.561   4.772  0.00  0.00     0.163 HD
HETATM    5  O   UNK N   1      25.935  15.531   6.975  0.00  0.00    -0.271 OA
BRANCH   3   6
HETATM    6  C   UNK N   1      23.220  14.828   6.715  0.00  0.00     0.180 C 
BRANCH   6   7
HETATM    7  C   UNK N   1      22.141  15.873   6.539  0.00  0.00     0.241 C 
HETATM    8  N   UNK N   1      21.881  16.289   5.274  0.00  0.00    -0.346 N 
HETATM    9  H   UNK N   1      22.493  15.923   4.594  0.00  0.00     0.163 HD
HETATM   10  O   UNK N   1      21.501  16.291   7.491  0.00  0.00    -0.271 OA
BRANCH   8  11
HETATM   11  C   UNK N   1      20.867  17.175   4.747  0.00  0.00     0.176 C 
BRANCH  11  12
HETATM   12  C   UNK N   1      21.534  17.895   3.580  0.00  0.00     0.038 C 
BRANCH  12  13
HETATM   13  C   UNK N   1      21.257  19.382   3.523  0.00  0.00    -0.020 C 
HETATM   14  C   UNK N   1      22.515  20.067   3.034  0.00  0.00     0.009 C 
HETATM   15  C   UNK N   1      20.131  19.675   2.555  0.00  0.00     0.009 C 
ENDBRANCH  12  13
ENDBRANCH  11  12
BRANCH  11  16
HETATM   16  C   UNK N   1      19.619  16.486   4.282  0.00  0.00     0.238 C 
HETATM   17  O   UNK N   1      18.708  16.272   5.066  0.00  0.00    -0.271 OA
HETATM   18  N   UNK N   1      19.521  16.066   3.006  0.00  0.00    -0.368 N 
HETATM   19  H   UNK N   1      20.025  15.378   2.515  0.00  0.00     0.159 HD
HETATM   20  H   UNK N   1      18.830  16.524   2.475  0.00  0.00     0.159 HD
ENDBRANCH  11  16
ENDBRANCH   8  11
ENDBRANCH   6   7
BRANCH   6  21
HETATM   21  C   UNK N   1      22.709  13.422   7.053  0.00  0.00     0.073 C 
BRANCH  21  22
HETATM   22  C   UNK N   1      23.044  13.052   8.460  0.00  0.00    -0.056 A 
HETATM   23  C   UNK N   1      24.373  12.846   8.855  0.00  0.00     0.007 A 
HETATM   24  C   UNK N   1      24.669  12.475  10.168  0.00  0.00     0.001 A 
HETATM   25  C   UNK N   1      23.636  12.318  11.094  0.00  0.00     0.000 A 
HETATM   26  C   UNK N   1      22.311  12.537  10.709  0.00  0.00     0.001 A 
HETATM   27  C   UNK N   1      22.015  12.906   9.392  0.00  0.00     0.007 A 
ENDBRANCH  21  22
ENDBRANCH   6  21
ENDBRANCH   3   6
ENDBRANCH   1   2
BRANCH   1  28
HETATM   28  C   UNK N   1      26.210  16.252   3.663  0.00  0.00     0.073 C 
BRANCH  28  29
HETATM   29  C   UNK N   1      26.416  17.687   4.096  0.00  0.00    -0.056 A 
HETATM   30  C   UNK N   1      25.398  18.451   4.695  0.00  0.00     0.007 A 
HETATM   31  C   UNK N   1      25.654  19.752   5.137  0.00  0.00     0.001 A 
HETATM   32  C   UNK N   1      26.927  20.303   4.980  0.00  0.00     0.000 A 
HETATM   33  C   UNK N   1      27.941  19.556   4.375  0.00  0.00     0.001 A 
HETATM   34  C   UNK N   1      27.685  18.253   3.937  0.00  0.00     0.007 A 
ENDBRANCH  28  29
ENDBRANCH   1  28
BRANCH   1  35
HETATM   35  N   UNK N   1      27.902  15.122   5.066  0.00  0.00    -0.346 N 
HETATM   36  C   UNK N   1      28.747  14.059   4.942  0.00  0.00     0.241 C 
HETATM   37  O   UNK N   1      28.334  12.971   4.557  0.00  0.00    -0.271 OA
HETATM   38  H   UNK N   1      28.281  15.951   5.438  0.00  0.00     0.163 HD
BRANCH  36  39
HETATM   39  C   UNK N   1      30.227  14.217   5.162  0.00  0.00     0.180 C 
BRANCH  39  40
HETATM   40  C   UNK N   1      31.028  14.073   3.866  0.00  0.00     0.009 C 
HETATM   41  C   UNK N   1      31.431  15.438   3.340  0.00  0.00     0.012 C 
HETATM   42  C   UNK N   1      32.300  13.282   4.122  0.00  0.00     0.012 C 
ENDBRANCH  39  40
BRANCH  39  43
HETATM   43  N   UNK N   1      30.386  15.507   5.798  0.00  0.00    -0.346 N 
HETATM   44  C   UNK N   1      31.115  15.662   6.919  0.00  0.00     0.240 C 
HETATM   45  O   UNK N   1      31.975  14.840   7.213  0.00  0.00    -0.271 OA
HETATM   46  H   UNK N   1      29.948  16.293   5.400  0.00  0.00     0.163 HD
BRANCH  44  47
HETATM   47  C   UNK N   1      30.592  16.599   7.966  0.00  0.00     0.169 C 
BRANCH  47  48
HETATM   48  C   UNK N   1      29.777  17.782   7.448  0.00  0.00     0.038 C 
BRANCH  48  49
HETATM   49  C   UNK N   1      28.376  17.813   8.031  0.00  0.00    -0.020 C 
HETATM   50  C   UNK N   1      28.410  17.268   9.438  0.00  0.00     0.009 C 
HETATM   51  C   UNK N   1      27.873  19.245   8.053  0.00  0.00     0.009 C 
ENDBRANCH  48  49
ENDBRANCH  47  48
BRANCH  47  52
HETATM   52  N   UNK N   1      31.645  16.963   8.908  0.00  0.00    -0.413 N 
HETATM   53  C   UNK N   1      32.463  17.990   8.299  0.00  0.00     0.140 C 
HETATM   54  H   UNK N   1      31.781  16.563   9.836  0.00  0.00     0.153 HD
ENDBRANCH  47  52
ENDBRANCH  44  47
ENDBRANCH  39  43
ENDBRANCH  36  39
ENDBRANCH   1  35
TORSDOF 19
ENDMDL
MODEL 6
REMARK VINA RESULT:      -7.0      2.856      7.259
REMARK  19 active torsions:
REMARK  status: ('A' for Active; 'I' for Inactive)
REMARK    1  A    between atoms: C_2  and  C_4 
REMARK    2  A    between atoms: C_4  and  C_5 
REMARK    3  A    between atoms: C_5  and  C_6 
REMARK    4  A    between atoms: C_5  and  N_9 
REMARK       I    between atoms: C_6  and  N_8 
REMARK       I    between atoms: N_9  and  C_10 
REMARK    5  A    between atoms: C_10  and  C_12 
REMARK    6  A    between atoms: C_12  and  C_13 
REMARK    7  A    between atoms: C_12  and  N_20 
REMARK    8  A    between atoms: C_13  and  C_14 
REMARK       I    between atoms: N_20  and  C_21 
REMARK    9  A    between atoms: C_21  and  C_23 
REMARK   10  A    between atoms: C_23  and  C_24 
REMARK   11  A    between atoms: C_23  and  N_31 
REMARK   12  A    between atoms: C_24  and  C_25 
REMARK       I    between atoms: N_31  and  C_32 
REMARK   13  A    between atoms: C_32  and  C_34 
REMARK   14  A    between atoms: C_34  and  C_35 
REMARK   15  A    between atoms: C_34  and  N_38 
REMARK       I    between atoms: N_38  and  C_39 
REMARK   16  A    between atoms: C_39  and  C_41 
REMARK   17  A    between atoms: C_41  and  C_42 
REMARK   18  A    between atoms: C_41  and  N_46 
REMARK   19  A    between atoms: C_42  and  C_43 
ROOT
HETATM    1  C   UNK N   1      23.652  17.903   4.426  0.00  0.00     0.180 C 
ENDROOT
BRANCH   1   2
HETATM    2  C   UNK N   1      24.385  16.644   4.824  0.00  0.00     0.241 C 
HETATM    3  N   UNK N   1      24.941  16.569   6.061  0.00  0.00    -0.346 N 
HETATM    4  H   UNK N   1      24.837  17.345   6.656  0.00  0.00     0.163 HD
HETATM    5  O   UNK N   1      24.479  15.714   4.034  0.00  0.00    -0.271 OA
BRANCH   3   6
HETATM    6  C   UNK N   1      25.677  15.424   6.566  0.00  0.00     0.180 C 
BRANCH   6   7
HETATM    7  C   UNK N   1      24.818  14.226   6.903  0.00  0.00     0.241 C 
HETATM    8  N   UNK N   1      23.660  14.461   7.569  0.00  0.00    -0.346 N 
HETATM    9  H   UNK N   1      23.534  15.398   7.846  0.00  0.00     0.163 HD
HETATM   10  O   UNK N   1      25.133  13.100   6.550  0.00  0.00    -0.271 OA
BRANCH   8  11
HETATM   11  C   UNK N   1      22.576  13.579   7.945  0.00  0.00     0.176 C 
BRANCH  11  12
HETATM   12  C   UNK N   1      22.695  13.424   9.457  0.00  0.00     0.038 C 
BRANCH  12  13
HETATM   13  C   UNK N   1      22.639  11.992   9.945  0.00  0.00    -0.020 C 
HETATM   14  C   UNK N   1      23.450  11.146   8.987  0.00  0.00     0.009 C 
HETATM   15  C   UNK N   1      23.243  11.880  11.329  0.00  0.00     0.009 C 
ENDBRANCH  12  13
ENDBRANCH  11  12
BRANCH  11  16
HETATM   16  C   UNK N   1      21.210  14.084   7.585  0.00  0.00     0.238 C 
HETATM   17  O   UNK N   1      20.221  13.422   7.856  0.00  0.00    -0.271 OA
HETATM   18  N   UNK N   1      21.079  15.251   6.925  0.00  0.00    -0.368 N 
HETATM   19  H   UNK N   1      21.361  15.513   6.020  0.00  0.00     0.159 HD
HETATM   20  H   UNK N   1      20.626  15.961   7.435  0.00  0.00     0.159 HD
ENDBRANCH  11  16
ENDBRANCH   8  11
ENDBRANCH   6   7
BRANCH   6  21
HETATM   21  C   UNK N   1      26.936  15.108   5.749  0.00  0.00     0.073 C 
BRANCH  21  22
HETATM   22  C   UNK N   1      28.080  15.968   6.171  0.00  0.00    -0.056 A 
HETATM   23  C   UNK N   1      29.302  15.931   5.486  0.00  0.00     0.007 A 
HETATM   24  C   UNK N   1      30.372  16.722   5.908  0.00  0.00     0.001 A 
HETATM   25  C   UNK N   1      30.220  17.561   7.014  0.00  0.00     0.000 A 
HETATM   26  C   UNK N   1      28.999  17.613   7.691  0.00  0.00     0.001 A 
HETATM   27  C   UNK N   1      27.929  16.818   7.269  0.00  0.00     0.007 A 
ENDBRANCH  21  22
ENDBRANCH   6  21
ENDBRANCH   3   6
ENDBRANCH   1   2
BRANCH   1  28
HETATM   28  C   UNK N   1      24.516  18.872   3.601  0.00  0.00     0.073 C 
BRANCH  28  29
HETATM   29  C   UNK N   1      25.732  19.473   4.270  0.00  0.00    -0.056 A 
HETATM   30  C   UNK N   1      25.637  20.452   5.276  0.00  0.00     0.007 A 
HETATM   31  C   UNK N   1      26.786  20.930   5.911  0.00  0.00     0.001 A 
HETATM   32  C   UNK N   1      28.041  20.440   5.544  0.00  0.00     0.000 A 
HETATM   33  C   UNK N   1      28.146  19.476   4.537  0.00  0.00     0.001 A 
HETATM   34  C   UNK N   1      26.995  18.995   3.905  0.00  0.00     0.007 A 
ENDBRANCH  28  29
ENDBRANCH   1  28
BRANCH   1  35
HETATM   35  N   UNK N   1      22.361  17.674   3.774  0.00  0.00    -0.346 N 
HETATM   36  C   UNK N   1      21.137  17.716   4.372  0.00  0.00     0.241 C 
HETATM   37  O   UNK N   1      21.036  17.889   5.581  0.00  0.00    -0.271 OA
HETATM   38  H   UNK N   1      22.379  17.470   2.810  0.00  0.00     0.163 HD
BRANCH  36  39
HETATM   39  C   UNK N   1      19.874  17.666   3.556  0.00  0.00     0.180 C 
BRANCH  39  40
HETATM   40  C   UNK N   1      19.696  18.907   2.679  0.00  0.00     0.009 C 
HETATM   41  C   UNK N   1      20.346  20.113   3.333  0.00  0.00     0.012 C 
HETATM   42  C   UNK N   1      20.366  18.695   1.331  0.00  0.00     0.012 C 
ENDBRANCH  39  40
BRANCH  39  43
HETATM   43  N   UNK N   1      19.951  16.433   2.804  0.00  0.00    -0.346 N 
HETATM   44  C   UNK N   1      19.773  15.232   3.386  0.00  0.00     0.240 C 
HETATM   45  O   UNK N   1      19.161  15.145   4.444  0.00  0.00    -0.271 OA
HETATM   46  H   UNK N   1      20.139  16.472   1.839  0.00  0.00     0.163 HD
BRANCH  44  47
HETATM   47  C   UNK N   1      20.657  14.106   2.942  0.00  0.00     0.169 C 
BRANCH  47  48
HETATM   48  C   UNK N   1      20.324  13.499   1.581  0.00  0.00     0.038 C 
BRANCH  48  49
HETATM   49  C   UNK N   1      21.518  13.503   0.643  0.00  0.00    -0.020 C 
HETATM   50  C   UNK N   1      22.514  14.537   1.110  0.00  0.00     0.009 C 
HETATM   51  C   UNK N   1      22.168  12.131   0.652  0.00  0.00     0.009 C 
ENDBRANCH  48  49
ENDBRANCH  47  48
BRANCH  47  52
HETATM   52  N   UNK N   1      20.823  13.125   4.011  0.00  0.00    -0.413 N 
HETATM   53  C   UNK N   1      22.238  12.974   4.273  0.00  0.00     0.140 C 
HETATM   54  H   UNK N   1      20.071  12.631   4.490  0.00  0.00     0.153 HD
ENDBRANCH  47  52
ENDBRANCH  44  47
ENDBRANCH  39  43
ENDBRANCH  36  39
ENDBRANCH   1  35
TORSDOF 19
ENDMDL
MODEL 7
REMARK VINA RESULT:      -6.9      1.805      2.304
REMARK  19 active torsions:
REMARK  status: ('A' for Active; 'I' for Inactive)
REMARK    1  A    between atoms: C_2  and  C_4 
REMARK    2  A    between atoms: C_4  and  C_5 
REMARK    3  A    between atoms: C_5  and  C_6 
REMARK    4  A    between atoms: C_5  and  N_9 
REMARK       I    between atoms: C_6  and  N_8 
REMARK       I    between atoms: N_9  and  C_10 
REMARK    5  A    between atoms: C_10  and  C_12 
REMARK    6  A    between atoms: C_12  and  C_13 
REMARK    7  A    between atoms: C_12  and  N_20 
REMARK    8  A    between atoms: C_13  and  C_14 
REMARK       I    between atoms: N_20  and  C_21 
REMARK    9  A    between atoms: C_21  and  C_23 
REMARK   10  A    between atoms: C_23  and  C_24 
REMARK   11  A    between atoms: C_23  and  N_31 
REMARK   12  A    between atoms: C_24  and  C_25 
REMARK       I    between atoms: N_31  and  C_32 
REMARK   13  A    between atoms: C_32  and  C_34 
REMARK   14  A    between atoms: C_34  and  C_35 
REMARK   15  A    between atoms: C_34  and  N_38 
REMARK       I    between atoms: N_38  and  C_39 
REMARK   16  A    between atoms: C_39  and  C_41 
REMARK   17  A    between atoms: C_41  and  C_42 
REMARK   18  A    between atoms: C_41  and  N_46 
REMARK   19  A    between atoms: C_42  and  C_43 
ROOT
HETATM    1  C   UNK N   1      25.573  14.523   5.604  0.00  0.00     0.180 C 
ENDROOT
BRANCH   1   2
HETATM    2  C   UNK N   1      26.648  15.510   5.991  0.00  0.00     0.241 C 
HETATM    3  N   UNK N   1      27.661  15.755   5.120  0.00  0.00    -0.346 N 
HETATM    4  H   UNK N   1      27.649  15.277   4.259  0.00  0.00     0.163 HD
HETATM    5  O   UNK N   1      26.604  16.069   7.079  0.00  0.00    -0.271 OA
BRANCH   3   6
HETATM    6  C   UNK N   1      28.759  16.672   5.368  0.00  0.00     0.180 C 
BRANCH   6   7
HETATM    7  C   UNK N   1      30.096  16.003   5.591  0.00  0.00     0.241 C 
HETATM    8  N   UNK N   1      31.179  16.809   5.721  0.00  0.00    -0.346 N 
HETATM    9  H   UNK N   1      30.993  17.764   5.568  0.00  0.00     0.163 HD
HETATM   10  O   UNK N   1      30.189  14.790   5.696  0.00  0.00    -0.271 OA
BRANCH   8  11
HETATM   11  C   UNK N   1      32.558  16.516   6.042  0.00  0.00     0.176 C 
BRANCH  11  12
HETATM   12  C   UNK N   1      33.264  16.390   4.696  0.00  0.00     0.038 C 
BRANCH  12  13
HETATM   13  C   UNK N   1      33.652  14.975   4.324  0.00  0.00    -0.020 C 
HETATM   14  C   UNK N   1      33.777  14.911   2.816  0.00  0.00     0.009 C 
HETATM   15  C   UNK N   1      34.986  14.612   4.942  0.00  0.00     0.009 C 
ENDBRANCH  12  13
ENDBRANCH  11  12
BRANCH  11  16
HETATM   16  C   UNK N   1      33.236  17.556   6.883  0.00  0.00     0.238 C 
HETATM   17  O   UNK N   1      34.298  18.040   6.523  0.00  0.00    -0.271 OA
HETATM   18  N   UNK N   1      32.692  17.927   8.058  0.00  0.00    -0.368 N 
HETATM   19  H   UNK N   1      32.548  17.420   8.889  0.00  0.00     0.159 HD
HETATM   20  H   UNK N   1      32.386  18.863   8.091  0.00  0.00     0.159 HD
ENDBRANCH  11  16
ENDBRANCH   8  11
ENDBRANCH   6   7
BRANCH   6  21
HETATM   21  C   UNK N   1      28.784  17.859   4.396  0.00  0.00     0.073 C 
BRANCH  21  22
HETATM   22  C   UNK N   1      28.027  19.021   4.948  0.00  0.00    -0.056 A 
HETATM   23  C   UNK N   1      28.010  19.283   6.325  0.00  0.00     0.007 A 
HETATM   24  C   UNK N   1      27.276  20.358   6.829  0.00  0.00     0.001 A 
HETATM   25  C   UNK N   1      26.562  21.181   5.956  0.00  0.00     0.000 A 
HETATM   26  C   UNK N   1      26.589  20.933   4.581  0.00  0.00     0.001 A 
HETATM   27  C   UNK N   1      27.322  19.853   4.077  0.00  0.00     0.007 A 
ENDBRANCH  21  22
ENDBRANCH   6  21
ENDBRANCH   3   6
ENDBRANCH   1   2
BRANCH   1  28
HETATM   28  C   UNK N   1      25.772  13.132   6.232  0.00  0.00     0.073 C 
BRANCH  28  29
HETATM   29  C   UNK N   1      24.888  12.756   7.400  0.00  0.00    -0.056 A 
HETATM   30  C   UNK N   1      24.982  13.384   8.654  0.00  0.00     0.007 A 
HETATM   31  C   UNK N   1      24.100  13.047   9.684  0.00  0.00     0.001 A 
HETATM   32  C   UNK N   1      23.119  12.076   9.472  0.00  0.00     0.000 A 
HETATM   33  C   UNK N   1      23.026  11.438   8.233  0.00  0.00     0.001 A 
HETATM   34  C   UNK N   1      23.906  11.779   7.201  0.00  0.00     0.007 A 
ENDBRANCH  28  29
ENDBRANCH   1  28
BRANCH   1  35
HETATM   35  N   UNK N   1      24.205  14.999   5.822  0.00  0.00    -0.346 N 
HETATM   36  C   UNK N   1      23.137  14.784   5.002  0.00  0.00     0.241 C 
HETATM   37  O   UNK N   1      23.275  14.204   3.931  0.00  0.00    -0.271 OA
HETATM   38  H   UNK N   1      24.041  15.524   6.639  0.00  0.00     0.163 HD
BRANCH  36  39
HETATM   39  C   UNK N   1      21.743  15.148   5.434  0.00  0.00     0.180 C 
BRANCH  39  40
HETATM   40  C   UNK N   1      21.662  15.478   6.926  0.00  0.00     0.009 C 
HETATM   41  C   UNK N   1      21.013  16.834   7.133  0.00  0.00     0.012 C 
HETATM   42  C   UNK N   1      20.811  14.444   7.646  0.00  0.00     0.012 C 
ENDBRANCH  39  40
BRANCH  39  43
HETATM   43  N   UNK N   1      21.349  16.246   4.578  0.00  0.00    -0.346 N 
HETATM   44  C   UNK N   1      20.467  16.084   3.573  0.00  0.00     0.240 C 
HETATM   45  O   UNK N   1      19.681  15.144   3.590  0.00  0.00    -0.271 OA
HETATM   46  H   UNK N   1      21.737  17.136   4.734  0.00  0.00     0.163 HD
BRANCH  44  47
HETATM   47  C   UNK N   1      20.734  16.809   2.289  0.00  0.00     0.169 C 
BRANCH  47  48
HETATM   48  C   UNK N   1      20.064  18.173   2.148  0.00  0.00     0.038 C 
BRANCH  48  49
HETATM   49  C   UNK N   1      21.024  19.316   2.421  0.00  0.00    -0.020 C 
HETATM   50  C   UNK N   1      20.787  20.418   1.417  0.00  0.00     0.009 C 
HETATM   51  C   UNK N   1      20.786  19.848   3.823  0.00  0.00     0.009 C 
ENDBRANCH  48  49
ENDBRANCH  47  48
BRANCH  47  52
HETATM   52  N   UNK N   1      20.541  15.925   1.145  0.00  0.00    -0.413 N 
HETATM   53  C   UNK N   1      19.592  16.547   0.246  0.00  0.00     0.140 C 
HETATM   54  H   UNK N   1      20.995  15.022   1.003  0.00  0.00     0.153 HD
ENDBRANCH  47  52
ENDBRANCH  44  47
ENDBRANCH  39  43
ENDBRANCH  36  39
ENDBRANCH   1  35
TORSDOF 19
ENDMDL
MODEL 8
REMARK VINA RESULT:      -6.9      2.609      9.097
REMARK  19 active torsions:
REMARK  status: ('A' for Active; 'I' for Inactive)
REMARK    1  A    between atoms: C_2  and  C_4 
REMARK    2  A    between atoms: C_4  and  C_5 
REMARK    3  A    between atoms: C_5  and  C_6 
REMARK    4  A    between atoms: C_5  and  N_9 
REMARK       I    between atoms: C_6  and  N_8 
REMARK       I    between atoms: N_9  and  C_10 
REMARK    5  A    between atoms: C_10  and  C_12 
REMARK    6  A    between atoms: C_12  and  C_13 
REMARK    7  A    between atoms: C_12  and  N_20 
REMARK    8  A    between atoms: C_13  and  C_14 
REMARK       I    between atoms: N_20  and  C_21 
REMARK    9  A    between atoms: C_21  and  C_23 
REMARK   10  A    between atoms: C_23  and  C_24 
REMARK   11  A    between atoms: C_23  and  N_31 
REMARK   12  A    between atoms: C_24  and  C_25 
REMARK       I    between atoms: N_31  and  C_32 
REMARK   13  A    between atoms: C_32  and  C_34 
REMARK   14  A    between atoms: C_34  and  C_35 
REMARK   15  A    between atoms: C_34  and  N_38 
REMARK       I    between atoms: N_38  and  C_39 
REMARK   16  A    between atoms: C_39  and  C_41 
REMARK   17  A    between atoms: C_41  and  C_42 
REMARK   18  A    between atoms: C_41  and  N_46 
REMARK   19  A    between atoms: C_42  and  C_43 
ROOT
HETATM    1  C   UNK N   1      26.265  14.582   4.698  0.00  0.00     0.180 C 
ENDROOT
BRANCH   1   2
HETATM    2  C   UNK N   1      24.829  14.503   5.160  0.00  0.00     0.241 C 
HETATM    3  N   UNK N   1      24.523  14.888   6.425  0.00  0.00    -0.346 N 
HETATM    4  H   UNK N   1      25.257  15.212   6.994  0.00  0.00     0.163 HD
HETATM    5  O   UNK N   1      23.964  14.088   4.400  0.00  0.00    -0.271 OA
BRANCH   3   6
HETATM    6  C   UNK N   1      23.189  14.855   6.998  0.00  0.00     0.180 C 
BRANCH   6   7
HETATM    7  C   UNK N   1      22.217  15.833   6.377  0.00  0.00     0.241 C 
HETATM    8  N   UNK N   1      21.329  15.338   5.479  0.00  0.00    -0.346 N 
HETATM    9  H   UNK N   1      21.466  14.389   5.254  0.00  0.00     0.163 HD
HETATM   10  O   UNK N   1      22.204  17.009   6.705  0.00  0.00    -0.271 OA
BRANCH   8  11
HETATM   11  C   UNK N   1      20.217  15.958   4.791  0.00  0.00     0.176 C 
BRANCH  11  12
HETATM   12  C   UNK N   1      20.579  15.897   3.311  0.00  0.00     0.038 C 
BRANCH  12  13
HETATM   13  C   UNK N   1      20.963  17.231   2.706  0.00  0.00    -0.020 C 
HETATM   14  C   UNK N   1      20.096  17.450   1.485  0.00  0.00     0.009 C 
HETATM   15  C   UNK N   1      20.712  18.352   3.693  0.00  0.00     0.009 C 
ENDBRANCH  12  13
ENDBRANCH  11  12
BRANCH  11  16
HETATM   16  C   UNK N   1      18.893  15.293   5.025  0.00  0.00     0.238 C 
HETATM   17  O   UNK N   1      18.008  15.883   5.625  0.00  0.00    -0.271 OA
HETATM   18  N   UNK N   1      18.695  14.028   4.606  0.00  0.00    -0.368 N 
HETATM   19  H   UNK N   1      19.113  13.184   4.890  0.00  0.00     0.159 HD
HETATM   20  H   UNK N   1      18.018  13.933   3.897  0.00  0.00     0.159 HD
ENDBRANCH  11  16
ENDBRANCH   8  11
ENDBRANCH   6   7
BRANCH   6  21
HETATM   21  C   UNK N   1      22.646  13.432   7.181  0.00  0.00     0.073 C 
BRANCH  21  22
HETATM   22  C   UNK N   1      22.744  13.000   8.607  0.00  0.00    -0.056 A 
HETATM   23  C   UNK N   1      23.986  12.717   9.191  0.00  0.00     0.007 A 
HETATM   24  C   UNK N   1      24.060  12.288  10.518  0.00  0.00     0.001 A 
HETATM   25  C   UNK N   1      22.891  12.150  11.268  0.00  0.00     0.000 A 
HETATM   26  C   UNK N   1      21.651  12.446  10.694  0.00  0.00     0.001 A 
HETATM   27  C   UNK N   1      21.578  12.872   9.364  0.00  0.00     0.007 A 
ENDBRANCH  21  22
ENDBRANCH   6  21
ENDBRANCH   3   6
ENDBRANCH   1   2
BRANCH   1  28
HETATM   28  C   UNK N   1      26.403  14.740   3.173  0.00  0.00     0.073 C 
BRANCH  28  29
HETATM   29  C   UNK N   1      27.133  13.650   2.419  0.00  0.00    -0.056 A 
HETATM   30  C   UNK N   1      26.533  12.420   2.097  0.00  0.00     0.007 A 
HETATM   31  C   UNK N   1      27.225  11.469   1.342  0.00  0.00     0.001 A 
HETATM   32  C   UNK N   1      28.524  11.737   0.906  0.00  0.00     0.000 A 
HETATM   33  C   UNK N   1      29.133  12.951   1.232  0.00  0.00     0.001 A 
HETATM   34  C   UNK N   1      28.438  13.904   1.984  0.00  0.00     0.007 A 
ENDBRANCH  28  29
ENDBRANCH   1  28
BRANCH   1  35
HETATM   35  N   UNK N   1      27.075  15.581   5.398  0.00  0.00    -0.346 N 
HETATM   36  C   UNK N   1      28.408  15.493   5.666  0.00  0.00     0.241 C 
HETATM   37  O   UNK N   1      29.040  14.481   5.383  0.00  0.00    -0.271 OA
HETATM   38  H   UNK N   1      26.612  16.394   5.704  0.00  0.00     0.163 HD
BRANCH  36  39
HETATM   39  C   UNK N   1      29.169  16.672   6.210  0.00  0.00     0.180 C 
BRANCH  39  40
HETATM   40  C   UNK N   1      30.678  16.541   5.996  0.00  0.00     0.009 C 
HETATM   41  C   UNK N   1      31.107  17.321   4.767  0.00  0.00     0.012 C 
HETATM   42  C   UNK N   1      31.427  17.111   7.190  0.00  0.00     0.012 C 
ENDBRANCH  39  40
BRANCH  39  43
HETATM   43  N   UNK N   1      28.592  17.831   5.564  0.00  0.00    -0.346 N 
HETATM   44  C   UNK N   1      27.933  18.778   6.259  0.00  0.00     0.240 C 
HETATM   45  O   UNK N   1      28.133  18.911   7.461  0.00  0.00    -0.271 OA
HETATM   46  H   UNK N   1      28.684  17.931   4.590  0.00  0.00     0.163 HD
BRANCH  44  47
HETATM   47  C   UNK N   1      26.702  19.365   5.639  0.00  0.00     0.169 C 
BRANCH  47  48
HETATM   48  C   UNK N   1      26.787  19.654   4.142  0.00  0.00     0.038 C 
BRANCH  48  49
HETATM   49  C   UNK N   1      25.547  19.195   3.397  0.00  0.00    -0.020 C 
HETATM   50  C   UNK N   1      24.823  18.161   4.225  0.00  0.00     0.009 C 
HETATM   51  C   UNK N   1      24.634  20.385   3.160  0.00  0.00     0.009 C 
ENDBRANCH  48  49
ENDBRANCH  47  48
BRANCH  47  52
HETATM   52  N   UNK N   1      26.201  20.480   6.436  0.00  0.00    -0.413 N 
HETATM   53  C   UNK N   1      26.956  21.664   6.085  0.00  0.00     0.140 C 
HETATM   54  H   UNK N   1      25.449  20.433   7.124  0.00  0.00     0.153 HD
ENDBRANCH  47  52
ENDBRANCH  44  47
ENDBRANCH  39  43
ENDBRANCH  36  39
ENDBRANCH   1  35
TORSDOF 19
ENDMDL
MODEL 9
REMARK VINA RESULT:      -6.9      2.937      4.921
REMARK  19 active torsions:
REMARK  status: ('A' for Active; 'I' for Inactive)
REMARK    1  A    between atoms: C_2  and  C_4 
REMARK    2  A    between atoms: C_4  and  C_5 
REMARK    3  A    between atoms: C_5  and  C_6 
REMARK    4  A    between atoms: C_5  and  N_9 
REMARK       I    between atoms: C_6  and  N_8 
REMARK       I    between atoms: N_9  and  C_10 
REMARK    5  A    between atoms: C_10  and  C_12 
REMARK    6  A    between atoms: C_12  and  C_13 
REMARK    7  A    between atoms: C_12  and  N_20 
REMARK    8  A    between atoms: C_13  and  C_14 
REMARK       I    between atoms: N_20  and  C_21 
REMARK    9  A    between atoms: C_21  and  C_23 
REMARK   10  A    between atoms: C_23  and  C_24 
REMARK   11  A    between atoms: C_23  and  N_31 
REMARK   12  A    between atoms: C_24  and  C_25 
REMARK       I    between atoms: N_31  and  C_32 
REMARK   13  A    between atoms: C_32  and  C_34 
REMARK   14  A    between atoms: C_34  and  C_35 
REMARK   15  A    between atoms: C_34  and  N_38 
REMARK       I    between atoms: N_38  and  C_39 
REMARK   16  A    between atoms: C_39  and  C_41 
REMARK   17  A    between atoms: C_41  and  C_42 
REMARK   18  A    between atoms: C_41  and  N_46 
REMARK   19  A    between atoms: C_42  and  C_43 
ROOT
HETATM    1  C   UNK N   1      23.703  13.891   7.260  0.00  0.00     0.180 C 
ENDROOT
BRANCH   1   2
HETATM    2  C   UNK N   1      24.725  14.140   6.178  0.00  0.00     0.241 C 
HETATM    3  N   UNK N   1      25.307  15.364   6.090  0.00  0.00    -0.346 N 
HETATM    4  H   UNK N   1      25.039  16.045   6.748  0.00  0.00     0.163 HD
HETATM    5  O   UNK N   1      25.012  13.248   5.390  0.00  0.00    -0.271 OA
BRANCH   3   6
HETATM    6  C   UNK N   1      26.296  15.738   5.096  0.00  0.00     0.180 C 
BRANCH   6   7
HETATM    7  C   UNK N   1      26.081  17.101   4.479  0.00  0.00     0.241 C 
HETATM    8  N   UNK N   1      25.493  18.047   5.254  0.00  0.00    -0.346 N 
HETATM    9  H   UNK N   1      25.182  17.717   6.129  0.00  0.00     0.163 HD
HETATM   10  O   UNK N   1      26.461  17.353   3.346  0.00  0.00    -0.271 OA
BRANCH   8  11
HETATM   11  C   UNK N   1      25.239  19.452   5.023  0.00  0.00     0.176 C 
BRANCH  11  12
HETATM   12  C   UNK N   1      26.594  20.133   5.175  0.00  0.00     0.038 C 
BRANCH  12  13
HETATM   13  C   UNK N   1      26.599  21.309   6.128  0.00  0.00    -0.020 C 
HETATM   14  C   UNK N   1      26.178  20.801   7.491  0.00  0.00     0.009 C 
HETATM   15  C   UNK N   1      27.989  21.900   6.234  0.00  0.00     0.009 C 
ENDBRANCH  12  13
ENDBRANCH  11  12
BRANCH  11  16
HETATM   16  C   UNK N   1      24.652  19.765   3.679  0.00  0.00     0.238 C 
HETATM   17  O   UNK N   1      23.471  19.548   3.458  0.00  0.00    -0.271 OA
HETATM   18  N   UNK N   1      25.441  20.251   2.701  0.00  0.00    -0.368 N 
HETATM   19  H   UNK N   1      26.196  19.841   2.221  0.00  0.00     0.159 HD
HETATM   20  H   UNK N   1      25.226  21.170   2.418  0.00  0.00     0.159 HD
ENDBRANCH  11  16
ENDBRANCH   8  11
ENDBRANCH   6   7
BRANCH   6  21
HETATM   21  C   UNK N   1      27.736  15.449   5.539  0.00  0.00     0.073 C 
BRANCH  21  22
HETATM   22  C   UNK N   1      28.213  16.472   6.516  0.00  0.00    -0.056 A 
HETATM   23  C   UNK N   1      27.570  16.647   7.750  0.00  0.00     0.007 A 
HETATM   24  C   UNK N   1      28.010  17.625   8.642  0.00  0.00     0.001 A 
HETATM   25  C   UNK N   1      29.103  18.428   8.308  0.00  0.00     0.000 A 
HETATM   26  C   UNK N   1      29.756  18.248   7.085  0.00  0.00     0.001 A 
HETATM   27  C   UNK N   1      29.312  17.270   6.190  0.00  0.00     0.007 A 
ENDBRANCH  21  22
ENDBRANCH   6  21
ENDBRANCH   3   6
ENDBRANCH   1   2
BRANCH   1  28
HETATM   28  C   UNK N   1      24.328  13.711   8.655  0.00  0.00     0.073 C 
BRANCH  28  29
HETATM   29  C   UNK N   1      23.493  13.026   9.714  0.00  0.00    -0.056 A 
HETATM   30  C   UNK N   1      24.063  12.321  10.789  0.00  0.00     0.007 A 
HETATM   31  C   UNK N   1      23.252  11.759  11.779  0.00  0.00     0.001 A 
HETATM   32  C   UNK N   1      21.865  11.891  11.701  0.00  0.00     0.000 A 
HETATM   33  C   UNK N   1      21.289  12.579  10.630  0.00  0.00     0.001 A 
HETATM   34  C   UNK N   1      22.101  13.145   9.642  0.00  0.00     0.007 A 
ENDBRANCH  28  29
ENDBRANCH   1  28
BRANCH   1  35
HETATM   35  N   UNK N   1      22.612  14.868   7.303  0.00  0.00    -0.346 N 
HETATM   36  C   UNK N   1      21.424  14.779   6.640  0.00  0.00     0.241 C 
HETATM   37  O   UNK N   1      21.206  13.855   5.865  0.00  0.00    -0.271 OA
HETATM   38  H   UNK N   1      22.750  15.665   7.864  0.00  0.00     0.163 HD
BRANCH  36  39
HETATM   39  C   UNK N   1      20.304  15.743   6.925  0.00  0.00     0.180 C 
BRANCH  39  40
HETATM   40  C   UNK N   1      20.353  16.289   8.353  0.00  0.00     0.009 C 
HETATM   41  C   UNK N   1      19.875  17.728   8.385  0.00  0.00     0.012 C 
HETATM   42  C   UNK N   1      19.438  15.477   9.256  0.00  0.00     0.012 C 
ENDBRANCH  39  40
BRANCH  39  43
HETATM   43  N   UNK N   1      20.414  16.768   5.910  0.00  0.00    -0.346 N 
HETATM   44  C   UNK N   1      19.652  16.755   4.800  0.00  0.00     0.240 C 
HETATM   45  O   UNK N   1      18.594  16.136   4.787  0.00  0.00    -0.271 OA
HETATM   46  H   UNK N   1      21.063  17.496   6.035  0.00  0.00     0.163 HD
BRANCH  44  47
HETATM   47  C   UNK N   1      20.298  17.154   3.508  0.00  0.00     0.169 C 
BRANCH  47  48
HETATM   48  C   UNK N   1      21.352  16.191   2.969  0.00  0.00     0.038 C 
BRANCH  48  49
HETATM   49  C   UNK N   1      20.824  15.341   1.827  0.00  0.00    -0.020 C 
HETATM   50  C   UNK N   1      20.120  16.230   0.831  0.00  0.00     0.009 C 
HETATM   51  C   UNK N   1      21.983  14.636   1.148  0.00  0.00     0.009 C 
ENDBRANCH  48  49
ENDBRANCH  47  48
BRANCH  47  52
HETATM   52  N   UNK N   1      20.727  18.548   3.553  0.00  0.00    -0.413 N 
HETATM   53  C   UNK N   1      19.772  19.342   2.810  0.00  0.00     0.140 C 
HETATM   54  H   UNK N   1      21.559  18.903   4.026  0.00  0.00     0.153 HD
ENDBRANCH  47  52
ENDBRANCH  44  47
ENDBRANCH  39  43
ENDBRANCH  36  39
ENDBRANCH   1  35
TORSDOF 19
ENDMDL
