MODEL 1
REMARK VINA RESULT:      -7.3      0.000      0.000
REMARK  1 active torsions:
REMARK  status: ('A' for Active; 'I' for Inactive)
REMARK    1  A    between atoms: C_21  and  O_2 
ROOT
HETATM    1 Br   UNK N   1      34.609  14.561  11.432  0.00  0.00    -0.083 Br
HETATM    2  O   UNK N   1      35.525  11.401  10.851  0.00  0.00    -0.296 OA
HETATM    3  C   UNK N   1      34.979  11.022  16.049  0.00  0.00    -0.002 C 
HETATM    4  C   UNK N   1      35.366  10.559  17.492  0.00  0.00    -0.036 C 
HETATM    5  C   UNK N   1      35.925  12.177  15.601  0.00  0.00    -0.004 C 
HETATM    6  C   UNK N   1      35.627  12.527  14.135  0.00  0.00     0.007 C 
HETATM    7  C   UNK N   1      35.612  11.789  18.450  0.00  0.00    -0.004 C 
HETATM    8  C   UNK N   1      35.804  11.313  13.220  0.00  0.00     0.022 C 
HETATM    9  C   UNK N   1      34.952   9.839  15.045  0.00  0.00     0.007 C 
HETATM   10  C   UNK N   1      35.709  13.416  16.495  0.00  0.00     0.006 C 
HETATM   11  C   UNK N   1      34.722  10.298  13.591  0.00  0.00     0.018 C 
HETATM   12  C   UNK N   1      35.085  13.099  17.865  0.00  0.00     0.006 C 
HETATM   13  C   UNK N   1      34.252   9.649  18.041  0.00  0.00     0.012 C 
HETATM   14  C   UNK N   1      36.433  13.629  13.455  0.00  0.00     0.029 C 
HETATM   15  C   UNK N   1      34.968  11.620  19.836  0.00  0.00     0.037 C 
HETATM   16  C   UNK N   1      36.657   9.729  17.435  0.00  0.00     0.016 C 
HETATM   17  C   UNK N   1      35.713  11.992  11.904  0.00  0.00     0.149 C 
HETATM   18  C   UNK N   1      36.094  13.440  11.967  0.00  0.00     0.128 C 
HETATM   19  C   UNK N   1      34.559   9.137  19.459  0.00  0.00     0.032 C 
HETATM   20  C   UNK N   1      35.122  10.212  20.402  0.00  0.00     0.118 C 
HETATM   21  C   UNK N   1      37.191  10.663  13.298  0.00  0.00     0.024 C 
ENDROOT
BRANCH  20  22
HETATM   22  O   UNK N   1      36.459   9.948  20.701  0.00  0.00    -0.396 OA
HETATM   23  H   UNK N   1      37.377   9.969  21.014  0.00  0.00     0.210 HD
ENDBRANCH  20  22
TORSDOF 1
ENDMDL
MODEL 2
REMARK VINA RESULT:      -7.3     22.341     24.819
REMARK  1 active torsions:
REMARK  status: ('A' for Active; 'I' for Inactive)
REMARK    1  A    between atoms: C_21  and  O_2 
ROOT
HETATM    1 Br   UNK N   1      25.931  26.211  -7.203  0.00  0.00    -0.083 Br
HETATM    2  O   UNK N   1      26.584  26.764  -3.973  0.00  0.00    -0.296 OA
HETATM    3  C   UNK N   1      30.306  23.175  -4.831  0.00  0.00    -0.002 C 
HETATM    4  C   UNK N   1      31.187  21.928  -4.492  0.00  0.00    -0.036 C 
HETATM    5  C   UNK N   1      28.877  22.707  -5.243  0.00  0.00    -0.004 C 
HETATM    6  C   UNK N   1      27.984  23.941  -5.436  0.00  0.00     0.007 C 
HETATM    7  C   UNK N   1      31.015  20.786  -5.568  0.00  0.00    -0.004 C 
HETATM    8  C   UNK N   1      27.915  24.791  -4.165  0.00  0.00     0.022 C 
HETATM    9  C   UNK N   1      30.292  24.210  -3.674  0.00  0.00     0.007 C 
HETATM   10  C   UNK N   1      28.944  21.892  -6.551  0.00  0.00     0.006 C 
HETATM   11  C   UNK N   1      29.310  25.372  -3.927  0.00  0.00     0.018 C 
HETATM   12  C   UNK N   1      30.325  21.281  -6.839  0.00  0.00     0.006 C 
HETATM   13  C   UNK N   1      32.658  22.369  -4.389  0.00  0.00     0.012 C 
HETATM   14  C   UNK N   1      26.524  23.747  -5.836  0.00  0.00     0.029 C 
HETATM   15  C   UNK N   1      32.345  20.145  -5.994  0.00  0.00     0.037 C 
HETATM   16  C   UNK N   1      30.775  21.364  -3.123  0.00  0.00     0.016 C 
HETATM   17  C   UNK N   1      26.823  25.717  -4.557  0.00  0.00     0.149 C 
HETATM   18  C   UNK N   1      25.909  25.136  -5.593  0.00  0.00     0.128 C 
HETATM   19  C   UNK N   1      33.598  21.199  -4.046  0.00  0.00     0.032 C 
HETATM   20  C   UNK N   1      33.300  19.910  -4.826  0.00  0.00     0.118 C 
HETATM   21  C   UNK N   1      27.437  24.029  -2.924  0.00  0.00     0.024 C 
ENDROOT
BRANCH  20  22
HETATM   22  O   UNK N   1      32.797  18.927  -3.973  0.00  0.00    -0.396 OA
HETATM   23  H   UNK N   1      32.284  18.225  -3.541  0.00  0.00     0.210 HD
ENDBRANCH  20  22
TORSDOF 1
ENDMDL
MODEL 3
REMARK VINA RESULT:      -6.9     23.792     26.258
REMARK  1 active torsions:
REMARK  status: ('A' for Active; 'I' for Inactive)
REMARK    1  A    between atoms: C_21  and  O_2 
ROOT
HETATM    1 Br   UNK N   1      29.307  18.982  -7.792  0.00  0.00    -0.083 Br
HETATM    2  O   UNK N   1      31.538  20.180  -5.612  0.00  0.00    -0.296 OA
HETATM    3  C   UNK N   1      27.926  23.935  -5.045  0.00  0.00    -0.002 C 
HETATM    4  C   UNK N   1      27.411  25.402  -4.874  0.00  0.00    -0.036 C 
HETATM    5  C   UNK N   1      28.363  23.705  -6.523  0.00  0.00    -0.004 C 
HETATM    6  C   UNK N   1      28.996  22.310  -6.645  0.00  0.00     0.007 C 
HETATM    7  C   UNK N   1      26.447  25.819  -6.053  0.00  0.00    -0.004 C 
HETATM    8  C   UNK N   1      30.196  22.152  -5.708  0.00  0.00     0.022 C 
HETATM    9  C   UNK N   1      29.042  23.586  -4.023  0.00  0.00     0.007 C 
HETATM   10  C   UNK N   1      27.144  23.816  -7.460  0.00  0.00     0.006 C 
HETATM   11  C   UNK N   1      29.666  22.199  -4.274  0.00  0.00     0.018 C 
HETATM   12  C   UNK N   1      25.972  24.619  -6.871  0.00  0.00     0.006 C 
HETATM   13  C   UNK N   1      26.702  25.528  -3.514  0.00  0.00     0.012 C 
HETATM   14  C   UNK N   1      29.517  21.846  -8.002  0.00  0.00     0.029 C 
HETATM   15  C   UNK N   1      25.193  26.570  -5.577  0.00  0.00     0.037 C 
HETATM   16  C   UNK N   1      28.606  26.367  -4.866  0.00  0.00     0.016 C 
HETATM   17  C   UNK N   1      30.730  20.866  -6.220  0.00  0.00     0.149 C 
HETATM   18  C   UNK N   1      30.354  20.605  -7.647  0.00  0.00     0.128 C 
HETATM   19  C   UNK N   1      26.171  26.950  -3.259  0.00  0.00     0.032 C 
HETATM   20  C   UNK N   1      25.483  27.586  -4.477  0.00  0.00     0.118 C 
HETATM   21  C   UNK N   1      31.291  23.206  -5.904  0.00  0.00     0.024 C 
ENDROOT
BRANCH  20  22
HETATM   22  O   UNK N   1      26.247  28.642  -4.974  0.00  0.00    -0.396 OA
HETATM   23  H   UNK N   1      26.785  29.246  -5.510  0.00  0.00     0.210 HD
ENDBRANCH  20  22
TORSDOF 1
ENDMDL
MODEL 4
REMARK VINA RESULT:      -6.8     10.521     12.855
REMARK  1 active torsions:
REMARK  status: ('A' for Active; 'I' for Inactive)
REMARK    1  A    between atoms: C_21  and  O_2 
ROOT
HETATM    1 Br   UNK N   1      24.626  15.308   6.262  0.00  0.00    -0.083 Br
HETATM    2  O   UNK N   1      26.217  14.467   3.447  0.00  0.00    -0.296 OA
HETATM    3  C   UNK N   1      30.435  15.798   6.258  0.00  0.00    -0.002 C 
HETATM    4  C   UNK N   1      31.834  16.453   6.505  0.00  0.00    -0.036 C 
HETATM    5  C   UNK N   1      29.342  16.908   6.205  0.00  0.00    -0.004 C 
HETATM    6  C   UNK N   1      27.998  16.268   5.824  0.00  0.00     0.007 C 
HETATM    7  C   UNK N   1      31.770  17.548   7.640  0.00  0.00    -0.004 C 
HETATM    8  C   UNK N   1      28.082  15.543   4.478  0.00  0.00     0.022 C 
HETATM    9  C   UNK N   1      30.432  14.886   5.002  0.00  0.00     0.007 C 
HETATM   10  C   UNK N   1      29.226  17.604   7.576  0.00  0.00     0.006 C 
HETATM   11  C   UNK N   1      29.026  14.354   4.657  0.00  0.00     0.018 C 
HETATM   12  C   UNK N   1      30.480  17.468   8.456  0.00  0.00     0.006 C 
HETATM   13  C   UNK N   1      32.846  15.350   6.861  0.00  0.00     0.012 C 
HETATM   14  C   UNK N   1      26.762  17.153   5.696  0.00  0.00     0.029 C 
HETATM   15  C   UNK N   1      32.941  17.465   8.633  0.00  0.00     0.037 C 
HETATM   16  C   UNK N   1      32.319  17.129   5.213  0.00  0.00     0.016 C 
HETATM   17  C   UNK N   1      26.638  15.271   4.265  0.00  0.00     0.149 C 
HETATM   18  C   UNK N   1      25.750  16.237   4.988  0.00  0.00     0.128 C 
HETATM   19  C   UNK N   1      34.259  15.909   7.110  0.00  0.00     0.032 C 
HETATM   20  C   UNK N   1      34.281  17.191   7.957  0.00  0.00     0.118 C 
HETATM   21  C   UNK N   1      28.552  16.425   3.316  0.00  0.00     0.024 C 
ENDROOT
BRANCH  20  22
HETATM   22  O   UNK N   1      34.672  18.282   7.183  0.00  0.00    -0.396 OA
HETATM   23  H   UNK N   1      35.062  19.100   6.833  0.00  0.00     0.210 HD
ENDBRANCH  20  22
TORSDOF 1
ENDMDL
MODEL 5
REMARK VINA RESULT:      -6.8     10.321     14.049
REMARK  1 active torsions:
REMARK  status: ('A' for Active; 'I' for Inactive)
REMARK    1  A    between atoms: C_21  and  O_2 
ROOT
HETATM    1 Br   UNK N   1      34.177  17.188   8.904  0.00  0.00    -0.083 Br
HETATM    2  O   UNK N   1      33.859  15.376   6.114  0.00  0.00    -0.296 OA
HETATM    3  C   UNK N   1      29.536  18.286   5.551  0.00  0.00    -0.002 C 
HETATM    4  C   UNK N   1      28.038  18.557   5.196  0.00  0.00    -0.036 C 
HETATM    5  C   UNK N   1      29.622  17.551   6.923  0.00  0.00    -0.004 C 
HETATM    6  C   UNK N   1      31.085  17.168   7.193  0.00  0.00     0.007 C 
HETATM    7  C   UNK N   1      27.238  19.114   6.437  0.00  0.00    -0.004 C 
HETATM    8  C   UNK N   1      31.649  16.280   6.082  0.00  0.00     0.022 C 
HETATM    9  C   UNK N   1      30.279  17.533   4.414  0.00  0.00     0.007 C 
HETATM   10  C   UNK N   1      29.099  18.466   8.049  0.00  0.00     0.006 C 
HETATM   11  C   UNK N   1      31.713  17.125   4.809  0.00  0.00     0.018 C 
HETATM   12  C   UNK N   1      28.160  19.583   7.562  0.00  0.00     0.006 C 
HETATM   13  C   UNK N   1      27.974  19.540   4.014  0.00  0.00     0.012 C 
HETATM   14  C   UNK N   1      31.434  16.424   8.479  0.00  0.00     0.029 C 
HETATM   15  C   UNK N   1      26.314  20.291   6.088  0.00  0.00     0.037 C 
HETATM   16  C   UNK N   1      27.373  17.246   4.746  0.00  0.00     0.016 C 
HETATM   17  C   UNK N   1      32.925  15.876   6.724  0.00  0.00     0.149 C 
HETATM   18  C   UNK N   1      32.869  15.935   8.220  0.00  0.00     0.128 C 
HETATM   19  C   UNK N   1      26.528  19.854   3.590  0.00  0.00     0.032 C 
HETATM   20  C   UNK N   1      25.572  20.100   4.767  0.00  0.00     0.118 C 
HETATM   21  C   UNK N   1      30.845  15.000   5.830  0.00  0.00     0.024 C 
ENDROOT
BRANCH  20  22
HETATM   22  O   UNK N   1      24.646  19.063   4.871  0.00  0.00    -0.396 OA
HETATM   23  H   UNK N   1      24.082  18.327   5.159  0.00  0.00     0.210 HD
ENDBRANCH  20  22
TORSDOF 1
ENDMDL
MODEL 6
REMARK VINA RESULT:      -6.8      2.829      6.774
REMARK  1 active torsions:
REMARK  status: ('A' for Active; 'I' for Inactive)
REMARK    1  A    between atoms: C_21  and  O_2 
ROOT
HETATM    1 Br   UNK N   1      36.241   6.891  16.120  0.00  0.00    -0.083 Br
HETATM    2  O   UNK N   1      34.452   9.229  17.701  0.00  0.00    -0.296 OA
HETATM    3  C   UNK N   1      35.508  11.975  13.363  0.00  0.00    -0.002 C 
HETATM    4  C   UNK N   1      35.900  13.248  12.543  0.00  0.00    -0.036 C 
HETATM    5  C   UNK N   1      36.775  11.394  14.061  0.00  0.00    -0.004 C 
HETATM    6  C   UNK N   1      36.354  10.231  14.972  0.00  0.00     0.007 C 
HETATM    7  C   UNK N   1      37.220  13.017  11.709  0.00  0.00    -0.004 C 
HETATM    8  C   UNK N   1      35.332  10.678  16.020  0.00  0.00     0.022 C 
HETATM    9  C   UNK N   1      34.347  12.255  14.355  0.00  0.00     0.007 C 
HETATM   10  C   UNK N   1      37.782  10.899  13.003  0.00  0.00     0.006 C 
HETATM   11  C   UNK N   1      34.050  11.055  15.277  0.00  0.00     0.018 C 
HETATM   12  C   UNK N   1      37.601  11.540  11.617  0.00  0.00     0.006 C 
HETATM   13  C   UNK N   1      34.727  13.630  11.623  0.00  0.00     0.012 C 
HETATM   14  C   UNK N   1      37.420   9.495  15.779  0.00  0.00     0.029 C 
HETATM   15  C   UNK N   1      37.133  13.554  10.272  0.00  0.00     0.037 C 
HETATM   16  C   UNK N   1      36.138  14.423  13.504  0.00  0.00     0.016 C 
HETATM   17  C   UNK N   1      35.322   9.465  16.875  0.00  0.00     0.149 C 
HETATM   18  C   UNK N   1      36.592   8.676  16.784  0.00  0.00     0.128 C 
HETATM   19  C   UNK N   1      35.025  14.886  10.784  0.00  0.00     0.032 C 
HETATM   20  C   UNK N   1      36.437  14.909  10.178  0.00  0.00     0.118 C 
HETATM   21  C   UNK N   1      35.800  11.845  16.898  0.00  0.00     0.024 C 
ENDROOT
BRANCH  20  22
HETATM   22  O   UNK N   1      37.212  15.900  10.781  0.00  0.00    -0.396 OA
HETATM   23  H   UNK N   1      37.821  16.629  10.984  0.00  0.00     0.210 HD
ENDBRANCH  20  22
TORSDOF 1
ENDMDL
MODEL 7
REMARK VINA RESULT:      -6.7     23.210     25.814
REMARK  1 active torsions:
REMARK  status: ('A' for Active; 'I' for Inactive)
REMARK    1  A    between atoms: C_21  and  O_2 
ROOT
HETATM    1 Br   UNK N   1      33.906  22.811  -6.246  0.00  0.00    -0.083 Br
HETATM    2  O   UNK N   1      31.505  20.584  -5.584  0.00  0.00    -0.296 OA
HETATM    3  C   UNK N   1      28.536  24.897  -5.355  0.00  0.00    -0.002 C 
HETATM    4  C   UNK N   1      27.422  25.830  -4.778  0.00  0.00    -0.036 C 
HETATM    5  C   UNK N   1      29.791  24.950  -4.433  0.00  0.00    -0.004 C 
HETATM    6  C   UNK N   1      30.822  23.927  -4.931  0.00  0.00     0.007 C 
HETATM    7  C   UNK N   1      28.008  27.225  -4.329  0.00  0.00    -0.004 C 
HETATM    8  C   UNK N   1      30.243  22.510  -4.954  0.00  0.00     0.022 C 
HETATM    9  C   UNK N   1      28.021  23.451  -5.592  0.00  0.00     0.007 C 
HETATM   10  C   UNK N   1      30.401  26.367  -4.450  0.00  0.00     0.006 C 
HETATM   11  C   UNK N   1      29.143  22.482  -6.017  0.00  0.00     0.018 C 
HETATM   12  C   UNK N   1      29.416  27.469  -4.873  0.00  0.00     0.006 C 
HETATM   13  C   UNK N   1      26.322  26.011  -5.839  0.00  0.00     0.012 C 
HETATM   14  C   UNK N   1      32.144  23.778  -4.185  0.00  0.00     0.029 C 
HETATM   15  C   UNK N   1      27.141  28.418  -4.764  0.00  0.00     0.037 C 
HETATM   16  C   UNK N   1      26.779  25.163  -3.552  0.00  0.00     0.016 C 
HETATM   17  C   UNK N   1      31.490  21.747  -5.211  0.00  0.00     0.149 C 
HETATM   18  C   UNK N   1      32.720  22.470  -4.754  0.00  0.00     0.128 C 
HETATM   19  C   UNK N   1      25.174  26.911  -5.346  0.00  0.00     0.032 C 
HETATM   20  C   UNK N   1      25.645  28.166  -4.595  0.00  0.00     0.118 C 
HETATM   21  C   UNK N   1      29.691  22.033  -3.606  0.00  0.00     0.024 C 
ENDROOT
BRANCH  20  22
HETATM   22  O   UNK N   1      25.313  28.080  -3.243  0.00  0.00    -0.396 OA
HETATM   23  H   UNK N   1      25.309  27.993  -2.276  0.00  0.00     0.210 HD
ENDBRANCH  20  22
TORSDOF 1
ENDMDL
MODEL 8
REMARK VINA RESULT:      -6.5     26.824     28.643
REMARK  1 active torsions:
REMARK  status: ('A' for Active; 'I' for Inactive)
REMARK    1  A    between atoms: C_21  and  O_2 
ROOT
HETATM    1 Br   UNK N   1      25.559  25.795 -10.889  0.00  0.00    -0.083 Br
HETATM    2  O   UNK N   1      24.868  23.902  -8.224  0.00  0.00    -0.296 OA
HETATM    3  C   UNK N   1      26.824  28.031  -5.656  0.00  0.00    -0.002 C 
HETATM    4  C   UNK N   1      27.666  28.755  -4.555  0.00  0.00    -0.036 C 
HETATM    5  C   UNK N   1      27.775  27.469  -6.755  0.00  0.00    -0.004 C 
HETATM    6  C   UNK N   1      26.951  26.642  -7.753  0.00  0.00     0.007 C 
HETATM    7  C   UNK N   1      28.771  29.687  -5.189  0.00  0.00    -0.004 C 
HETATM    8  C   UNK N   1      26.211  25.496  -7.059  0.00  0.00     0.022 C 
HETATM    9  C   UNK N   1      25.888  26.948  -5.055  0.00  0.00     0.007 C 
HETATM   10  C   UNK N   1      28.484  28.628  -7.486  0.00  0.00     0.006 C 
HETATM   11  C   UNK N   1      25.164  26.121  -6.136  0.00  0.00     0.018 C 
HETATM   12  C   UNK N   1      28.539  29.936  -6.680  0.00  0.00     0.006 C 
HETATM   13  C   UNK N   1      26.719  29.563  -3.651  0.00  0.00     0.012 C 
HETATM   14  C   UNK N   1      27.659  25.972  -8.928  0.00  0.00     0.029 C 
HETATM   15  C   UNK N   1      28.871  31.062  -4.510  0.00  0.00     0.037 C 
HETATM   16  C   UNK N   1      28.369  27.709  -3.675  0.00  0.00     0.016 C 
HETATM   17  C   UNK N   1      25.742  24.755  -8.257  0.00  0.00     0.149 C 
HETATM   18  C   UNK N   1      26.598  24.997  -9.463  0.00  0.00     0.128 C 
HETATM   19  C   UNK N   1      27.468  30.302  -2.527  0.00  0.00     0.032 C 
HETATM   20  C   UNK N   1      28.762  30.990  -2.989  0.00  0.00     0.118 C 
HETATM   21  C   UNK N   1      27.118  24.548  -6.268  0.00  0.00     0.024 C 
ENDROOT
BRANCH  20  22
HETATM   22  O   UNK N   1      29.877  30.349  -2.448  0.00  0.00    -0.396 OA
HETATM   23  H   UNK N   1      30.725  30.120  -2.036  0.00  0.00     0.210 HD
ENDBRANCH  20  22
TORSDOF 1
ENDMDL
MODEL 9
REMARK VINA RESULT:      -6.5     26.027     27.454
REMARK  1 active torsions:
REMARK  status: ('A' for Active; 'I' for Inactive)
REMARK    1  A    between atoms: C_21  and  O_2 
ROOT
HETATM    1 Br   UNK N   1      29.560  20.844 -10.016  0.00  0.00    -0.083 Br
HETATM    2  O   UNK N   1      26.239  21.073 -10.313  0.00  0.00    -0.296 OA
HETATM    3  C   UNK N   1      26.897  24.951  -6.849  0.00  0.00    -0.002 C 
HETATM    4  C   UNK N   1      26.549  25.810  -5.589  0.00  0.00    -0.036 C 
HETATM    5  C   UNK N   1      27.523  23.596  -6.399  0.00  0.00    -0.004 C 
HETATM    6  C   UNK N   1      27.731  22.707  -7.634  0.00  0.00     0.007 C 
HETATM    7  C   UNK N   1      27.724  25.799  -4.536  0.00  0.00    -0.004 C 
HETATM    8  C   UNK N   1      26.416  22.461  -8.378  0.00  0.00     0.022 C 
HETATM    9  C   UNK N   1      25.674  24.770  -7.788  0.00  0.00     0.007 C 
HETATM   10  C   UNK N   1      28.872  23.844  -5.693  0.00  0.00     0.006 C 
HETATM   11  C   UNK N   1      25.958  23.802  -8.954  0.00  0.00     0.018 C 
HETATM   12  C   UNK N   1      29.030  25.264  -5.124  0.00  0.00     0.006 C 
HETATM   13  C   UNK N   1      26.226  27.246  -6.038  0.00  0.00     0.012 C 
HETATM   14  C   UNK N   1      28.327  21.314  -7.457  0.00  0.00     0.029 C 
HETATM   15  C   UNK N   1      28.027  27.186  -3.947  0.00  0.00     0.037 C 
HETATM   16  C   UNK N   1      25.292  25.241  -4.912  0.00  0.00     0.016 C 
HETATM   17  C   UNK N   1      26.869  21.407  -9.320  0.00  0.00     0.149 C 
HETATM   18  C   UNK N   1      28.054  20.643  -8.814  0.00  0.00     0.128 C 
HETATM   19  C   UNK N   1      25.859  28.162  -4.856  0.00  0.00     0.032 C 
HETATM   20  C   UNK N   1      26.770  27.991  -3.630  0.00  0.00     0.118 C 
HETATM   21  C   UNK N   1      25.309  21.848  -7.513  0.00  0.00     0.024 C 
ENDROOT
BRANCH  20  22
HETATM   22  O   UNK N   1      26.067  27.407  -2.576  0.00  0.00    -0.396 OA
HETATM   23  H   UNK N   1      25.396  27.093  -1.949  0.00  0.00     0.210 HD
ENDBRANCH  20  22
TORSDOF 1
ENDMDL
