MODEL 1
REMARK VINA RESULT:      -5.9      0.000      0.000
REMARK  5 active torsions:
REMARK  status: ('A' for Active; 'I' for Inactive)
REMARK    1  A    between atoms: C_2  and  C_3 
REMARK    2  A    between atoms: C_3  and  C_6 
REMARK    3  A    between atoms: C_6  and  C_8 
REMARK       I    between atoms: C_8  and  N_10 
REMARK    4  A    between atoms: C_14  and  C_15 
REMARK    5  A    between atoms: C_15  and  O_17 
ROOT
HETATM    1  C   UNK N   1      27.160  24.349  -3.842  0.00  0.00     0.291 C 
HETATM    2  O   UNK N   1      27.051  24.309  -2.627  0.00  0.00    -0.264 OA
HETATM    3  N   UNK N   1      28.220  23.715  -4.451  0.00  0.00    -0.331 N 
HETATM    4  C   UNK N   1      28.405  23.725  -5.876  0.00  0.00     0.127 C 
HETATM    5  C   UNK N   1      29.497  22.718  -6.164  0.00  0.00     0.022 C 
HETATM    6  C   UNK N   1      30.115  22.354  -4.823  0.00  0.00     0.038 C 
HETATM    7  C   UNK N   1      29.187  22.897  -3.739  0.00  0.00     0.185 C 
ENDROOT
BRANCH   1   8
HETATM    8  C   UNK N   1      26.089  25.068  -4.623  0.00  0.00     0.224 C 
HETATM    9  O   UNK N   1      25.202  24.431  -5.175  0.00  0.00    -0.286 OA
BRANCH   8  10
HETATM   10  C   UNK N   1      26.078  26.589  -4.721  0.00  0.00     0.022 C 
HETATM   11  C   UNK N   1      24.856  27.013  -5.523  0.00  0.00     0.023 C 
HETATM   12  C   UNK N   1      25.977  27.227  -3.337  0.00  0.00     0.023 C 
BRANCH  10  13
HETATM   13  C   UNK N   1      27.363  27.082  -5.401  0.00  0.00     0.012 C 
HETATM   14  C   UNK N   1      27.183  27.385  -6.885  0.00  0.00     0.006 C 
ENDBRANCH  10  13
ENDBRANCH   8  10
ENDBRANCH   1   8
BRANCH   7  15
HETATM   15  C   UNK N   1      29.986  23.618  -2.664  0.00  0.00     0.163 C 
HETATM   16  O   UNK N   1      30.502  24.702  -2.896  0.00  0.00    -0.648 OA
BRANCH  15  17
HETATM   17  O   UNK N   1      30.217  23.030  -1.477  0.00  0.00    -0.775 OA
HETATM   18  H   UNK N   1      29.714  23.274  -0.726  0.00  0.00     0.167 HD
ENDBRANCH  15  17
ENDBRANCH   7  15
TORSDOF 5
ENDMDL
MODEL 2
REMARK VINA RESULT:      -5.7      1.586      2.028
REMARK  5 active torsions:
REMARK  status: ('A' for Active; 'I' for Inactive)
REMARK    1  A    between atoms: C_2  and  C_3 
REMARK    2  A    between atoms: C_3  and  C_6 
REMARK    3  A    between atoms: C_6  and  C_8 
REMARK       I    between atoms: C_8  and  N_10 
REMARK    4  A    between atoms: C_14  and  C_15 
REMARK    5  A    between atoms: C_15  and  O_17 
ROOT
HETATM    1  C   UNK N   1      27.367  25.126  -3.733  0.00  0.00     0.291 C 
HETATM    2  O   UNK N   1      26.644  24.491  -2.983  0.00  0.00    -0.264 OA
HETATM    3  N   UNK N   1      28.619  24.641  -4.042  0.00  0.00    -0.331 N 
HETATM    4  C   UNK N   1      29.519  25.341  -4.917  0.00  0.00     0.127 C 
HETATM    5  C   UNK N   1      30.649  24.379  -5.212  0.00  0.00     0.022 C 
HETATM    6  C   UNK N   1      30.495  23.219  -4.240  0.00  0.00     0.038 C 
HETATM    7  C   UNK N   1      29.113  23.347  -3.604  0.00  0.00     0.185 C 
ENDROOT
BRANCH   1   8
HETATM    8  C   UNK N   1      26.826  26.405  -4.321  0.00  0.00     0.224 C 
HETATM    9  O   UNK N   1      27.004  27.468  -3.743  0.00  0.00    -0.286 OA
BRANCH   8  10
HETATM   10  C   UNK N   1      26.071  26.401  -5.646  0.00  0.00     0.022 C 
HETATM   11  C   UNK N   1      24.768  27.166  -5.462  0.00  0.00     0.023 C 
HETATM   12  C   UNK N   1      26.878  27.102  -6.738  0.00  0.00     0.023 C 
BRANCH  10  13
HETATM   13  C   UNK N   1      25.788  24.958  -6.087  0.00  0.00     0.012 C 
HETATM   14  C   UNK N   1      26.075  24.711  -7.564  0.00  0.00     0.006 C 
ENDBRANCH  10  13
ENDBRANCH   8  10
ENDBRANCH   1   8
BRANCH   7  15
HETATM   15  C   UNK N   1      29.198  23.156  -2.098  0.00  0.00     0.163 C 
HETATM   16  O   UNK N   1      30.280  23.172  -1.530  0.00  0.00    -0.648 OA
BRANCH  15  17
HETATM   17  O   UNK N   1      28.094  22.872  -1.383  0.00  0.00    -0.775 OA
HETATM   18  H   UNK N   1      27.665  22.046  -1.490  0.00  0.00     0.167 HD
ENDBRANCH  15  17
ENDBRANCH   7  15
TORSDOF 5
ENDMDL
MODEL 3
REMARK VINA RESULT:      -5.6     16.517     19.254
REMARK  5 active torsions:
REMARK  status: ('A' for Active; 'I' for Inactive)
REMARK    1  A    between atoms: C_2  and  C_3 
REMARK    2  A    between atoms: C_3  and  C_6 
REMARK    3  A    between atoms: C_6  and  C_8 
REMARK       I    between atoms: C_8  and  N_10 
REMARK    4  A    between atoms: C_14  and  C_15 
REMARK    5  A    between atoms: C_15  and  O_17 
ROOT
HETATM    1  C   UNK N   1      34.893  15.302  10.695  0.00  0.00     0.291 C 
HETATM    2  O   UNK N   1      33.860  15.006  11.272  0.00  0.00    -0.264 OA
HETATM    3  N   UNK N   1      35.974  14.450  10.756  0.00  0.00    -0.331 N 
HETATM    4  C   UNK N   1      37.219  14.741  10.099  0.00  0.00     0.127 C 
HETATM    5  C   UNK N   1      38.038  13.471  10.173  0.00  0.00     0.022 C 
HETATM    6  C   UNK N   1      37.320  12.549  11.147  0.00  0.00     0.038 C 
HETATM    7  C   UNK N   1      35.936  13.144  11.391  0.00  0.00     0.185 C 
ENDROOT
BRANCH   1   8
HETATM    8  C   UNK N   1      34.917  16.586   9.903  0.00  0.00     0.224 C 
HETATM    9  O   UNK N   1      35.513  17.562  10.337  0.00  0.00    -0.286 OA
BRANCH   8  10
HETATM   10  C   UNK N   1      34.223  16.684   8.549  0.00  0.00     0.022 C 
HETATM   11  C   UNK N   1      34.494  18.064   7.967  0.00  0.00     0.023 C 
HETATM   12  C   UNK N   1      34.774  15.646   7.574  0.00  0.00     0.023 C 
BRANCH  10  13
HETATM   13  C   UNK N   1      32.714  16.459   8.714  0.00  0.00     0.012 C 
HETATM   14  C   UNK N   1      31.882  17.704   8.424  0.00  0.00     0.006 C 
ENDBRANCH  10  13
ENDBRANCH   8  10
ENDBRANCH   1   8
BRANCH   7  15
HETATM   15  C   UNK N   1      35.613  13.151  12.878  0.00  0.00     0.163 C 
HETATM   16  O   UNK N   1      36.485  13.385  13.702  0.00  0.00    -0.648 OA
BRANCH  15  17
HETATM   17  O   UNK N   1      34.387  12.805  13.309  0.00  0.00    -0.775 OA
HETATM   18  H   UNK N   1      34.259  11.992  13.757  0.00  0.00     0.167 HD
ENDBRANCH  15  17
ENDBRANCH   7  15
TORSDOF 5
ENDMDL
MODEL 4
REMARK VINA RESULT:      -5.6     12.609     14.415
REMARK  5 active torsions:
REMARK  status: ('A' for Active; 'I' for Inactive)
REMARK    1  A    between atoms: C_2  and  C_3 
REMARK    2  A    between atoms: C_3  and  C_6 
REMARK    3  A    between atoms: C_6  and  C_8 
REMARK       I    between atoms: C_8  and  N_10 
REMARK    4  A    between atoms: C_14  and  C_15 
REMARK    5  A    between atoms: C_15  and  O_17 
ROOT
HETATM    1  C   UNK N   1      30.972  17.026   7.411  0.00  0.00     0.291 C 
HETATM    2  O   UNK N   1      31.513  17.103   8.502  0.00  0.00    -0.264 OA
HETATM    3  N   UNK N   1      29.805  17.720   7.181  0.00  0.00    -0.331 N 
HETATM    4  C   UNK N   1      29.118  17.671   5.919  0.00  0.00     0.127 C 
HETATM    5  C   UNK N   1      28.060  18.752   5.976  0.00  0.00     0.022 C 
HETATM    6  C   UNK N   1      27.992  19.214   7.423  0.00  0.00     0.038 C 
HETATM    7  C   UNK N   1      29.212  18.640   8.137  0.00  0.00     0.185 C 
ENDROOT
BRANCH   1   8
HETATM    8  C   UNK N   1      31.642  16.193   6.347  0.00  0.00     0.224 C 
HETATM    9  O   UNK N   1      31.265  15.048   6.138  0.00  0.00    -0.286 OA
BRANCH   8  10
HETATM   10  C   UNK N   1      32.778  16.763   5.505  0.00  0.00     0.022 C 
HETATM   11  C   UNK N   1      33.683  17.587   6.409  0.00  0.00     0.023 C 
HETATM   12  C   UNK N   1      33.619  15.646   4.890  0.00  0.00     0.023 C 
BRANCH  10  13
HETATM   13  C   UNK N   1      32.210  17.635   4.376  0.00  0.00     0.012 C 
HETATM   14  C   UNK N   1      32.258  16.961   3.010  0.00  0.00     0.006 C 
ENDBRANCH  10  13
ENDBRANCH   8  10
ENDBRANCH   1   8
BRANCH   7  15
HETATM   15  C   UNK N   1      28.812  18.026   9.470  0.00  0.00     0.163 C 
HETATM   16  O   UNK N   1      27.750  17.433   9.586  0.00  0.00    -0.648 OA
BRANCH  15  17
HETATM   17  O   UNK N   1      29.575  18.212  10.562  0.00  0.00    -0.775 OA
HETATM   18  H   UNK N   1      29.186  18.498  11.364  0.00  0.00     0.167 HD
ENDBRANCH  15  17
ENDBRANCH   7  15
TORSDOF 5
ENDMDL
MODEL 5
REMARK VINA RESULT:      -5.6     11.748     13.303
REMARK  5 active torsions:
REMARK  status: ('A' for Active; 'I' for Inactive)
REMARK    1  A    between atoms: C_2  and  C_3 
REMARK    2  A    between atoms: C_3  and  C_6 
REMARK    3  A    between atoms: C_6  and  C_8 
REMARK       I    between atoms: C_8  and  N_10 
REMARK    4  A    between atoms: C_14  and  C_15 
REMARK    5  A    between atoms: C_15  and  O_17 
ROOT
HETATM    1  C   UNK N   1      20.598  16.839   0.944  0.00  0.00     0.291 C 
HETATM    2  O   UNK N   1      20.216  17.366  -0.088  0.00  0.00    -0.264 OA
HETATM    3  N   UNK N   1      20.705  17.593   2.092  0.00  0.00    -0.331 N 
HETATM    4  C   UNK N   1      21.150  17.033   3.339  0.00  0.00     0.127 C 
HETATM    5  C   UNK N   1      20.876  18.086   4.392  0.00  0.00     0.022 C 
HETATM    6  C   UNK N   1      20.528  19.364   3.644  0.00  0.00     0.038 C 
HETATM    7  C   UNK N   1      20.289  18.982   2.186  0.00  0.00     0.185 C 
ENDROOT
BRANCH   1   8
HETATM    8  C   UNK N   1      20.899  15.361   0.914  0.00  0.00     0.224 C 
HETATM    9  O   UNK N   1      22.050  14.974   0.771  0.00  0.00    -0.286 OA
BRANCH   8  10
HETATM   10  C   UNK N   1      19.787  14.332   1.081  0.00  0.00     0.022 C 
HETATM   11  C   UNK N   1      18.617  14.737   0.196  0.00  0.00     0.023 C 
HETATM   12  C   UNK N   1      20.253  12.946   0.639  0.00  0.00     0.023 C 
BRANCH  10  13
HETATM   13  C   UNK N   1      19.349  14.263   2.551  0.00  0.00     0.012 C 
HETATM   14  C   UNK N   1      20.096  13.204   3.354  0.00  0.00     0.006 C 
ENDBRANCH  10  13
ENDBRANCH   8  10
ENDBRANCH   1   8
BRANCH   7  15
HETATM   15  C   UNK N   1      21.013  19.944   1.256  0.00  0.00     0.163 C 
HETATM   16  O   UNK N   1      21.939  20.627   1.668  0.00  0.00    -0.648 OA
BRANCH  15  17
HETATM   17  O   UNK N   1      20.581  20.126  -0.005  0.00  0.00    -0.775 OA
HETATM   18  H   UNK N   1      21.130  19.892  -0.727  0.00  0.00     0.167 HD
ENDBRANCH  15  17
ENDBRANCH   7  15
TORSDOF 5
ENDMDL
MODEL 6
REMARK VINA RESULT:      -5.5     19.915     22.941
REMARK  5 active torsions:
REMARK  status: ('A' for Active; 'I' for Inactive)
REMARK    1  A    between atoms: C_2  and  C_3 
REMARK    2  A    between atoms: C_3  and  C_6 
REMARK    3  A    between atoms: C_6  and  C_8 
REMARK       I    between atoms: C_8  and  N_10 
REMARK    4  A    between atoms: C_14  and  C_15 
REMARK    5  A    between atoms: C_15  and  O_17 
ROOT
HETATM    1  C   UNK N   1      36.370  13.520  13.573  0.00  0.00     0.291 C 
HETATM    2  O   UNK N   1      36.426  14.697  13.889  0.00  0.00    -0.264 OA
HETATM    3  N   UNK N   1      36.152  13.180  12.256  0.00  0.00    -0.331 N 
HETATM    4  C   UNK N   1      36.075  11.813  11.818  0.00  0.00     0.127 C 
HETATM    5  C   UNK N   1      36.100  11.856  10.306  0.00  0.00     0.022 C 
HETATM    6  C   UNK N   1      35.903  13.311   9.911  0.00  0.00     0.038 C 
HETATM    7  C   UNK N   1      36.082  14.149  11.174  0.00  0.00     0.185 C 
ENDROOT
BRANCH   1   8
HETATM    8  C   UNK N   1      36.586  12.488  14.651  0.00  0.00     0.224 C 
HETATM    9  O   UNK N   1      37.651  11.890  14.721  0.00  0.00    -0.286 OA
BRANCH   8  10
HETATM   10  C   UNK N   1      35.499  12.187  15.676  0.00  0.00     0.022 C 
HETATM   11  C   UNK N   1      35.853  10.887  16.387  0.00  0.00     0.023 C 
HETATM   12  C   UNK N   1      35.418  13.291  16.729  0.00  0.00     0.023 C 
BRANCH  10  13
HETATM   13  C   UNK N   1      34.137  12.063  14.980  0.00  0.00     0.012 C 
HETATM   14  C   UNK N   1      33.809  10.640  14.543  0.00  0.00     0.006 C 
ENDBRANCH  10  13
ENDBRANCH   8  10
ENDBRANCH   1   8
BRANCH   7  15
HETATM   15  C   UNK N   1      34.970  15.179  11.294  0.00  0.00     0.163 C 
HETATM   16  O   UNK N   1      35.229  16.373  11.316  0.00  0.00    -0.648 OA
BRANCH  15  17
HETATM   17  O   UNK N   1      33.695  14.788  11.474  0.00  0.00    -0.775 OA
HETATM   18  H   UNK N   1      33.200  14.454  10.752  0.00  0.00     0.167 HD
ENDBRANCH  15  17
ENDBRANCH   7  15
TORSDOF 5
ENDMDL
MODEL 7
REMARK VINA RESULT:      -5.4     12.786     14.608
REMARK  5 active torsions:
REMARK  status: ('A' for Active; 'I' for Inactive)
REMARK    1  A    between atoms: C_2  and  C_3 
REMARK    2  A    between atoms: C_3  and  C_6 
REMARK    3  A    between atoms: C_6  and  C_8 
REMARK       I    between atoms: C_8  and  N_10 
REMARK    4  A    between atoms: C_14  and  C_15 
REMARK    5  A    between atoms: C_15  and  O_17 
ROOT
HETATM    1  C   UNK N   1      30.878  17.029   7.329  0.00  0.00     0.291 C 
HETATM    2  O   UNK N   1      31.467  17.168   8.388  0.00  0.00    -0.264 OA
HETATM    3  N   UNK N   1      29.705  17.715   7.108  0.00  0.00    -0.331 N 
HETATM    4  C   UNK N   1      28.963  17.594   5.883  0.00  0.00     0.127 C 
HETATM    5  C   UNK N   1      27.913  18.684   5.920  0.00  0.00     0.022 C 
HETATM    6  C   UNK N   1      27.909  19.233   7.339  0.00  0.00     0.038 C 
HETATM    7  C   UNK N   1      29.158  18.695   8.032  0.00  0.00     0.185 C 
ENDROOT
BRANCH   1   8
HETATM    8  C   UNK N   1      31.498  16.129   6.289  0.00  0.00     0.224 C 
HETATM    9  O   UNK N   1      31.106  14.977   6.165  0.00  0.00    -0.286 OA
BRANCH   8  10
HETATM   10  C   UNK N   1      32.600  16.640   5.367  0.00  0.00     0.022 C 
HETATM   11  C   UNK N   1      33.159  15.460   4.584  0.00  0.00     0.023 C 
HETATM   12  C   UNK N   1      32.050  17.652   4.365  0.00  0.00     0.023 C 
BRANCH  10  13
HETATM   13  C   UNK N   1      33.709  17.308   6.192  0.00  0.00     0.012 C 
HETATM   14  C   UNK N   1      34.557  16.317   6.980  0.00  0.00     0.006 C 
ENDBRANCH  10  13
ENDBRANCH   8  10
ENDBRANCH   1   8
BRANCH   7  15
HETATM   15  C   UNK N   1      28.814  18.165   9.416  0.00  0.00     0.163 C 
HETATM   16  O   UNK N   1      27.766  17.568   9.609  0.00  0.00    -0.648 OA
BRANCH  15  17
HETATM   17  O   UNK N   1      29.613  18.432  10.465  0.00  0.00    -0.775 OA
HETATM   18  H   UNK N   1      29.565  19.264  10.892  0.00  0.00     0.167 HD
ENDBRANCH  15  17
ENDBRANCH   7  15
TORSDOF 5
ENDMDL
MODEL 8
REMARK VINA RESULT:      -5.4     15.469     18.690
REMARK  5 active torsions:
REMARK  status: ('A' for Active; 'I' for Inactive)
REMARK    1  A    between atoms: C_2  and  C_3 
REMARK    2  A    between atoms: C_3  and  C_6 
REMARK    3  A    between atoms: C_6  and  C_8 
REMARK       I    between atoms: C_8  and  N_10 
REMARK    4  A    between atoms: C_14  and  C_15 
REMARK    5  A    between atoms: C_15  and  O_17 
ROOT
HETATM    1  C   UNK N   1      35.231  15.876   9.991  0.00  0.00     0.291 C 
HETATM    2  O   UNK N   1      35.896  16.846  10.316  0.00  0.00    -0.264 OA
HETATM    3  N   UNK N   1      34.613  15.857   8.760  0.00  0.00    -0.331 N 
HETATM    4  C   UNK N   1      33.816  14.746   8.318  0.00  0.00     0.127 C 
HETATM    5  C   UNK N   1      33.545  14.984   6.848  0.00  0.00     0.022 C 
HETATM    6  C   UNK N   1      33.976  16.412   6.554  0.00  0.00     0.038 C 
HETATM    7  C   UNK N   1      34.783  16.895   7.756  0.00  0.00     0.185 C 
ENDROOT
BRANCH   1   8
HETATM    8  C   UNK N   1      35.155  14.718  10.953  0.00  0.00     0.224 C 
HETATM    9  O   UNK N   1      34.253  14.666  11.778  0.00  0.00    -0.286 OA
BRANCH   8  10
HETATM   10  C   UNK N   1      36.178  13.588  10.903  0.00  0.00     0.022 C 
HETATM   11  C   UNK N   1      36.758  13.401  12.298  0.00  0.00     0.023 C 
HETATM   12  C   UNK N   1      35.522  12.274  10.485  0.00  0.00     0.023 C 
BRANCH  10  13
HETATM   13  C   UNK N   1      37.290  13.929   9.902  0.00  0.00     0.012 C 
HETATM   14  C   UNK N   1      37.394  12.932   8.753  0.00  0.00     0.006 C 
ENDBRANCH  10  13
ENDBRANCH   8  10
ENDBRANCH   1   8
BRANCH   7  15
HETATM   15  C   UNK N   1      34.336  18.287   8.175  0.00  0.00     0.163 C 
HETATM   16  O   UNK N   1      33.156  18.601   8.126  0.00  0.00    -0.648 OA
BRANCH  15  17
HETATM   17  O   UNK N   1      35.244  19.221   8.513  0.00  0.00    -0.775 OA
HETATM   18  H   UNK N   1      36.045  19.291   8.033  0.00  0.00     0.167 HD
ENDBRANCH  15  17
ENDBRANCH   7  15
TORSDOF 5
ENDMDL
MODEL 9
REMARK VINA RESULT:      -5.3     19.095     22.135
REMARK  5 active torsions:
REMARK  status: ('A' for Active; 'I' for Inactive)
REMARK    1  A    between atoms: C_2  and  C_3 
REMARK    2  A    between atoms: C_3  and  C_6 
REMARK    3  A    between atoms: C_6  and  C_8 
REMARK       I    between atoms: C_8  and  N_10 
REMARK    4  A    between atoms: C_14  and  C_15 
REMARK    5  A    between atoms: C_15  and  O_17 
ROOT
HETATM    1  C   UNK N   1      35.369  13.629  12.230  0.00  0.00     0.291 C 
HETATM    2  O   UNK N   1      34.542  14.519  12.117  0.00  0.00    -0.264 OA
HETATM    3  N   UNK N   1      36.451  13.596  11.379  0.00  0.00    -0.331 N 
HETATM    4  C   UNK N   1      37.460  12.574  11.458  0.00  0.00     0.127 C 
HETATM    5  C   UNK N   1      38.589  13.030  10.559  0.00  0.00     0.022 C 
HETATM    6  C   UNK N   1      38.053  14.202   9.751  0.00  0.00     0.038 C 
HETATM    7  C   UNK N   1      36.737  14.628  10.397  0.00  0.00     0.185 C 
ENDROOT
BRANCH   1   8
HETATM    8  C   UNK N   1      35.178  12.623  13.337  0.00  0.00     0.224 C 
HETATM    9  O   UNK N   1      34.534  11.603  13.132  0.00  0.00    -0.286 OA
BRANCH   8  10
HETATM   10  C   UNK N   1      35.795  12.845  14.713  0.00  0.00     0.022 C 
HETATM   11  C   UNK N   1      36.753  11.698  15.004  0.00  0.00     0.023 C 
HETATM   12  C   UNK N   1      36.593  14.146  14.752  0.00  0.00     0.023 C 
BRANCH  10  13
HETATM   13  C   UNK N   1      34.693  12.906  15.780  0.00  0.00     0.012 C 
HETATM   14  C   UNK N   1      35.205  13.327  17.153  0.00  0.00     0.006 C 
ENDBRANCH  10  13
ENDBRANCH   8  10
ENDBRANCH   1   8
BRANCH   7  15
HETATM   15  C   UNK N   1      35.665  14.835   9.337  0.00  0.00     0.163 C 
HETATM   16  O   UNK N   1      35.636  14.132   8.338  0.00  0.00    -0.648 OA
BRANCH  15  17
HETATM   17  O   UNK N   1      34.795  15.855   9.440  0.00  0.00    -0.775 OA
HETATM   18  H   UNK N   1      34.121  15.835  10.091  0.00  0.00     0.167 HD
ENDBRANCH  15  17
ENDBRANCH   7  15
TORSDOF 5
ENDMDL
