REMARK  16 active torsions:
REMARK  status: ('A' for Active; 'I' for Inactive)
REMARK    1  A    between atoms: O_5  and  C_35 
REMARK    2  A    between atoms: O_5  and  C_42 
REMARK    3  A    between atoms: C_17  and  N_10 
REMARK       I    between atoms: N_10  and  C_22 
REMARK    4  A    between atoms: C_23  and  N_11 
REMARK       I    between atoms: N_11  and  C_34 
REMARK    5  A    between atoms: C_14  and  C_15 
REMARK    6  A    between atoms: C_15  and  C_17 
REMARK    7  A    between atoms: C_17  and  C_27 
REMARK    8  A    between atoms: C_20  and  C_21 
REMARK    9  A    between atoms: C_20  and  C_22 
REMARK   10  A    between atoms: C_20  and  C_24 
REMARK   11  A    between atoms: C_21  and  C_26 
REMARK   12  A    between atoms: C_23  and  C_25 
REMARK   13  A    between atoms: C_23  and  C_26 
REMARK   14  A    between atoms: C_24  and  C_28 
REMARK   15  A    between atoms: C_31  and  C_35 
REMARK   16  A    between atoms: C_34  and  C_38 
ROOT
HETATM    1  C   UNK N   1       4.514  -0.419  -0.117  0.00  0.00     0.089 C 
ENDROOT
BRANCH   1   2
HETATM    2  C   UNK N   1       5.218  -1.155   1.048  0.00  0.00     0.095 C 
BRANCH   2   3
HETATM    3  C   UNK N   1       6.707  -1.319   0.987  0.00  0.00     0.150 C 
HETATM    4  O   UNK N   1       7.373  -0.878   1.911  0.00  0.00    -0.296 OA
BRANCH   3   5
HETATM    5  C   UNK N   1       7.410  -1.956  -0.186  0.00  0.00     0.158 C 
BRANCH   5   6
HETATM    6  N   UNK N   1       8.595  -1.179  -0.511  0.00  0.00    -0.344 N 
HETATM    7  C   UNK N   1       9.820  -1.321   0.063  0.00  0.00     0.270 C 
HETATM    8  O   UNK N   1      10.097  -2.308   0.720  0.00  0.00    -0.266 OA
HETATM    9  H   UNK N   1       8.503  -0.490  -1.208  0.00  0.00     0.163 HD
BRANCH   7  10
HETATM   10  C   UNK N   1      10.762  -0.199  -0.005  0.00  0.00     0.124 A 
HETATM   11  N   UNK N   1      11.989  -0.202   0.557  0.00  0.00    -0.256 N 
HETATM   12  O   UNK N   1      12.470   0.996   0.423  0.00  0.00    -0.242 OA
ATOM     13  HN  UNK N   1      12.451  -0.995   1.002  1.00  0.00     0.195 HD
HETATM   14  C   UNK N   1      11.613   1.780  -0.189  0.00  0.00     0.075 A 
HETATM   15  C   UNK N   1      10.478   1.060  -0.494  0.00  0.00     0.071 A 
HETATM   16  C   UNK N   1      11.821   3.227  -0.445  0.00  0.00     0.079 C 
ENDBRANCH   7  10
ENDBRANCH   5   6
BRANCH   5  17
HETATM   17  C   UNK N   1       7.514  -3.494  -0.158  0.00  0.00     0.007 C 
HETATM   18  C   UNK N   1       7.938  -4.072   1.182  0.00  0.00     0.012 C 
HETATM   19  C   UNK N   1       8.365  -4.048  -1.287  0.00  0.00     0.012 C 
ENDBRANCH   5  17
ENDBRANCH   3   5
ENDBRANCH   2   3
ENDBRANCH   1   2
BRANCH   1  20
HETATM   20  C   UNK N   1       5.334   0.672  -0.762  0.00  0.00     0.223 C 
HETATM   21  O   UNK N   1       6.333   0.388  -1.399  0.00  0.00    -0.273 OA
HETATM   22  N   UNK N   1       4.961   1.963  -0.682  0.00  0.00    -0.353 N 
HETATM   23  H   UNK N   1       5.544   2.652  -1.075  0.00  0.00     0.163 HD
BRANCH  22  24
HETATM   24  C   UNK N   1       3.743   2.369  -0.045  0.00  0.00     0.108 C 
BRANCH  24  25
HETATM   25  C   UNK N   1       4.015   3.310   1.148  0.00  0.00     0.043 C 
BRANCH  25  26
HETATM   26  C   UNK N   1       4.791   4.622   0.897  0.00  0.00     0.081 A 
HETATM   27  C   UNK N   1       4.062   5.576  -0.062  0.00  0.00     0.034 A 
HETATM   28  C   UNK N   1       5.031   5.864  -1.226  0.00  0.00     0.123 A 
HETATM   29  N   UNK N   1       6.215   5.118  -0.919  0.00  0.00    -0.361 N 
HETATM   30  C   UNK N   1       6.098   4.447   0.225  0.00  0.00     0.221 A 
HETATM   31  H   UNK N   1       7.019   5.103  -1.486  0.00  0.00     0.162 HD
HETATM   32  O   UNK N   1       7.004   3.762   0.671  0.00  0.00    -0.273 OA
ENDBRANCH  25  26
ENDBRANCH  24  25
BRANCH  24  33
HETATM   33  C   UNK N   1       2.843   2.951  -1.089  0.00  0.00     0.004 C 
HETATM   34  C   UNK N   1       1.514   2.984  -0.981  0.00  0.00     0.080 C 
BRANCH  34  35
HETATM   35  C   UNK N   1       0.763   2.332   0.113  0.00  0.00     0.282 C 
HETATM   36  O   UNK N   1       0.945   1.149   0.362  0.00  0.00    -0.260 OA
BRANCH  35  37
HETATM   37  O   UNK N   1      -0.124   3.043   0.852  0.00  0.00    -0.319 OA
BRANCH  37  38
HETATM   38  C   UNK N   1      -0.266   4.411   0.734  0.00  0.00     0.174 C 
HETATM   39  C   UNK N   1       0.964   5.129   1.276  0.00  0.00     0.034 C 
ENDBRANCH  37  38
ENDBRANCH  35  37
ENDBRANCH  34  35
ENDBRANCH  24  33
ENDBRANCH  22  24
ENDBRANCH   1  20
BRANCH   1  40
HETATM   40  C   UNK N   1       3.874  -1.327  -1.182  0.00  0.00     0.053 C 
BRANCH  40  41
HETATM   41  C   UNK N   1       3.731  -2.744  -0.735  0.00  0.00    -0.057 A 
HETATM   42  C   UNK N   1       4.494  -3.722  -1.372  0.00  0.00     0.010 A 
HETATM   43  C   UNK N   1       4.498  -5.030  -0.889  0.00  0.00     0.043 A 
HETATM   44  C   UNK N   1       3.743  -5.360   0.238  0.00  0.00     0.116 A 
HETATM   45  F   UNK N   1       3.785  -6.621   0.729  0.00  0.00    -0.206 F 
HETATM   46  C   UNK N   1       2.955  -4.389   0.866  0.00  0.00     0.043 A 
HETATM   47  C   UNK N   1       2.948  -3.078   0.381  0.00  0.00     0.010 A 
ENDBRANCH  40  41
ENDBRANCH   1  40
TORSDOF 16
