MODEL 1
REMARK VINA RESULT:      -7.8      0.000      0.000
REMARK  13 active torsions:
REMARK  status: ('A' for Active; 'I' for Inactive)
REMARK    1  A    between atoms: C_1  and  C_3 
REMARK    2  A    between atoms: C_1  and  C_2 
REMARK    3  A    between atoms: C_2  and  C_6 
REMARK    4  A    between atoms: C_3  and  O_4 
REMARK    5  A    between atoms: C_10  and  O_12 
REMARK    6  A    between atoms: O_12  and  C_13 
REMARK    7  A    between atoms: C_13  and  C_14 
REMARK    8  A    between atoms: C_14  and  O_17 
REMARK    9  A    between atoms: C_14  and  C_15 
REMARK   10  A    between atoms: C_15  and  N_16 
REMARK   11  A    between atoms: N_16  and  C_18 
REMARK   12  A    between atoms: C_18  and  C_19 
REMARK   13  A    between atoms: C_19  and  C_22 
ROOT
HETATM    1  C   UNK N   1      33.797  14.349  10.046  0.00  0.00     0.159 C 
ENDROOT
BRANCH   1   2
HETATM    2  O   UNK N   1      33.106  14.901  11.124  0.00  0.00    -0.392 OA
HETATM    3  H   UNK N   1      32.275  15.380  10.983  0.00  0.00     0.210 HD
ENDBRANCH   1   2
BRANCH   1   4
HETATM    4  C   UNK N   1      34.571  15.459   9.327  0.00  0.00     0.209 C 
BRANCH   4   5
HETATM    5  O   UNK N   1      33.801  16.595   9.152  0.00  0.00    -0.345 OA
BRANCH   5   6
HETATM    6  C   UNK N   1      32.985  16.811   8.087  0.00  0.00     0.111 A 
HETATM    7  C   UNK N   1      33.544  17.180   6.855  0.00  0.00     0.188 A 
HETATM    8  C   UNK N   1      32.718  17.391   5.744  0.00  0.00     0.158 A 
HETATM    9  F   UNK N   1      34.888  17.325   6.733  0.00  0.00    -0.200 F 
HETATM   10  C   UNK N   1      31.334  17.233   5.859  0.00  0.00     0.052 A 
HETATM   11  F   UNK N   1      33.258  17.738   4.550  0.00  0.00    -0.203 F 
HETATM   12  C   UNK N   1      30.769  16.869   7.083  0.00  0.00    -0.052 A 
HETATM   13  C   UNK N   1      31.592  16.656   8.193  0.00  0.00     0.047 A 
BRANCH  12  14
HETATM   14  C   UNK N   1      29.292  16.666   7.184  0.00  0.00     0.049 C 
BRANCH  14  15
HETATM   15  C   UNK N   1      28.519  17.980   7.248  0.00  0.00     0.114 C 
BRANCH  15  16
HETATM   16  C   UNK N   1      28.444  18.507   8.645  0.00  0.00     0.139 C 
HETATM   17  O   UNK N   1      29.342  19.208   9.079  0.00  0.00    -0.650 OA
BRANCH  16  18
HETATM   18  O   UNK N   1      27.397  18.195   9.431  0.00  0.00    -0.776 OA
HETATM   19  H   UNK N   1      26.797  17.508   9.214  0.00  0.00     0.167 HD
ENDBRANCH  16  18
ENDBRANCH  15  16
ENDBRANCH  14  15
ENDBRANCH  12  14
ENDBRANCH   5   6
ENDBRANCH   4   5
ENDBRANCH   1   4
BRANCH   1  20
HETATM   20  C   UNK N   1      34.697  13.228  10.555  0.00  0.00     0.148 C 
BRANCH  20  21
HETATM   21  N   UNK N   1      34.739  13.226  12.017  0.00  0.00    -0.411 N 
HETATM   22  H   UNK N   1      33.926  13.074  12.615  0.00  0.00     0.154 HD
BRANCH  21  23
HETATM   23  C   UNK N   1      36.096  13.467  12.516  0.00  0.00     0.018 C 
HETATM   24  C   UNK N   1      37.085  13.194  11.393  0.00  0.00     0.037 C 
HETATM   25  C   UNK N   1      36.186  14.939  12.877  0.00  0.00     0.037 C 
BRANCH  23  26
HETATM   26  C   UNK N   1      36.374  12.615  13.785  0.00  0.00     0.035 C 
BRANCH  26  27
HETATM   27  C   UNK N   1      35.251  12.445  14.820  0.00  0.00    -0.004 A 
HETATM   28  C   UNK N   1      35.233  13.539  15.905  0.00  0.00     0.044 A 
HETATM   29  C   UNK N   1      35.239  12.750  17.150  0.00  0.00    -0.051 A 
HETATM   30  C   UNK N   1      35.256  11.402  16.927  0.00  0.00    -0.051 A 
HETATM   31  C   UNK N   1      35.238  13.269  18.445  0.00  0.00     0.007 A 
HETATM   32  C   UNK N   1      35.267  11.057  15.494  0.00  0.00     0.044 A 
HETATM   33  C   UNK N   1      35.274  10.493  17.985  0.00  0.00     0.007 A 
HETATM   34  C   UNK N   1      35.272  10.989  19.298  0.00  0.00     0.001 A 
HETATM   35  C   UNK N   1      35.253  12.377  19.527  0.00  0.00     0.001 A 
ENDBRANCH  26  27
ENDBRANCH  23  26
ENDBRANCH  21  23
ENDBRANCH  20  21
ENDBRANCH   1  20
TORSDOF 13
ENDMDL
MODEL 2
REMARK VINA RESULT:      -7.8     18.977     21.194
REMARK  13 active torsions:
REMARK  status: ('A' for Active; 'I' for Inactive)
REMARK    1  A    between atoms: C_1  and  C_3 
REMARK    2  A    between atoms: C_1  and  C_2 
REMARK    3  A    between atoms: C_2  and  C_6 
REMARK    4  A    between atoms: C_3  and  O_4 
REMARK    5  A    between atoms: C_10  and  O_12 
REMARK    6  A    between atoms: O_12  and  C_13 
REMARK    7  A    between atoms: C_13  and  C_14 
REMARK    8  A    between atoms: C_14  and  O_17 
REMARK    9  A    between atoms: C_14  and  C_15 
REMARK   10  A    between atoms: C_15  and  N_16 
REMARK   11  A    between atoms: N_16  and  C_18 
REMARK   12  A    between atoms: C_18  and  C_19 
REMARK   13  A    between atoms: C_19  and  C_22 
ROOT
HETATM    1  C   UNK N   1      26.757  29.579  -3.469  0.00  0.00     0.159 C 
ENDROOT
BRANCH   1   2
HETATM    2  O   UNK N   1      26.178  30.847  -3.480  0.00  0.00    -0.392 OA
HETATM    3  H   UNK N   1      26.185  31.385  -4.287  0.00  0.00     0.210 HD
ENDBRANCH   1   2
BRANCH   1   4
HETATM    4  C   UNK N   1      26.574  28.934  -4.847  0.00  0.00     0.209 C 
BRANCH   4   5
HETATM    5  O   UNK N   1      25.569  27.984  -4.843  0.00  0.00    -0.345 OA
BRANCH   5   6
HETATM    6  C   UNK N   1      25.773  26.653  -5.024  0.00  0.00     0.111 A 
HETATM    7  C   UNK N   1      26.120  25.854  -3.925  0.00  0.00     0.188 A 
HETATM    8  C   UNK N   1      26.319  24.477  -4.092  0.00  0.00     0.158 A 
HETATM    9  F   UNK N   1      26.256  26.410  -2.695  0.00  0.00    -0.200 F 
HETATM   10  C   UNK N   1      26.170  23.895  -5.354  0.00  0.00     0.052 A 
HETATM   11  F   UNK N   1      26.645  23.702  -3.029  0.00  0.00    -0.203 F 
HETATM   12  C   UNK N   1      25.827  24.684  -6.454  0.00  0.00    -0.052 A 
HETATM   13  C   UNK N   1      25.627  26.058  -6.289  0.00  0.00     0.047 A 
BRANCH  12  14
HETATM   14  C   UNK N   1      25.634  24.045  -7.791  0.00  0.00     0.049 C 
BRANCH  14  15
HETATM   15  C   UNK N   1      26.176  22.620  -7.848  0.00  0.00     0.114 C 
BRANCH  15  16
HETATM   16  C   UNK N   1      25.074  21.616  -7.962  0.00  0.00     0.139 C 
HETATM   17  O   UNK N   1      25.333  20.425  -7.932  0.00  0.00    -0.650 OA
BRANCH  16  18
HETATM   18  O   UNK N   1      23.800  22.023  -8.113  0.00  0.00    -0.776 OA
HETATM   19  H   UNK N   1      23.257  21.712  -8.810  0.00  0.00     0.167 HD
ENDBRANCH  16  18
ENDBRANCH  15  16
ENDBRANCH  14  15
ENDBRANCH  12  14
ENDBRANCH   5   6
ENDBRANCH   4   5
ENDBRANCH   1   4
BRANCH   1  20
HETATM   20  C   UNK N   1      28.220  29.705  -3.059  0.00  0.00     0.148 C 
BRANCH  20  21
HETATM   21  N   UNK N   1      28.846  28.385  -2.971  0.00  0.00    -0.411 N 
HETATM   22  H   UNK N   1      28.368  27.544  -2.649  0.00  0.00     0.154 HD
BRANCH  21  23
HETATM   23  C   UNK N   1      30.245  28.424  -3.407  0.00  0.00     0.018 C 
HETATM   24  C   UNK N   1      30.377  29.436  -4.534  0.00  0.00     0.037 C 
HETATM   25  C   UNK N   1      31.067  28.917  -2.231  0.00  0.00     0.037 C 
BRANCH  23  26
HETATM   26  C   UNK N   1      30.733  27.005  -3.809  0.00  0.00     0.035 C 
BRANCH  26  27
HETATM   27  C   UNK N   1      29.686  25.912  -4.076  0.00  0.00    -0.004 A 
HETATM   28  C   UNK N   1      29.947  24.599  -3.312  0.00  0.00     0.044 A 
HETATM   29  C   UNK N   1      29.918  23.595  -4.391  0.00  0.00    -0.051 A 
HETATM   30  C   UNK N   1      29.682  24.140  -5.621  0.00  0.00    -0.051 A 
HETATM   31  C   UNK N   1      30.113  22.223  -4.233  0.00  0.00     0.007 A 
HETATM   32  C   UNK N   1      29.517  25.604  -5.579  0.00  0.00     0.044 A 
HETATM   33  C   UNK N   1      29.629  23.346  -6.767  0.00  0.00     0.007 A 
HETATM   34  C   UNK N   1      29.821  21.962  -6.635  0.00  0.00     0.001 A 
HETATM   35  C   UNK N   1      30.062  21.401  -5.368  0.00  0.00     0.001 A 
ENDBRANCH  26  27
ENDBRANCH  23  26
ENDBRANCH  21  23
ENDBRANCH  20  21
ENDBRANCH   1  20
TORSDOF 13
ENDMDL
MODEL 3
REMARK VINA RESULT:      -7.8      1.717      2.372
REMARK  13 active torsions:
REMARK  status: ('A' for Active; 'I' for Inactive)
REMARK    1  A    between atoms: C_1  and  C_3 
REMARK    2  A    between atoms: C_1  and  C_2 
REMARK    3  A    between atoms: C_2  and  C_6 
REMARK    4  A    between atoms: C_3  and  O_4 
REMARK    5  A    between atoms: C_10  and  O_12 
REMARK    6  A    between atoms: O_12  and  C_13 
REMARK    7  A    between atoms: C_13  and  C_14 
REMARK    8  A    between atoms: C_14  and  O_17 
REMARK    9  A    between atoms: C_14  and  C_15 
REMARK   10  A    between atoms: C_15  and  N_16 
REMARK   11  A    between atoms: N_16  and  C_18 
REMARK   12  A    between atoms: C_18  and  C_19 
REMARK   13  A    between atoms: C_19  and  C_22 
ROOT
HETATM    1  C   UNK N   1      33.971  11.767   9.217  0.00  0.00     0.159 C 
ENDROOT
BRANCH   1   2
HETATM    2  O   UNK N   1      32.631  11.619   9.571  0.00  0.00    -0.392 OA
HETATM    3  H   UNK N   1      31.950  11.507   8.889  0.00  0.00     0.210 HD
ENDBRANCH   1   2
BRANCH   1   4
HETATM    4  C   UNK N   1      34.200  13.196   8.713  0.00  0.00     0.209 C 
BRANCH   4   5
HETATM    5  O   UNK N   1      33.554  14.131   9.502  0.00  0.00    -0.345 OA
BRANCH   5   6
HETATM    6  C   UNK N   1      33.297  15.409   9.120  0.00  0.00     0.111 A 
HETATM    7  C   UNK N   1      34.357  16.323   9.016  0.00  0.00     0.188 A 
HETATM    8  C   UNK N   1      34.112  17.640   8.608  0.00  0.00     0.158 A 
HETATM    9  F   UNK N   1      35.625  15.930   9.300  0.00  0.00    -0.200 F 
HETATM   10  C   UNK N   1      32.811  18.048   8.303  0.00  0.00     0.052 A 
HETATM   11  F   UNK N   1      35.136  18.521   8.498  0.00  0.00    -0.203 F 
HETATM   12  C   UNK N   1      31.749  17.147   8.407  0.00  0.00    -0.052 A 
HETATM   13  C   UNK N   1      31.992  15.831   8.813  0.00  0.00     0.047 A 
BRANCH  12  14
HETATM   14  C   UNK N   1      30.368  17.585   8.043  0.00  0.00     0.049 C 
BRANCH  14  15
HETATM   15  C   UNK N   1      29.679  18.358   9.162  0.00  0.00     0.114 C 
BRANCH  15  16
HETATM   16  C   UNK N   1      28.197  18.159   9.137  0.00  0.00     0.139 C 
HETATM   17  O   UNK N   1      27.714  17.137   9.594  0.00  0.00    -0.650 OA
BRANCH  16  18
HETATM   18  O   UNK N   1      27.397  19.096   8.596  0.00  0.00    -0.776 OA
HETATM   19  H   UNK N   1      26.463  19.048   8.655  0.00  0.00     0.167 HD
ENDBRANCH  16  18
ENDBRANCH  15  16
ENDBRANCH  14  15
ENDBRANCH  12  14
ENDBRANCH   5   6
ENDBRANCH   4   5
ENDBRANCH   1   4
BRANCH   1  20
HETATM   20  C   UNK N   1      34.843  11.410  10.415  0.00  0.00     0.148 C 
BRANCH  20  21
HETATM   21  N   UNK N   1      34.184  11.793  11.664  0.00  0.00    -0.411 N 
HETATM   22  H   UNK N   1      33.179  11.724  11.827  0.00  0.00     0.154 HD
BRANCH  21  23
HETATM   23  C   UNK N   1      35.148  12.286  12.652  0.00  0.00     0.018 C 
HETATM   24  C   UNK N   1      36.473  11.571  12.439  0.00  0.00     0.037 C 
HETATM   25  C   UNK N   1      35.358  13.763  12.375  0.00  0.00     0.037 C 
BRANCH  23  26
HETATM   26  C   UNK N   1      34.594  12.113  14.093  0.00  0.00     0.035 C 
BRANCH  26  27
HETATM   27  C   UNK N   1      35.466  11.404  15.139  0.00  0.00    -0.004 A 
HETATM   28  C   UNK N   1      34.898  10.051  15.612  0.00  0.00     0.044 A 
HETATM   29  C   UNK N   1      34.889  10.208  17.078  0.00  0.00    -0.051 A 
HETATM   30  C   UNK N   1      35.360  11.423  17.488  0.00  0.00    -0.051 A 
HETATM   31  C   UNK N   1      34.449   9.255  17.997  0.00  0.00     0.007 A 
HETATM   32  C   UNK N   1      35.763  12.291  16.367  0.00  0.00     0.044 A 
HETATM   33  C   UNK N   1      35.417  11.758  18.841  0.00  0.00     0.007 A 
HETATM   34  C   UNK N   1      34.982  10.816  19.786  0.00  0.00     0.001 A 
HETATM   35  C   UNK N   1      34.498   9.565  19.364  0.00  0.00     0.001 A 
ENDBRANCH  26  27
ENDBRANCH  23  26
ENDBRANCH  21  23
ENDBRANCH  20  21
ENDBRANCH   1  20
TORSDOF 13
ENDMDL
MODEL 4
REMARK VINA RESULT:      -7.7      4.829     12.759
REMARK  13 active torsions:
REMARK  status: ('A' for Active; 'I' for Inactive)
REMARK    1  A    between atoms: C_1  and  C_3 
REMARK    2  A    between atoms: C_1  and  C_2 
REMARK    3  A    between atoms: C_2  and  C_6 
REMARK    4  A    between atoms: C_3  and  O_4 
REMARK    5  A    between atoms: C_10  and  O_12 
REMARK    6  A    between atoms: O_12  and  C_13 
REMARK    7  A    between atoms: C_13  and  C_14 
REMARK    8  A    between atoms: C_14  and  O_17 
REMARK    9  A    between atoms: C_14  and  C_15 
REMARK   10  A    between atoms: C_15  and  N_16 
REMARK   11  A    between atoms: N_16  and  C_18 
REMARK   12  A    between atoms: C_18  and  C_19 
REMARK   13  A    between atoms: C_19  and  C_22 
ROOT
HETATM    1  C   UNK N   1      28.535  18.551   8.839  0.00  0.00     0.159 C 
ENDROOT
BRANCH   1   2
HETATM    2  O   UNK N   1      27.477  17.868   9.436  0.00  0.00    -0.392 OA
HETATM    3  H   UNK N   1      26.739  17.537   8.901  0.00  0.00     0.210 HD
ENDBRANCH   1   2
BRANCH   1   4
HETATM    4  C   UNK N   1      29.856  17.918   9.288  0.00  0.00     0.209 C 
BRANCH   4   5
HETATM    5  O   UNK N   1      30.864  18.114   8.360  0.00  0.00    -0.345 OA
BRANCH   5   6
HETATM    6  C   UNK N   1      31.771  17.167   8.003  0.00  0.00     0.111 A 
HETATM    7  C   UNK N   1      32.010  16.921   6.643  0.00  0.00     0.188 A 
HETATM    8  C   UNK N   1      32.952  15.959   6.258  0.00  0.00     0.158 A 
HETATM    9  F   UNK N   1      31.335  17.621   5.696  0.00  0.00    -0.200 F 
HETATM   10  C   UNK N   1      33.659  15.243   7.228  0.00  0.00     0.052 A 
HETATM   11  F   UNK N   1      33.191  15.727   4.944  0.00  0.00    -0.203 F 
HETATM   12  C   UNK N   1      33.425  15.479   8.584  0.00  0.00    -0.052 A 
HETATM   13  C   UNK N   1      32.485  16.439   8.970  0.00  0.00     0.047 A 
BRANCH  12  14
HETATM   14  C   UNK N   1      34.213  14.733   9.612  0.00  0.00     0.049 C 
BRANCH  14  15
HETATM   15  C   UNK N   1      34.516  15.573  10.848  0.00  0.00     0.114 C 
BRANCH  15  16
HETATM   16  C   UNK N   1      35.690  16.472  10.628  0.00  0.00     0.139 C 
HETATM   17  O   UNK N   1      35.516  17.613  10.232  0.00  0.00    -0.650 OA
BRANCH  16  18
HETATM   18  O   UNK N   1      36.939  16.021  10.848  0.00  0.00    -0.776 OA
HETATM   19  H   UNK N   1      37.357  15.411  10.273  0.00  0.00     0.167 HD
ENDBRANCH  16  18
ENDBRANCH  15  16
ENDBRANCH  14  15
ENDBRANCH  12  14
ENDBRANCH   5   6
ENDBRANCH   4   5
ENDBRANCH   1   4
BRANCH   1  20
HETATM   20  C   UNK N   1      28.348  18.530   7.326  0.00  0.00     0.148 C 
BRANCH  20  21
HETATM   21  N   UNK N   1      27.332  19.501   6.919  0.00  0.00    -0.411 N 
HETATM   22  H   UNK N   1      26.922  20.198   7.541  0.00  0.00     0.154 HD
BRANCH  21  23
HETATM   23  C   UNK N   1      26.977  19.346   5.505  0.00  0.00     0.018 C 
HETATM   24  C   UNK N   1      28.028  20.047   4.659  0.00  0.00     0.037 C 
HETATM   25  C   UNK N   1      27.029  17.863   5.189  0.00  0.00     0.037 C 
BRANCH  23  26
HETATM   26  C   UNK N   1      25.539  19.872   5.240  0.00  0.00     0.035 C 
BRANCH  26  27
HETATM   27  C   UNK N   1      24.760  19.316   4.039  0.00  0.00    -0.004 A 
HETATM   28  C   UNK N   1      24.175  20.404   3.118  0.00  0.00     0.044 A 
HETATM   29  C   UNK N   1      22.754  20.021   3.039  0.00  0.00    -0.051 A 
HETATM   30  C   UNK N   1      22.462  18.900   3.764  0.00  0.00    -0.051 A 
HETATM   31  C   UNK N   1      21.765  20.698   2.324  0.00  0.00     0.007 A 
HETATM   32  C   UNK N   1      23.638  18.342   4.456  0.00  0.00     0.044 A 
HETATM   33  C   UNK N   1      21.164  18.390   3.818  0.00  0.00     0.007 A 
HETATM   34  C   UNK N   1      20.152  19.052   3.107  0.00  0.00     0.001 A 
HETATM   35  C   UNK N   1      20.452  20.205   2.359  0.00  0.00     0.001 A 
ENDBRANCH  26  27
ENDBRANCH  23  26
ENDBRANCH  21  23
ENDBRANCH  20  21
ENDBRANCH   1  20
TORSDOF 13
ENDMDL
MODEL 5
REMARK VINA RESULT:      -7.4     19.275     21.455
REMARK  13 active torsions:
REMARK  status: ('A' for Active; 'I' for Inactive)
REMARK    1  A    between atoms: C_1  and  C_3 
REMARK    2  A    between atoms: C_1  and  C_2 
REMARK    3  A    between atoms: C_2  and  C_6 
REMARK    4  A    between atoms: C_3  and  O_4 
REMARK    5  A    between atoms: C_10  and  O_12 
REMARK    6  A    between atoms: O_12  and  C_13 
REMARK    7  A    between atoms: C_13  and  C_14 
REMARK    8  A    between atoms: C_14  and  O_17 
REMARK    9  A    between atoms: C_14  and  C_15 
REMARK   10  A    between atoms: C_15  and  N_16 
REMARK   11  A    between atoms: N_16  and  C_18 
REMARK   12  A    between atoms: C_18  and  C_19 
REMARK   13  A    between atoms: C_19  and  C_22 
ROOT
HETATM    1  C   UNK N   1      25.415  22.051  -8.861  0.00  0.00     0.159 C 
ENDROOT
BRANCH   1   2
HETATM    2  O   UNK N   1      24.188  21.976  -8.204  0.00  0.00    -0.392 OA
HETATM    3  H   UNK N   1      23.374  22.262  -8.645  0.00  0.00     0.210 HD
ENDBRANCH   1   2
BRANCH   1   4
HETATM    4  C   UNK N   1      25.966  23.475  -8.730  0.00  0.00     0.209 C 
BRANCH   4   5
HETATM    5  O   UNK N   1      25.235  24.230  -7.830  0.00  0.00    -0.345 OA
BRANCH   5   6
HETATM    6  C   UNK N   1      25.769  24.878  -6.762  0.00  0.00     0.111 A 
HETATM    7  C   UNK N   1      26.128  24.144  -5.622  0.00  0.00     0.188 A 
HETATM    8  C   UNK N   1      26.694  24.793  -4.518  0.00  0.00     0.158 A 
HETATM    9  F   UNK N   1      25.936  22.800  -5.588  0.00  0.00    -0.200 F 
HETATM   10  C   UNK N   1      26.905  26.174  -4.549  0.00  0.00     0.052 A 
HETATM   11  F   UNK N   1      27.050  24.084  -3.419  0.00  0.00    -0.203 F 
HETATM   12  C   UNK N   1      26.548  26.913  -5.679  0.00  0.00    -0.052 A 
HETATM   13  C   UNK N   1      25.984  26.266  -6.782  0.00  0.00     0.047 A 
BRANCH  12  14
HETATM   14  C   UNK N   1      26.812  28.383  -5.716  0.00  0.00     0.049 C 
BRANCH  14  15
HETATM   15  C   UNK N   1      27.678  28.857  -4.552  0.00  0.00     0.114 C 
BRANCH  15  16
HETATM   16  C   UNK N   1      26.847  29.407  -3.437  0.00  0.00     0.139 C 
HETATM   17  O   UNK N   1      26.877  28.877  -2.339  0.00  0.00    -0.650 OA
BRANCH  16  18
HETATM   18  O   UNK N   1      26.055  30.475  -3.646  0.00  0.00    -0.776 OA
HETATM   19  H   UNK N   1      26.392  31.293  -3.956  0.00  0.00     0.167 HD
ENDBRANCH  16  18
ENDBRANCH  15  16
ENDBRANCH  14  15
ENDBRANCH  12  14
ENDBRANCH   5   6
ENDBRANCH   4   5
ENDBRANCH   1   4
BRANCH   1  20
HETATM   20  C   UNK N   1      26.351  20.994  -8.286  0.00  0.00     0.148 C 
BRANCH  20  21
HETATM   21  N   UNK N   1      27.604  20.951  -9.041  0.00  0.00    -0.411 N 
HETATM   22  H   UNK N   1      27.666  21.035 -10.055  0.00  0.00     0.154 HD
BRANCH  21  23
HETATM   23  C   UNK N   1      28.759  20.772  -8.156  0.00  0.00     0.018 C 
HETATM   24  C   UNK N   1      28.833  19.312  -7.739  0.00  0.00     0.037 C 
HETATM   25  C   UNK N   1      30.000  21.096  -8.967  0.00  0.00     0.037 C 
BRANCH  23  26
HETATM   26  C   UNK N   1      28.676  21.742  -6.945  0.00  0.00     0.035 C 
BRANCH  26  27
HETATM   27  C   UNK N   1      29.933  22.527  -6.540  0.00  0.00    -0.004 A 
HETATM   28  C   UNK N   1      30.162  22.596  -5.017  0.00  0.00     0.044 A 
HETATM   29  C   UNK N   1      30.309  24.044  -4.785  0.00  0.00    -0.051 A 
HETATM   30  C   UNK N   1      30.201  24.782  -5.931  0.00  0.00    -0.051 A 
HETATM   31  C   UNK N   1      30.528  24.654  -3.550  0.00  0.00     0.007 A 
HETATM   32  C   UNK N   1      29.959  23.954  -7.126  0.00  0.00     0.044 A 
HETATM   33  C   UNK N   1      30.304  26.173  -5.909  0.00  0.00     0.007 A 
HETATM   34  C   UNK N   1      30.525  26.811  -4.678  0.00  0.00     0.001 A 
HETATM   35  C   UNK N   1      30.638  26.051  -3.499  0.00  0.00     0.001 A 
ENDBRANCH  26  27
ENDBRANCH  23  26
ENDBRANCH  21  23
ENDBRANCH  20  21
ENDBRANCH   1  20
TORSDOF 13
ENDMDL
MODEL 6
REMARK VINA RESULT:      -7.3      1.128      1.642
REMARK  13 active torsions:
REMARK  status: ('A' for Active; 'I' for Inactive)
REMARK    1  A    between atoms: C_1  and  C_3 
REMARK    2  A    between atoms: C_1  and  C_2 
REMARK    3  A    between atoms: C_2  and  C_6 
REMARK    4  A    between atoms: C_3  and  O_4 
REMARK    5  A    between atoms: C_10  and  O_12 
REMARK    6  A    between atoms: O_12  and  C_13 
REMARK    7  A    between atoms: C_13  and  C_14 
REMARK    8  A    between atoms: C_14  and  O_17 
REMARK    9  A    between atoms: C_14  and  C_15 
REMARK   10  A    between atoms: C_15  and  N_16 
REMARK   11  A    between atoms: N_16  and  C_18 
REMARK   12  A    between atoms: C_18  and  C_19 
REMARK   13  A    between atoms: C_19  and  C_22 
ROOT
HETATM    1  C   UNK N   1      35.484  15.915  10.874  0.00  0.00     0.159 C 
ENDROOT
BRANCH   1   2
HETATM    2  O   UNK N   1      36.852  16.183  10.878  0.00  0.00    -0.392 OA
HETATM    3  H   UNK N   1      37.178  17.084  10.729  0.00  0.00     0.210 HD
ENDBRANCH   1   2
BRANCH   1   4
HETATM    4  C   UNK N   1      34.843  16.606   9.666  0.00  0.00     0.209 C 
BRANCH   4   5
HETATM    5  O   UNK N   1      34.038  15.742   8.944  0.00  0.00    -0.345 OA
BRANCH   5   6
HETATM    6  C   UNK N   1      33.250  16.118   7.903  0.00  0.00     0.111 A 
HETATM    7  C   UNK N   1      33.825  16.304   6.637  0.00  0.00     0.188 A 
HETATM    8  C   UNK N   1      33.024  16.676   5.550  0.00  0.00     0.158 A 
HETATM    9  F   UNK N   1      35.157  16.114   6.459  0.00  0.00    -0.200 F 
HETATM   10  C   UNK N   1      31.650  16.863   5.723  0.00  0.00     0.052 A 
HETATM   11  F   UNK N   1      33.576  16.847   4.324  0.00  0.00    -0.203 F 
HETATM   12  C   UNK N   1      31.070  16.683   6.981  0.00  0.00    -0.052 A 
HETATM   13  C   UNK N   1      31.867  16.310   8.067  0.00  0.00     0.047 A 
BRANCH  12  14
HETATM   14  C   UNK N   1      29.594  16.849   7.146  0.00  0.00     0.049 C 
BRANCH  14  15
HETATM   15  C   UNK N   1      29.222  18.140   7.867  0.00  0.00     0.114 C 
BRANCH  15  16
HETATM   16  C   UNK N   1      28.554  17.866   9.176  0.00  0.00     0.139 C 
HETATM   17  O   UNK N   1      29.139  17.228  10.035  0.00  0.00    -0.650 OA
BRANCH  16  18
HETATM   18  O   UNK N   1      27.302  18.307   9.403  0.00  0.00    -0.776 OA
HETATM   19  H   UNK N   1      26.758  18.638   8.716  0.00  0.00     0.167 HD
ENDBRANCH  16  18
ENDBRANCH  15  16
ENDBRANCH  14  15
ENDBRANCH  12  14
ENDBRANCH   5   6
ENDBRANCH   4   5
ENDBRANCH   1   4
BRANCH   1  20
HETATM   20  C   UNK N   1      35.274  14.405  10.879  0.00  0.00     0.148 C 
BRANCH  20  21
HETATM   21  N   UNK N   1      34.687  13.971  12.146  0.00  0.00    -0.411 N 
HETATM   22  H   UNK N   1      33.693  14.026  12.367  0.00  0.00     0.154 HD
BRANCH  21  23
HETATM   23  C   UNK N   1      35.708  13.445  13.058  0.00  0.00     0.018 C 
HETATM   24  C   UNK N   1      36.740  12.679  12.246  0.00  0.00     0.037 C 
HETATM   25  C   UNK N   1      36.397  14.638  13.695  0.00  0.00     0.037 C 
BRANCH  23  26
HETATM   26  C   UNK N   1      35.054  12.581  14.172  0.00  0.00     0.035 C 
BRANCH  26  27
HETATM   27  C   UNK N   1      35.913  12.149  15.370  0.00  0.00    -0.004 A 
HETATM   28  C   UNK N   1      35.727  10.672  15.769  0.00  0.00     0.044 A 
HETATM   29  C   UNK N   1      35.419  10.770  17.207  0.00  0.00    -0.051 A 
HETATM   30  C   UNK N   1      35.407  12.058  17.664  0.00  0.00    -0.051 A 
HETATM   31  C   UNK N   1      35.151   9.698  18.059  0.00  0.00     0.007 A 
HETATM   32  C   UNK N   1      35.702  13.044  16.609  0.00  0.00     0.044 A 
HETATM   33  C   UNK N   1      35.124  12.350  18.999  0.00  0.00     0.007 A 
HETATM   34  C   UNK N   1      34.852  11.289  19.876  0.00  0.00     0.001 A 
HETATM   35  C   UNK N   1      34.866   9.963  19.406  0.00  0.00     0.001 A 
ENDBRANCH  26  27
ENDBRANCH  23  26
ENDBRANCH  21  23
ENDBRANCH  20  21
ENDBRANCH   1  20
TORSDOF 13
ENDMDL
MODEL 7
REMARK VINA RESULT:      -7.3     17.498     21.097
REMARK  13 active torsions:
REMARK  status: ('A' for Active; 'I' for Inactive)
REMARK    1  A    between atoms: C_1  and  C_3 
REMARK    2  A    between atoms: C_1  and  C_2 
REMARK    3  A    between atoms: C_2  and  C_6 
REMARK    4  A    between atoms: C_3  and  O_4 
REMARK    5  A    between atoms: C_10  and  O_12 
REMARK    6  A    between atoms: O_12  and  C_13 
REMARK    7  A    between atoms: C_13  and  C_14 
REMARK    8  A    between atoms: C_14  and  O_17 
REMARK    9  A    between atoms: C_14  and  C_15 
REMARK   10  A    between atoms: C_15  and  N_16 
REMARK   11  A    between atoms: N_16  and  C_18 
REMARK   12  A    between atoms: C_18  and  C_19 
REMARK   13  A    between atoms: C_19  and  C_22 
ROOT
HETATM    1  C   UNK N   1      30.013  20.401  -8.405  0.00  0.00     0.159 C 
ENDROOT
BRANCH   1   2
HETATM    2  O   UNK N   1      31.119  20.756  -9.176  0.00  0.00    -0.392 OA
HETATM    3  H   UNK N   1      31.060  21.482  -9.817  0.00  0.00     0.210 HD
ENDBRANCH   1   2
BRANCH   1   4
HETATM    4  C   UNK N   1      30.471  20.134  -6.967  0.00  0.00     0.209 C 
BRANCH   4   5
HETATM    5  O   UNK N   1      29.700  20.819  -6.044  0.00  0.00    -0.345 OA
BRANCH   5   6
HETATM    6  C   UNK N   1      30.206  21.592  -5.048  0.00  0.00     0.111 A 
HETATM    7  C   UNK N   1      31.131  21.039  -4.150  0.00  0.00     0.188 A 
HETATM    8  C   UNK N   1      31.673  21.826  -3.126  0.00  0.00     0.158 A 
HETATM    9  F   UNK N   1      31.510  19.742  -4.275  0.00  0.00    -0.200 F 
HETATM   10  C   UNK N   1      31.296  23.166  -2.997  0.00  0.00     0.052 A 
HETATM   11  F   UNK N   1      32.574  21.296  -2.263  0.00  0.00    -0.203 F 
HETATM   12  C   UNK N   1      30.374  23.723  -3.885  0.00  0.00    -0.052 A 
HETATM   13  C   UNK N   1      29.832  22.940  -4.908  0.00  0.00     0.047 A 
BRANCH  12  14
HETATM   14  C   UNK N   1      30.006  25.166  -3.760  0.00  0.00     0.049 C 
BRANCH  14  15
HETATM   15  C   UNK N   1      29.624  25.796  -5.096  0.00  0.00     0.114 C 
BRANCH  15  16
HETATM   16  C   UNK N   1      29.454  27.277  -4.977  0.00  0.00     0.139 C 
HETATM   17  O   UNK N   1      29.587  27.818  -3.893  0.00  0.00    -0.650 OA
BRANCH  16  18
HETATM   18  O   UNK N   1      29.138  28.011  -6.060  0.00  0.00    -0.776 OA
HETATM   19  H   UNK N   1      29.779  28.264  -6.695  0.00  0.00     0.167 HD
ENDBRANCH  16  18
ENDBRANCH  15  16
ENDBRANCH  14  15
ENDBRANCH  12  14
ENDBRANCH   5   6
ENDBRANCH   4   5
ENDBRANCH   1   4
BRANCH   1  20
HETATM   20  C   UNK N   1      28.966  21.505  -8.502  0.00  0.00     0.148 C 
BRANCH  20  21
HETATM   21  N   UNK N   1      27.632  20.975  -8.217  0.00  0.00    -0.411 N 
HETATM   22  H   UNK N   1      27.417  19.983  -8.121  0.00  0.00     0.154 HD
BRANCH  21  23
HETATM   23  C   UNK N   1      26.644  22.050  -8.086  0.00  0.00     0.018 C 
HETATM   24  C   UNK N   1      26.460  22.712  -9.442  0.00  0.00     0.037 C 
HETATM   25  C   UNK N   1      25.328  21.404  -7.693  0.00  0.00     0.037 C 
BRANCH  23  26
HETATM   26  C   UNK N   1      27.069  23.052  -6.977  0.00  0.00     0.035 C 
BRANCH  26  27
HETATM   27  C   UNK N   1      25.976  23.823  -6.221  0.00  0.00    -0.004 A 
HETATM   28  C   UNK N   1      25.656  25.204  -6.824  0.00  0.00     0.044 A 
HETATM   29  C   UNK N   1      25.796  26.098  -5.660  0.00  0.00    -0.051 A 
HETATM   30  C   UNK N   1      26.140  25.434  -4.516  0.00  0.00    -0.051 A 
HETATM   31  C   UNK N   1      25.619  27.482  -5.668  0.00  0.00     0.007 A 
HETATM   32  C   UNK N   1      26.291  23.982  -4.718  0.00  0.00     0.044 A 
HETATM   33  C   UNK N   1      26.328  26.115  -3.313  0.00  0.00     0.007 A 
HETATM   34  C   UNK N   1      26.154  27.507  -3.294  0.00  0.00     0.001 A 
HETATM   35  C   UNK N   1      25.799  28.190  -4.472  0.00  0.00     0.001 A 
ENDBRANCH  26  27
ENDBRANCH  23  26
ENDBRANCH  21  23
ENDBRANCH  20  21
ENDBRANCH   1  20
TORSDOF 13
ENDMDL
MODEL 8
REMARK VINA RESULT:      -7.3      2.629      3.300
REMARK  13 active torsions:
REMARK  status: ('A' for Active; 'I' for Inactive)
REMARK    1  A    between atoms: C_1  and  C_3 
REMARK    2  A    between atoms: C_1  and  C_2 
REMARK    3  A    between atoms: C_2  and  C_6 
REMARK    4  A    between atoms: C_3  and  O_4 
REMARK    5  A    between atoms: C_10  and  O_12 
REMARK    6  A    between atoms: O_12  and  C_13 
REMARK    7  A    between atoms: C_13  and  C_14 
REMARK    8  A    between atoms: C_14  and  O_17 
REMARK    9  A    between atoms: C_14  and  C_15 
REMARK   10  A    between atoms: C_15  and  N_16 
REMARK   11  A    between atoms: N_16  and  C_18 
REMARK   12  A    between atoms: C_18  and  C_19 
REMARK   13  A    between atoms: C_19  and  C_22 
ROOT
HETATM    1  C   UNK N   1      34.089  12.055   9.429  0.00  0.00     0.159 C 
ENDROOT
BRANCH   1   2
HETATM    2  O   UNK N   1      33.433  11.483  10.519  0.00  0.00    -0.392 OA
HETATM    3  H   UNK N   1      33.760  11.625  11.421  0.00  0.00     0.210 HD
ENDBRANCH   1   2
BRANCH   1   4
HETATM    4  C   UNK N   1      33.259  13.234   8.909  0.00  0.00     0.209 C 
BRANCH   4   5
HETATM    5  O   UNK N   1      33.740  14.447   9.369  0.00  0.00    -0.345 OA
BRANCH   5   6
HETATM    6  C   UNK N   1      33.711  15.602   8.655  0.00  0.00     0.111 A 
HETATM    7  C   UNK N   1      34.524  16.676   9.049  0.00  0.00     0.188 A 
HETATM    8  C   UNK N   1      34.517  17.868   8.315  0.00  0.00     0.158 A 
HETATM    9  F   UNK N   1      35.327  16.558  10.138  0.00  0.00    -0.200 F 
HETATM   10  C   UNK N   1      33.702  17.993   7.187  0.00  0.00     0.052 A 
HETATM   11  F   UNK N   1      35.310  18.903   8.689  0.00  0.00    -0.203 F 
HETATM   12  C   UNK N   1      32.887  16.931   6.790  0.00  0.00    -0.052 A 
HETATM   13  C   UNK N   1      32.893  15.739   7.520  0.00  0.00     0.047 A 
BRANCH  12  14
HETATM   14  C   UNK N   1      32.048  17.062   5.561  0.00  0.00     0.049 C 
BRANCH  14  15
HETATM   15  C   UNK N   1      32.841  17.550   4.352  0.00  0.00     0.114 C 
BRANCH  15  16
HETATM   16  C   UNK N   1      32.409  16.863   3.097  0.00  0.00     0.139 C 
HETATM   17  O   UNK N   1      33.159  16.073   2.548  0.00  0.00    -0.650 OA
BRANCH  16  18
HETATM   18  O   UNK N   1      31.203  17.126   2.561  0.00  0.00    -0.776 OA
HETATM   19  H   UNK N   1      31.007  16.948   1.663  0.00  0.00     0.167 HD
ENDBRANCH  16  18
ENDBRANCH  15  16
ENDBRANCH  14  15
ENDBRANCH  12  14
ENDBRANCH   5   6
ENDBRANCH   4   5
ENDBRANCH   1   4
BRANCH   1  20
HETATM   20  C   UNK N   1      35.496  12.458   9.853  0.00  0.00     0.148 C 
BRANCH  20  21
HETATM   21  N   UNK N   1      35.623  12.431  11.310  0.00  0.00    -0.411 N 
HETATM   22  H   UNK N   1      34.877  12.688  11.956  0.00  0.00     0.154 HD
BRANCH  21  23
HETATM   23  C   UNK N   1      36.957  11.986  11.725  0.00  0.00     0.018 C 
HETATM   24  C   UNK N   1      37.170  10.561  11.240  0.00  0.00     0.037 C 
HETATM   25  C   UNK N   1      37.965  12.879  11.024  0.00  0.00     0.037 C 
BRANCH  23  26
HETATM   26  C   UNK N   1      37.131  12.134  13.262  0.00  0.00     0.035 C 
BRANCH  26  27
HETATM   27  C   UNK N   1      35.895  11.984  14.162  0.00  0.00    -0.004 A 
HETATM   28  C   UNK N   1      35.526  13.268  14.931  0.00  0.00     0.044 A 
HETATM   29  C   UNK N   1      35.452  12.791  16.324  0.00  0.00    -0.051 A 
HETATM   30  C   UNK N   1      35.719  11.456  16.446  0.00  0.00    -0.051 A 
HETATM   31  C   UNK N   1      35.156  13.574  17.440  0.00  0.00     0.007 A 
HETATM   32  C   UNK N   1      36.021  10.811  15.156  0.00  0.00     0.044 A 
HETATM   33  C   UNK N   1      35.707  10.826  17.691  0.00  0.00     0.007 A 
HETATM   34  C   UNK N   1      35.411  11.592  18.829  0.00  0.00     0.001 A 
HETATM   35  C   UNK N   1      35.135  12.966  18.703  0.00  0.00     0.001 A 
ENDBRANCH  26  27
ENDBRANCH  23  26
ENDBRANCH  21  23
ENDBRANCH  20  21
ENDBRANCH   1  20
TORSDOF 13
ENDMDL
MODEL 9
REMARK VINA RESULT:      -7.2      5.822     12.823
REMARK  13 active torsions:
REMARK  status: ('A' for Active; 'I' for Inactive)
REMARK    1  A    between atoms: C_1  and  C_3 
REMARK    2  A    between atoms: C_1  and  C_2 
REMARK    3  A    between atoms: C_2  and  C_6 
REMARK    4  A    between atoms: C_3  and  O_4 
REMARK    5  A    between atoms: C_10  and  O_12 
REMARK    6  A    between atoms: O_12  and  C_13 
REMARK    7  A    between atoms: C_13  and  C_14 
REMARK    8  A    between atoms: C_14  and  O_17 
REMARK    9  A    between atoms: C_14  and  C_15 
REMARK   10  A    between atoms: C_15  and  N_16 
REMARK   11  A    between atoms: N_16  and  C_18 
REMARK   12  A    between atoms: C_18  and  C_19 
REMARK   13  A    between atoms: C_19  and  C_22 
ROOT
HETATM    1  C   UNK N   1      28.233  18.498   7.600  0.00  0.00     0.159 C 
ENDROOT
BRANCH   1   2
HETATM    2  O   UNK N   1      27.449  18.740   8.727  0.00  0.00    -0.392 OA
HETATM    3  H   UNK N   1      26.908  18.033   9.111  0.00  0.00     0.210 HD
ENDBRANCH   1   2
BRANCH   1   4
HETATM    4  C   UNK N   1      29.236  17.384   7.918  0.00  0.00     0.209 C 
BRANCH   4   5
HETATM    5  O   UNK N   1      29.670  16.738   6.774  0.00  0.00    -0.345 OA
BRANCH   5   6
HETATM    6  C   UNK N   1      30.874  16.953   6.183  0.00  0.00     0.111 A 
HETATM    7  C   UNK N   1      30.939  17.111   4.791  0.00  0.00     0.188 A 
HETATM    8  C   UNK N   1      32.170  17.349   4.167  0.00  0.00     0.158 A 
HETATM    9  F   UNK N   1      29.807  17.045   4.044  0.00  0.00    -0.200 F 
HETATM   10  C   UNK N   1      33.338  17.431   4.930  0.00  0.00     0.052 A 
HETATM   11  F   UNK N   1      32.233  17.512   2.823  0.00  0.00    -0.203 F 
HETATM   12  C   UNK N   1      33.283  17.271   6.316  0.00  0.00    -0.052 A 
HETATM   13  C   UNK N   1      32.055  17.034   6.940  0.00  0.00     0.047 A 
BRANCH  12  14
HETATM   14  C   UNK N   1      34.533  17.396   7.125  0.00  0.00     0.049 C 
BRANCH  14  15
HETATM   15  C   UNK N   1      34.263  17.815   8.567  0.00  0.00     0.114 C 
BRANCH  15  16
HETATM   16  C   UNK N   1      34.875  16.860   9.541  0.00  0.00     0.139 C 
HETATM   17  O   UNK N   1      35.255  15.765   9.161  0.00  0.00    -0.650 OA
BRANCH  16  18
HETATM   18  O   UNK N   1      34.993  17.198  10.838  0.00  0.00    -0.776 OA
HETATM   19  H   UNK N   1      35.255  16.581  11.493  0.00  0.00     0.167 HD
ENDBRANCH  16  18
ENDBRANCH  15  16
ENDBRANCH  14  15
ENDBRANCH  12  14
ENDBRANCH   5   6
ENDBRANCH   4   5
ENDBRANCH   1   4
BRANCH   1  20
HETATM   20  C   UNK N   1      27.322  18.162   6.425  0.00  0.00     0.148 C 
BRANCH  20  21
HETATM   21  N   UNK N   1      27.695  18.942   5.244  0.00  0.00    -0.411 N 
HETATM   22  H   UNK N   1      28.636  18.974   4.852  0.00  0.00     0.154 HD
BRANCH  21  23
HETATM   23  C   UNK N   1      26.547  19.669   4.695  0.00  0.00     0.018 C 
HETATM   24  C   UNK N   1      26.130  20.743   5.687  0.00  0.00     0.037 C 
HETATM   25  C   UNK N   1      27.016  20.355   3.425  0.00  0.00     0.037 C 
BRANCH  23  26
HETATM   26  C   UNK N   1      25.393  18.689   4.347  0.00  0.00     0.035 C 
BRANCH  26  27
HETATM   27  C   UNK N   1      23.951  19.097   4.681  0.00  0.00    -0.004 A 
HETATM   28  C   UNK N   1      23.091  17.946   5.241  0.00  0.00     0.044 A 
HETATM   29  C   UNK N   1      21.912  17.974   4.357  0.00  0.00    -0.051 A 
HETATM   30  C   UNK N   1      21.982  18.951   3.404  0.00  0.00    -0.051 A 
HETATM   31  C   UNK N   1      20.817  17.113   4.431  0.00  0.00     0.007 A 
HETATM   32  C   UNK N   1      23.222  19.744   3.485  0.00  0.00     0.044 A 
HETATM   33  C   UNK N   1      20.962  19.125   2.469  0.00  0.00     0.007 A 
HETATM   34  C   UNK N   1      19.848  18.272   2.523  0.00  0.00     0.001 A 
HETATM   35  C   UNK N   1      19.776  17.267   3.504  0.00  0.00     0.001 A 
ENDBRANCH  26  27
ENDBRANCH  23  26
ENDBRANCH  21  23
ENDBRANCH  20  21
ENDBRANCH   1  20
TORSDOF 13
ENDMDL
