MODEL 1
REMARK VINA RESULT:      -9.2      0.000      0.000
REMARK  7 active torsions:
REMARK  status: ('A' for Active; 'I' for Inactive)
REMARK    1  A    between atoms: O_2  and  C_8 
REMARK    2  A    between atoms: O_2  and  C_13 
REMARK    3  A    between atoms: C_20  and  O_43 
REMARK    4  A    between atoms: C_24  and  O_33 
REMARK    5  A    between atoms: C_25  and  O_34 
REMARK    6  A    between atoms: C_45  and  O_50 
REMARK    7  A    between atoms: C_46  and  O_51 
ROOT
HETATM    1  O   UNK N   1      23.121  10.462   7.242  0.00  0.00    -0.322 OA
HETATM    2  O   UNK N   1      24.706   9.135   6.464  0.00  0.00    -0.322 OA
HETATM    3  C   UNK N   1      24.122  12.681   4.452  0.00  0.00     0.004 A 
HETATM    4  C   UNK N   1      23.431  12.263   5.622  0.00  0.00     0.013 A 
HETATM    5  C   UNK N   1      23.716  11.043   6.193  0.00  0.00     0.114 A 
HETATM    6  C   UNK N   1      25.197  11.854   3.970  0.00  0.00     0.096 A 
HETATM    7  C   UNK N   1      24.669  10.249   5.732  0.00  0.00     0.114 A 
HETATM    8  C   UNK N   1      25.470  10.606   4.639  0.00  0.00     0.009 A 
HETATM    9  C   UNK N   1      23.713   9.216   7.449  0.00  0.00     0.352 A 
HETATM   10  C   UNK N   1      26.499   9.625   4.203  0.00  0.00     0.054 C 
HETATM   11  C   UNK N   1      23.626  13.986   3.721  0.00  0.00     0.108 C 
HETATM   12  C   UNK N   1      22.434  13.143   6.234  0.00  0.00     0.143 C 
HETATM   13  N   UNK N   1      21.678  13.736   5.098  0.00  0.00    -0.367 N 
HETATM   14  C   UNK N   1      22.403  14.754   4.390  0.00  0.00     0.139 C 
HETATM   15  C   UNK N   1      22.018  16.110   5.135  0.00  0.00     0.283 C 
HETATM   16  C   UNK N   1      20.206  13.841   4.968  0.00  0.00     0.250 C 
HETATM   17  C   UNK N   1      19.763  15.333   4.939  0.00  0.00     0.275 C 
HETATM   18  N   UNK N   1      20.690  16.080   5.793  0.00  0.00     0.104 N 
HETATM   19  C   UNK N   1      29.466  16.657   3.714  0.00  0.00     0.047 A 
HETATM   20  C   UNK N   1      30.202  15.503   3.981  0.00  0.00     0.099 A 
HETATM   21  C   UNK N   1      29.590  14.420   4.668  0.00  0.00     0.101 A 
HETATM   22  C   UNK N   1      28.241  14.526   5.048  0.00  0.00     0.050 A 
HETATM   23  C   UNK N   1      27.500  15.685   4.777  0.00  0.00    -0.011 A 
HETATM   24  C   UNK N   1      28.136  16.749   4.114  0.00  0.00    -0.044 A 
HETATM   25  C   UNK N   1      27.384  18.021   3.945  0.00  0.00     0.058 C 
HETATM   26  C   UNK N   1      26.068  15.937   5.285  0.00  0.00     0.151 C 
HETATM   27  N   UNK N   1      26.148  17.200   6.045  0.00  0.00    -0.400 N 
HETATM   28  C   UNK N   1      26.696  18.366   5.286  0.00  0.00     0.120 C 
HETATM   29  C   UNK N   1      23.248  14.092   7.250  0.00  0.00     0.208 C 
HETATM   30  O   UNK N   1      24.179  15.044   6.762  0.00  0.00    -0.317 OA
HETATM   31  S   UNK N   1      24.892  14.954   2.808  0.00  0.00    -0.154 SA
HETATM   32  C   UNK N   1      25.136  16.220   4.084  0.00  0.00     0.121 C 
HETATM   33  C   UNK N   1      25.427  14.843   6.208  0.00  0.00     0.292 C 
HETATM   34  C   UNK N   1      20.705  15.641   7.184  0.00  0.00     0.311 C 
HETATM   35  O   UNK N   1      26.022  13.801   6.437  0.00  0.00    -0.262 OA
HETATM   36  C   UNK N   1      20.747  17.172   3.359  0.00  0.00    -0.044 A 
HETATM   37  C   UNK N   1      22.437  19.447   3.439  0.00  0.00     0.107 A 
HETATM   38  C   UNK N   1      22.680  18.346   4.284  0.00  0.00     0.108 A 
HETATM   39  C   UNK N   1      20.492  18.264   2.523  0.00  0.00     0.017 A 
HETATM   40  C   UNK N   1      21.343  19.388   2.550  0.00  0.00    -0.025 A 
HETATM   41  C   UNK N   1      21.047  20.541   1.656  0.00  0.00     0.051 C 
HETATM   42  C   UNK N   1      21.855  17.224   4.206  0.00  0.00     0.019 A 
HETATM   43  C   UNK N   1      19.779  15.978   3.487  0.00  0.00     0.079 C 
HETATM   44  H   UNK N   1      25.850  17.273   7.018  0.00  0.00     0.154 HD
ENDROOT
BRANCH  21  45
HETATM   45  O   UNK N   1      30.252  13.282   5.005  0.00  0.00    -0.353 OA
HETATM   46  C   UNK N   1      30.276  12.125   4.263  0.00  0.00     0.210 C 
ENDBRANCH  21  45
BRANCH  20  47
HETATM   47  O   UNK N   1      31.488  15.455   3.594  0.00  0.00    -0.358 OA
HETATM   48  H   UNK N   1      31.835  14.704   3.153  0.00  0.00     0.217 HD
ENDBRANCH  20  47
BRANCH   6  49
HETATM   49  O   UNK N   1      25.879  12.303   2.876  0.00  0.00    -0.278 OA
BRANCH  49  50
HETATM   50  C   UNK N   1      25.999  11.877   1.587  0.00  0.00     0.260 C 
HETATM   51  O   UNK N   1      27.114  11.608   1.171  0.00  0.00    -0.265 OA
HETATM   52  C   UNK N   1      24.840  11.586   0.695  0.00  0.00     0.126 C 
ENDBRANCH  49  50
ENDBRANCH   6  49
BRANCH  16  53
HETATM   53  O   UNK N   1      19.573  13.149   6.002  0.00  0.00    -0.375 OA
HETATM   54  H   UNK N   1      19.929  12.587   6.707  0.00  0.00     0.212 HD
ENDBRANCH  16  53
BRANCH  38  55
HETATM   55  O   UNK N   1      23.664  18.371   5.198  0.00  0.00    -0.357 OA
HETATM   56  H   UNK N   1      24.539  18.688   5.315  0.00  0.00     0.217 HD
ENDBRANCH  38  55
BRANCH  37  57
HETATM   57  O   UNK N   1      23.207  20.573   3.463  0.00  0.00    -0.353 OA
HETATM   58  C   UNK N   1      24.475  20.692   2.935  0.00  0.00     0.210 C 
ENDBRANCH  37  57
TORSDOF 7
ENDMDL
MODEL 2
REMARK VINA RESULT:      -7.9      2.020      6.600
REMARK  7 active torsions:
REMARK  status: ('A' for Active; 'I' for Inactive)
REMARK    1  A    between atoms: O_2  and  C_8 
REMARK    2  A    between atoms: O_2  and  C_13 
REMARK    3  A    between atoms: C_20  and  O_43 
REMARK    4  A    between atoms: C_24  and  O_33 
REMARK    5  A    between atoms: C_25  and  O_34 
REMARK    6  A    between atoms: C_45  and  O_50 
REMARK    7  A    between atoms: C_46  and  O_51 
ROOT
HETATM    1  O   UNK N   1      27.217   9.834   3.819  0.00  0.00    -0.322 OA
HETATM    2  O   UNK N   1      25.793   8.482   4.829  0.00  0.00    -0.322 OA
HETATM    3  C   UNK N   1      25.436  12.497   5.677  0.00  0.00     0.004 A 
HETATM    4  C   UNK N   1      26.357  11.916   4.762  0.00  0.00     0.013 A 
HETATM    5  C   UNK N   1      26.380  10.553   4.577  0.00  0.00     0.114 A 
HETATM    6  C   UNK N   1      24.464  11.634   6.295  0.00  0.00     0.096 A 
HETATM    7  C   UNK N   1      25.523   9.741   5.177  0.00  0.00     0.114 A 
HETATM    8  C   UNK N   1      24.517  10.218   6.028  0.00  0.00     0.009 A 
HETATM    9  C   UNK N   1      26.891   8.486   3.960  0.00  0.00     0.352 A 
HETATM   10  C   UNK N   1      23.624   9.208   6.655  0.00  0.00     0.054 C 
HETATM   11  C   UNK N   1      25.580  14.031   6.006  0.00  0.00     0.108 C 
HETATM   12  C   UNK N   1      27.263  12.775   3.997  0.00  0.00     0.143 C 
HETATM   13  N   UNK N   1      27.725  13.816   4.954  0.00  0.00    -0.367 N 
HETATM   14  C   UNK N   1      26.735  14.816   5.242  0.00  0.00     0.139 C 
HETATM   15  C   UNK N   1      26.982  15.950   4.148  0.00  0.00     0.283 C 
HETATM   16  C   UNK N   1      29.119  14.265   5.175  0.00  0.00     0.250 C 
HETATM   17  C   UNK N   1      29.284  15.761   4.777  0.00  0.00     0.275 C 
HETATM   18  N   UNK N   1      28.378  16.015   3.653  0.00  0.00     0.104 N 
HETATM   19  C   UNK N   1      19.427  15.282   4.660  0.00  0.00     0.047 A 
HETATM   20  C   UNK N   1      18.954  13.972   4.703  0.00  0.00     0.099 A 
HETATM   21  C   UNK N   1      19.843  12.893   4.445  0.00  0.00     0.101 A 
HETATM   22  C   UNK N   1      21.193  13.170   4.172  0.00  0.00     0.050 A 
HETATM   23  C   UNK N   1      21.669  14.488   4.132  0.00  0.00    -0.011 A 
HETATM   24  C   UNK N   1      20.765  15.537   4.371  0.00  0.00    -0.044 A 
HETATM   25  C   UNK N   1      21.247  16.934   4.201  0.00  0.00     0.058 C 
HETATM   26  C   UNK N   1      23.094  14.882   3.701  0.00  0.00     0.151 C 
HETATM   27  N   UNK N   1      22.908  15.826   2.580  0.00  0.00    -0.400 N 
HETATM   28  C   UNK N   1      22.056  17.016   2.886  0.00  0.00     0.120 C 
HETATM   29  C   UNK N   1      26.457  13.195   2.668  0.00  0.00     0.208 C 
HETATM   30  O   UNK N   1      25.310  14.026   2.749  0.00  0.00    -0.317 OA
HETATM   31  S   UNK N   1      24.041  14.928   6.454  0.00  0.00    -0.154 SA
HETATM   32  C   UNK N   1      23.772  15.690   4.831  0.00  0.00     0.121 C 
HETATM   33  C   UNK N   1      24.048  13.731   3.226  0.00  0.00     0.292 C 
HETATM   34  C   UNK N   1      28.649  15.201   2.473  0.00  0.00     0.311 C 
HETATM   35  O   UNK N   1      23.687  12.566   3.281  0.00  0.00    -0.262 OA
HETATM   36  C   UNK N   1      27.767  17.724   5.610  0.00  0.00    -0.044 A 
HETATM   37  C   UNK N   1      25.734  19.464   4.674  0.00  0.00     0.107 A 
HETATM   38  C   UNK N   1      25.818  18.141   4.197  0.00  0.00     0.108 A 
HETATM   39  C   UNK N   1      27.698  19.038   6.082  0.00  0.00     0.017 A 
HETATM   40  C   UNK N   1      26.676  19.898   5.631  0.00  0.00    -0.025 A 
HETATM   41  C   UNK N   1      26.628  21.295   6.143  0.00  0.00     0.051 C 
HETATM   42  C   UNK N   1      26.806  17.291   4.694  0.00  0.00     0.019 A 
HETATM   43  C   UNK N   1      28.938  16.778   5.947  0.00  0.00     0.079 C 
HETATM   44  H   UNK N   1      23.330  15.677   1.664  0.00  0.00     0.154 HD
ENDROOT
BRANCH  21  45
HETATM   45  O   UNK N   1      19.448  11.593   4.422  0.00  0.00    -0.353 OA
HETATM   46  C   UNK N   1      19.918  10.604   5.255  0.00  0.00     0.210 C 
ENDBRANCH  21  45
BRANCH  20  47
HETATM   47  O   UNK N   1      17.653  13.764   4.969  0.00  0.00    -0.358 OA
HETATM   48  H   UNK N   1      17.300  13.927   5.822  0.00  0.00     0.217 HD
ENDBRANCH  20  47
BRANCH   6  49
HETATM   49  O   UNK N   1      23.558  12.223   7.130  0.00  0.00    -0.278 OA
BRANCH  49  50
HETATM   50  C   UNK N   1      23.348  12.200   8.476  0.00  0.00     0.260 C 
HETATM   51  O   UNK N   1      22.221  11.959   8.879  0.00  0.00    -0.265 OA
HETATM   52  C   UNK N   1      24.434  12.314   9.491  0.00  0.00     0.126 C 
ENDBRANCH  49  50
ENDBRANCH   6  49
BRANCH  16  53
HETATM   53  O   UNK N   1      30.011  13.456   4.469  0.00  0.00    -0.375 OA
HETATM   54  H   UNK N   1      30.857  13.658   4.041  0.00  0.00     0.212 HD
ENDBRANCH  16  53
BRANCH  38  55
HETATM   55  O   UNK N   1      24.992  17.692   3.237  0.00  0.00    -0.357 OA
HETATM   56  H   UNK N   1      24.547  17.985   2.466  0.00  0.00     0.217 HD
ENDBRANCH  38  55
BRANCH  37  57
HETATM   57  O   UNK N   1      24.790  20.345   4.232  0.00  0.00    -0.353 OA
HETATM   58  C   UNK N   1      24.582  20.708   2.918  0.00  0.00     0.210 C 
ENDBRANCH  37  57
TORSDOF 7
ENDMDL
MODEL 3
REMARK VINA RESULT:      -7.8      2.348      6.910
REMARK  7 active torsions:
REMARK  status: ('A' for Active; 'I' for Inactive)
REMARK    1  A    between atoms: O_2  and  C_8 
REMARK    2  A    between atoms: O_2  and  C_13 
REMARK    3  A    between atoms: C_20  and  O_43 
REMARK    4  A    between atoms: C_24  and  O_33 
REMARK    5  A    between atoms: C_25  and  O_34 
REMARK    6  A    between atoms: C_45  and  O_50 
REMARK    7  A    between atoms: C_46  and  O_51 
ROOT
HETATM    1  O   UNK N   1      24.930  10.438   1.071  0.00  0.00    -0.322 OA
HETATM    2  O   UNK N   1      23.182   9.274   1.754  0.00  0.00    -0.322 OA
HETATM    3  C   UNK N   1      24.481  12.280   4.252  0.00  0.00     0.004 A 
HETATM    4  C   UNK N   1      25.026  11.961   2.977  0.00  0.00     0.013 A 
HETATM    5  C   UNK N   1      24.503  10.921   2.244  0.00  0.00     0.114 A 
HETATM    6  C   UNK N   1      23.305  11.569   4.681  0.00  0.00     0.096 A 
HETATM    7  C   UNK N   1      23.451  10.225   2.649  0.00  0.00     0.114 A 
HETATM    8  C   UNK N   1      22.784  10.515   3.847  0.00  0.00     0.009 A 
HETATM    9  C   UNK N   1      24.120   9.360   0.717  0.00  0.00     0.352 A 
HETATM   10  C   UNK N   1      21.624   9.654   4.202  0.00  0.00     0.054 C 
HETATM   11  C   UNK N   1      25.235  13.341   5.140  0.00  0.00     0.108 C 
HETATM   12  C   UNK N   1      26.126  12.759   2.435  0.00  0.00     0.143 C 
HETATM   13  N   UNK N   1      27.033  13.017   3.586  0.00  0.00    -0.367 N 
HETATM   14  C   UNK N   1      26.536  14.003   4.505  0.00  0.00     0.139 C 
HETATM   15  C   UNK N   1      27.111  15.386   3.957  0.00  0.00     0.283 C 
HETATM   16  C   UNK N   1      28.506  12.857   3.611  0.00  0.00     0.250 C 
HETATM   17  C   UNK N   1      29.204  14.229   3.842  0.00  0.00     0.275 C 
HETATM   18  N   UNK N   1      28.377  15.253   3.197  0.00  0.00     0.104 N 
HETATM   19  C   UNK N   1      19.959  16.887   6.049  0.00  0.00     0.047 A 
HETATM   20  C   UNK N   1      19.020  15.931   5.662  0.00  0.00     0.099 A 
HETATM   21  C   UNK N   1      19.397  14.897   4.764  0.00  0.00     0.101 A 
HETATM   22  C   UNK N   1      20.721  14.845   4.297  0.00  0.00     0.050 A 
HETATM   23  C   UNK N   1      21.666  15.805   4.688  0.00  0.00    -0.011 A 
HETATM   24  C   UNK N   1      21.262  16.828   5.562  0.00  0.00    -0.044 A 
HETATM   25  C   UNK N   1      22.231  17.913   5.870  0.00  0.00     0.058 C 
HETATM   26  C   UNK N   1      23.091  15.903   4.112  0.00  0.00     0.151 C 
HETATM   27  N   UNK N   1      23.192  17.274   3.573  0.00  0.00    -0.400 N 
HETATM   28  C   UNK N   1      22.897  18.366   4.550  0.00  0.00     0.120 C 
HETATM   29  C   UNK N   1      25.438  13.988   1.654  0.00  0.00     0.208 C 
HETATM   30  O   UNK N   1      24.714  14.981   2.362  0.00  0.00    -0.317 OA
HETATM   31  S   UNK N   1      24.207  14.332   6.295  0.00  0.00    -0.154 SA
HETATM   32  C   UNK N   1      24.120  15.820   5.263  0.00  0.00     0.121 C 
HETATM   33  C   UNK N   1      23.481  14.894   2.977  0.00  0.00     0.292 C 
HETATM   34  C   UNK N   1      28.212  15.067   1.759  0.00  0.00     0.311 C 
HETATM   35  O   UNK N   1      22.703  14.018   2.633  0.00  0.00    -0.262 OA
HETATM   36  C   UNK N   1      28.641  15.905   5.771  0.00  0.00    -0.044 A 
HETATM   37  C   UNK N   1      27.371  18.405   6.193  0.00  0.00     0.107 A 
HETATM   38  C   UNK N   1      26.895  17.520   5.206  0.00  0.00     0.108 A 
HETATM   39  C   UNK N   1      29.126  16.782   6.746  0.00  0.00     0.017 A 
HETATM   40  C   UNK N   1      28.484  18.017   6.970  0.00  0.00    -0.025 A 
HETATM   41  C   UNK N   1      29.023  18.935   8.009  0.00  0.00     0.051 C 
HETATM   42  C   UNK N   1      27.514  16.281   5.036  0.00  0.00     0.019 A 
HETATM   43  C   UNK N   1      29.378  14.610   5.374  0.00  0.00     0.079 C 
HETATM   44  H   UNK N   1      23.446  17.463   2.603  0.00  0.00     0.154 HD
ENDROOT
BRANCH  21  45
HETATM   45  O   UNK N   1      18.529  13.958   4.304  0.00  0.00    -0.353 OA
HETATM   46  C   UNK N   1      18.814  12.622   4.142  0.00  0.00     0.210 C 
ENDBRANCH  21  45
BRANCH  20  47
HETATM   47  O   UNK N   1      17.767  16.028   6.140  0.00  0.00    -0.358 OA
HETATM   48  H   UNK N   1      17.127  16.568   5.718  0.00  0.00     0.217 HD
ENDBRANCH  20  47
BRANCH   6  49
HETATM   49  O   UNK N   1      22.772  11.928   5.885  0.00  0.00    -0.278 OA
BRANCH  49  50
HETATM   50  C   UNK N   1      22.814  11.402   7.142  0.00  0.00     0.260 C 
HETATM   51  O   UNK N   1      22.020  11.821   7.969  0.00  0.00    -0.265 OA
HETATM   52  C   UNK N   1      23.676  10.250   7.533  0.00  0.00     0.126 C 
ENDBRANCH  49  50
ENDBRANCH   6  49
BRANCH  16  53
HETATM   53  O   UNK N   1      28.953  12.258   2.432  0.00  0.00    -0.375 OA
HETATM   54  H   UNK N   1      29.289  12.642   1.607  0.00  0.00     0.212 HD
ENDBRANCH  16  53
BRANCH  38  55
HETATM   55  O   UNK N   1      25.883  17.861   4.391  0.00  0.00    -0.357 OA
HETATM   56  H   UNK N   1      25.013  17.597   4.164  0.00  0.00     0.217 HD
ENDBRANCH  38  55
BRANCH  37  57
HETATM   57  O   UNK N   1      26.809  19.629   6.412  0.00  0.00    -0.353 OA
HETATM   58  C   UNK N   1      27.052  20.769   5.677  0.00  0.00     0.210 C 
ENDBRANCH  37  57
TORSDOF 7
ENDMDL
MODEL 4
REMARK VINA RESULT:      -7.8      7.339     11.687
REMARK  7 active torsions:
REMARK  status: ('A' for Active; 'I' for Inactive)
REMARK    1  A    between atoms: O_2  and  C_8 
REMARK    2  A    between atoms: O_2  and  C_13 
REMARK    3  A    between atoms: C_20  and  O_43 
REMARK    4  A    between atoms: C_24  and  O_33 
REMARK    5  A    between atoms: C_25  and  O_34 
REMARK    6  A    between atoms: C_45  and  O_50 
REMARK    7  A    between atoms: C_46  and  O_51 
ROOT
HETATM    1  O   UNK N   1      35.749   9.351  11.157  0.00  0.00    -0.322 OA
HETATM    2  O   UNK N   1      37.385  10.624  11.918  0.00  0.00    -0.322 OA
HETATM    3  C   UNK N   1      35.961  11.509   8.156  0.00  0.00     0.004 A 
HETATM    4  C   UNK N   1      35.463  10.495   9.019  0.00  0.00     0.013 A 
HETATM    5  C   UNK N   1      36.038  10.295  10.254  0.00  0.00     0.114 A 
HETATM    6  C   UNK N   1      36.986  12.384   8.663  0.00  0.00     0.096 A 
HETATM    7  C   UNK N   1      37.015  11.061  10.714  0.00  0.00     0.114 A 
HETATM    8  C   UNK N   1      37.519  12.144   9.982  0.00  0.00     0.009 A 
HETATM    9  C   UNK N   1      36.605   9.508  12.247  0.00  0.00     0.352 A 
HETATM   10  C   UNK N   1      38.626  12.922  10.598  0.00  0.00     0.054 C 
HETATM   11  C   UNK N   1      35.410  11.570   6.681  0.00  0.00     0.108 C 
HETATM   12  C   UNK N   1      34.320   9.681   8.602  0.00  0.00     0.143 C 
HETATM   13  N   UNK N   1      34.549   9.384   7.163  0.00  0.00    -0.367 N 
HETATM   14  C   UNK N   1      34.296  10.500   6.295  0.00  0.00     0.139 C 
HETATM   15  C   UNK N   1      32.756  10.364   5.906  0.00  0.00     0.283 C 
HETATM   16  C   UNK N   1      34.436   8.065   6.498  0.00  0.00     0.250 C 
HETATM   17  C   UNK N   1      33.291   8.078   5.443  0.00  0.00     0.275 C 
HETATM   18  N   UNK N   1      32.245   8.973   5.946  0.00  0.00     0.104 N 
HETATM   19  C   UNK N   1      33.861  17.788   7.116  0.00  0.00     0.047 A 
HETATM   20  C   UNK N   1      34.620  18.093   8.245  0.00  0.00     0.099 A 
HETATM   21  C   UNK N   1      34.944  17.068   9.174  0.00  0.00     0.101 A 
HETATM   22  C   UNK N   1      34.509  15.755   8.924  0.00  0.00     0.050 A 
HETATM   23  C   UNK N   1      33.748  15.448   7.787  0.00  0.00    -0.011 A 
HETATM   24  C   UNK N   1      33.425  16.484   6.895  0.00  0.00    -0.044 A 
HETATM   25  C   UNK N   1      32.512  16.177   5.762  0.00  0.00     0.058 C 
HETATM   26  C   UNK N   1      33.114  14.071   7.515  0.00  0.00     0.151 C 
HETATM   27  N   UNK N   1      31.671  14.340   7.352  0.00  0.00    -0.400 N 
HETATM   28  C   UNK N   1      31.326  15.343   6.299  0.00  0.00     0.120 C 
HETATM   29  C   UNK N   1      33.008  10.492   9.065  0.00  0.00     0.208 C 
HETATM   30  O   UNK N   1      32.679  11.737   8.469  0.00  0.00    -0.317 OA
HETATM   31  S   UNK N   1      35.371  13.223   5.881  0.00  0.00    -0.154 SA
HETATM   32  C   UNK N   1      33.605  13.536   6.150  0.00  0.00     0.121 C 
HETATM   33  C   UNK N   1      33.291  12.965   8.613  0.00  0.00     0.292 C 
HETATM   34  C   UNK N   1      31.676   8.566   7.226  0.00  0.00     0.311 C 
HETATM   35  O   UNK N   1      33.978  13.178   9.600  0.00  0.00    -0.262 OA
HETATM   36  C   UNK N   1      33.004   9.855   3.544  0.00  0.00    -0.044 A 
HETATM   37  C   UNK N   1      31.366  12.061   2.844  0.00  0.00     0.107 A 
HETATM   38  C   UNK N   1      31.670  11.796   4.194  0.00  0.00     0.108 A 
HETATM   39  C   UNK N   1      32.700  10.103   2.202  0.00  0.00     0.017 A 
HETATM   40  C   UNK N   1      31.901  11.211   1.852  0.00  0.00    -0.025 A 
HETATM   41  C   UNK N   1      31.585  11.451   0.418  0.00  0.00     0.051 C 
HETATM   42  C   UNK N   1      32.504  10.725   4.515  0.00  0.00     0.019 A 
HETATM   43  C   UNK N   1      33.746   8.585   4.009  0.00  0.00     0.079 C 
HETATM   44  H   UNK N   1      30.961  13.874   7.917  0.00  0.00     0.154 HD
ENDROOT
BRANCH  21  45
HETATM   45  O   UNK N   1      35.638  17.294  10.321  0.00  0.00    -0.353 OA
HETATM   46  C   UNK N   1      35.747  16.413  11.372  0.00  0.00     0.210 C 
ENDBRANCH  21  45
BRANCH  20  47
HETATM   47  O   UNK N   1      35.010  19.365   8.435  0.00  0.00    -0.358 OA
HETATM   48  H   UNK N   1      34.734  20.049   7.856  0.00  0.00     0.217 HD
ENDBRANCH  20  47
BRANCH   6  49
HETATM   49  O   UNK N   1      37.411  13.382   7.835  0.00  0.00    -0.278 OA
BRANCH  49  50
HETATM   50  C   UNK N   1      38.559  13.619   7.139  0.00  0.00     0.260 C 
HETATM   51  O   UNK N   1      39.342  14.444   7.583  0.00  0.00    -0.265 OA
HETATM   52  C   UNK N   1      38.985  12.835   5.945  0.00  0.00     0.126 C 
ENDBRANCH  49  50
ENDBRANCH   6  49
BRANCH  16  53
HETATM   53  O   UNK N   1      34.238   7.056   7.443  0.00  0.00    -0.375 OA
HETATM   54  H   UNK N   1      34.065   6.108   7.339  0.00  0.00     0.212 HD
ENDBRANCH  16  53
BRANCH  38  55
HETATM   55  O   UNK N   1      31.137  12.529   5.186  0.00  0.00    -0.357 OA
HETATM   56  H   UNK N   1      30.345  12.977   5.413  0.00  0.00     0.217 HD
ENDBRANCH  38  55
BRANCH  37  57
HETATM   57  O   UNK N   1      30.560  13.094   2.463  0.00  0.00    -0.353 OA
HETATM   58  C   UNK N   1      29.182  13.089   2.485  0.00  0.00     0.210 C 
ENDBRANCH  37  57
TORSDOF 7
ENDMDL
MODEL 5
REMARK VINA RESULT:      -7.7     10.853     15.355
REMARK  7 active torsions:
REMARK  status: ('A' for Active; 'I' for Inactive)
REMARK    1  A    between atoms: O_2  and  C_8 
REMARK    2  A    between atoms: O_2  and  C_13 
REMARK    3  A    between atoms: C_20  and  O_43 
REMARK    4  A    between atoms: C_24  and  O_33 
REMARK    5  A    between atoms: C_25  and  O_34 
REMARK    6  A    between atoms: C_45  and  O_50 
REMARK    7  A    between atoms: C_46  and  O_51 
ROOT
HETATM    1  O   UNK N   1      37.739   5.749   9.994  0.00  0.00    -0.322 OA
HETATM    2  O   UNK N   1      36.294   5.451   8.351  0.00  0.00    -0.322 OA
HETATM    3  C   UNK N   1      35.272   8.222  11.222  0.00  0.00     0.004 A 
HETATM    4  C   UNK N   1      36.486   7.482  11.171  0.00  0.00     0.013 A 
HETATM    5  C   UNK N   1      36.700   6.575  10.158  0.00  0.00     0.114 A 
HETATM    6  C   UNK N   1      34.350   8.082  10.126  0.00  0.00     0.096 A 
HETATM    7  C   UNK N   1      35.837   6.400   9.169  0.00  0.00     0.114 A 
HETATM    8  C   UNK N   1      34.652   7.142   9.074  0.00  0.00     0.009 A 
HETATM    9  C   UNK N   1      37.518   4.986   8.847  0.00  0.00     0.352 A 
HETATM   10  C   UNK N   1      33.756   6.845   7.926  0.00  0.00     0.054 C 
HETATM   11  C   UNK N   1      34.985   9.095  12.502  0.00  0.00     0.108 C 
HETATM   12  C   UNK N   1      37.518   7.706  12.184  0.00  0.00     0.143 C 
HETATM   13  N   UNK N   1      36.787   7.843  13.472  0.00  0.00    -0.367 N 
HETATM   14  C   UNK N   1      36.115   9.104  13.624  0.00  0.00     0.139 C 
HETATM   15  C   UNK N   1      37.190  10.049  14.326  0.00  0.00     0.283 C 
HETATM   16  C   UNK N   1      37.108   7.173  14.754  0.00  0.00     0.250 C 
HETATM   17  C   UNK N   1      37.501   8.220  15.838  0.00  0.00     0.275 C 
HETATM   18  N   UNK N   1      38.182   9.322  15.152  0.00  0.00     0.104 N 
HETATM   19  C   UNK N   1      33.827  14.405   9.081  0.00  0.00     0.047 A 
HETATM   20  C   UNK N   1      33.639  13.795   7.842  0.00  0.00     0.099 A 
HETATM   21  C   UNK N   1      34.246  12.537   7.577  0.00  0.00     0.101 A 
HETATM   22  C   UNK N   1      35.010  11.921   8.582  0.00  0.00     0.050 A 
HETATM   23  C   UNK N   1      35.197  12.534   9.829  0.00  0.00    -0.011 A 
HETATM   24  C   UNK N   1      34.602  13.786  10.059  0.00  0.00    -0.044 A 
HETATM   25  C   UNK N   1      34.909  14.488  11.333  0.00  0.00     0.058 C 
HETATM   26  C   UNK N   1      36.134  11.997  10.928  0.00  0.00     0.151 C 
HETATM   27  N   UNK N   1      37.072  13.103  11.206  0.00  0.00    -0.400 N 
HETATM   28  C   UNK N   1      36.432  14.399  11.588  0.00  0.00     0.120 C 
HETATM   29  C   UNK N   1      38.423   8.918  11.632  0.00  0.00     0.208 C 
HETATM   30  O   UNK N   1      37.886  10.225  11.508  0.00  0.00    -0.317 OA
HETATM   31  S   UNK N   1      33.956  10.598  12.263  0.00  0.00    -0.154 SA
HETATM   32  C   UNK N   1      35.331  11.780  12.231  0.00  0.00     0.121 C 
HETATM   33  C   UNK N   1      36.968  10.711  10.598  0.00  0.00     0.292 C 
HETATM   34  C   UNK N   1      39.396   8.925  14.447  0.00  0.00     0.311 C 
HETATM   35  O   UNK N   1      36.808  10.123   9.540  0.00  0.00    -0.262 OA
HETATM   36  C   UNK N   1      36.098  10.334  16.477  0.00  0.00    -0.044 A 
HETATM   37  C   UNK N   1      36.135  13.153  16.179  0.00  0.00     0.107 A 
HETATM   38  C   UNK N   1      36.641  12.321  15.161  0.00  0.00     0.108 A 
HETATM   39  C   UNK N   1      35.603  11.152  17.496  0.00  0.00     0.017 A 
HETATM   40  C   UNK N   1      35.604  12.554  17.341  0.00  0.00    -0.025 A 
HETATM   41  C   UNK N   1      35.077  13.404  18.443  0.00  0.00     0.051 C 
HETATM   42  C   UNK N   1      36.585  10.935  15.314  0.00  0.00     0.019 A 
HETATM   43  C   UNK N   1      36.262   8.809  16.638  0.00  0.00     0.079 C 
HETATM   44  H   UNK N   1      38.083  12.991  11.143  0.00  0.00     0.154 HD
ENDROOT
BRANCH  21  45
HETATM   45  O   UNK N   1      34.149  11.902   6.380  0.00  0.00    -0.353 OA
HETATM   46  C   UNK N   1      33.408  10.768   6.139  0.00  0.00     0.210 C 
ENDBRANCH  21  45
BRANCH  20  47
HETATM   47  O   UNK N   1      32.898  14.429   6.917  0.00  0.00    -0.358 OA
HETATM   48  H   UNK N   1      33.298  14.946   6.246  0.00  0.00     0.217 HD
ENDBRANCH  20  47
BRANCH   6  49
HETATM   49  O   UNK N   1      33.216   8.841  10.172  0.00  0.00    -0.278 OA
BRANCH  49  50
HETATM   50  C   UNK N   1      31.917   8.638   9.811  0.00  0.00     0.260 C 
HETATM   51  O   UNK N   1      31.414   9.412   9.014  0.00  0.00    -0.265 OA
HETATM   52  C   UNK N   1      31.115   7.450  10.222  0.00  0.00     0.126 C 
ENDBRANCH  49  50
ENDBRANCH   6  49
BRANCH  16  53
HETATM   53  O   UNK N   1      38.123   6.232  14.572  0.00  0.00    -0.375 OA
HETATM   54  H   UNK N   1      38.653   5.732  15.212  0.00  0.00     0.212 HD
ENDBRANCH  16  53
BRANCH  38  55
HETATM   55  O   UNK N   1      37.220  12.834  14.063  0.00  0.00    -0.357 OA
HETATM   56  H   UNK N   1      37.651  12.564  13.275  0.00  0.00     0.217 HD
ENDBRANCH  38  55
BRANCH  37  57
HETATM   57  O   UNK N   1      36.158  14.515  16.091  0.00  0.00    -0.353 OA
HETATM   58  C   UNK N   1      37.280  15.309  16.197  0.00  0.00     0.210 C 
ENDBRANCH  37  57
TORSDOF 7
ENDMDL
MODEL 6
REMARK VINA RESULT:      -7.7      7.078     12.245
REMARK  7 active torsions:
REMARK  status: ('A' for Active; 'I' for Inactive)
REMARK    1  A    between atoms: O_2  and  C_8 
REMARK    2  A    between atoms: O_2  and  C_13 
REMARK    3  A    between atoms: C_20  and  O_43 
REMARK    4  A    between atoms: C_24  and  O_33 
REMARK    5  A    between atoms: C_25  and  O_34 
REMARK    6  A    between atoms: C_45  and  O_50 
REMARK    7  A    between atoms: C_46  and  O_51 
ROOT
HETATM    1  O   UNK N   1      36.520  12.496  10.617  0.00  0.00    -0.322 OA
HETATM    2  O   UNK N   1      36.161  14.316  11.815  0.00  0.00    -0.322 OA
HETATM    3  C   UNK N   1      35.598  14.649   7.749  0.00  0.00     0.004 A 
HETATM    4  C   UNK N   1      35.953  13.462   8.447  0.00  0.00     0.013 A 
HETATM    5  C   UNK N   1      36.121  13.489   9.812  0.00  0.00     0.114 A 
HETATM    6  C   UNK N   1      35.302  15.826   8.523  0.00  0.00     0.096 A 
HETATM    7  C   UNK N   1      35.901  14.577  10.534  0.00  0.00     0.114 A 
HETATM    8  C   UNK N   1      35.460  15.776   9.956  0.00  0.00     0.009 A 
HETATM    9  C   UNK N   1      36.579  12.983  11.922  0.00  0.00     0.352 A 
HETATM   10  C   UNK N   1      35.261  16.934  10.867  0.00  0.00     0.054 C 
HETATM   11  C   UNK N   1      35.614  14.620   6.173  0.00  0.00     0.108 C 
HETATM   12  C   UNK N   1      36.115  12.206   7.713  0.00  0.00     0.143 C 
HETATM   13  N   UNK N   1      36.825  12.569   6.457  0.00  0.00    -0.367 N 
HETATM   14  C   UNK N   1      35.992  13.231   5.492  0.00  0.00     0.139 C 
HETATM   15  C   UNK N   1      35.384  12.050   4.610  0.00  0.00     0.283 C 
HETATM   16  C   UNK N   1      38.000  11.885   5.871  0.00  0.00     0.250 C 
HETATM   17  C   UNK N   1      37.641  11.262   4.490  0.00  0.00     0.275 C 
HETATM   18  N   UNK N   1      36.239  10.840   4.554  0.00  0.00     0.104 N 
HETATM   19  C   UNK N   1      29.627  16.894   5.695  0.00  0.00     0.047 A 
HETATM   20  C   UNK N   1      29.505  17.381   6.996  0.00  0.00     0.099 A 
HETATM   21  C   UNK N   1      30.287  16.813   8.037  0.00  0.00     0.101 A 
HETATM   22  C   UNK N   1      31.188  15.779   7.730  0.00  0.00     0.050 A 
HETATM   23  C   UNK N   1      31.312  15.290   6.421  0.00  0.00    -0.011 A 
HETATM   24  C   UNK N   1      30.513  15.857   5.414  0.00  0.00    -0.044 A 
HETATM   25  C   UNK N   1      30.555  15.250   4.057  0.00  0.00     0.058 C 
HETATM   26  C   UNK N   1      32.164  14.069   6.028  0.00  0.00     0.151 C 
HETATM   27  N   UNK N   1      31.224  13.142   5.369  0.00  0.00    -0.400 N 
HETATM   28  C   UNK N   1      30.479  13.712   4.205  0.00  0.00     0.120 C 
HETATM   29  C   UNK N   1      34.650  11.539   7.653  0.00  0.00     0.208 C 
HETATM   30  O   UNK N   1      33.607  12.148   6.910  0.00  0.00    -0.317 OA
HETATM   31  S   UNK N   1      34.440  15.741   5.314  0.00  0.00    -0.154 SA
HETATM   32  C   UNK N   1      33.189  14.481   4.946  0.00  0.00     0.121 C 
HETATM   33  C   UNK N   1      32.893  13.298   7.183  0.00  0.00     0.292 C 
HETATM   34  C   UNK N   1      35.962   9.845   5.584  0.00  0.00     0.311 C 
HETATM   35  O   UNK N   1      32.844  13.711   8.331  0.00  0.00    -0.262 OA
HETATM   36  C   UNK N   1      36.501  12.533   2.508  0.00  0.00    -0.044 A 
HETATM   37  C   UNK N   1      34.009  12.705   1.166  0.00  0.00     0.107 A 
HETATM   38  C   UNK N   1      34.059  12.455   2.552  0.00  0.00     0.108 A 
HETATM   39  C   UNK N   1      36.462  12.772   1.131  0.00  0.00     0.017 A 
HETATM   40  C   UNK N   1      35.223  12.876   0.466  0.00  0.00    -0.025 A 
HETATM   41  C   UNK N   1      35.208  13.123  -1.001  0.00  0.00     0.051 C 
HETATM   42  C   UNK N   1      35.293  12.406   3.198  0.00  0.00     0.019 A 
HETATM   43  C   UNK N   1      37.814  12.264   3.270  0.00  0.00     0.079 C 
HETATM   44  H   UNK N   1      31.093  12.180   5.683  0.00  0.00     0.154 HD
ENDROOT
BRANCH  21  45
HETATM   45  O   UNK N   1      30.192  17.200   9.336  0.00  0.00    -0.353 OA
HETATM   46  C   UNK N   1      29.159  16.882  10.187  0.00  0.00     0.210 C 
ENDBRANCH  21  45
BRANCH  20  47
HETATM   47  O   UNK N   1      28.629  18.372   7.233  0.00  0.00    -0.358 OA
HETATM   48  H   UNK N   1      28.075  18.704   6.553  0.00  0.00     0.217 HD
ENDBRANCH  20  47
BRANCH   6  49
HETATM   49  O   UNK N   1      34.914  16.938   7.834  0.00  0.00    -0.278 OA
BRANCH  49  50
HETATM   50  C   UNK N   1      34.508  18.189   8.192  0.00  0.00     0.260 C 
HETATM   51  O   UNK N   1      35.357  19.057   8.312  0.00  0.00    -0.265 OA
HETATM   52  C   UNK N   1      33.080  18.598   8.312  0.00  0.00     0.126 C 
ENDBRANCH  49  50
ENDBRANCH   6  49
BRANCH  16  53
HETATM   53  O   UNK N   1      38.489  10.915   6.748  0.00  0.00    -0.375 OA
HETATM   54  H   UNK N   1      38.156  10.598   7.602  0.00  0.00     0.212 HD
ENDBRANCH  16  53
BRANCH  38  55
HETATM   55  O   UNK N   1      32.941  12.217   3.258  0.00  0.00    -0.357 OA
HETATM   56  H   UNK N   1      32.237  12.671   3.679  0.00  0.00     0.217 HD
ENDBRANCH  38  55
BRANCH  37  57
HETATM   57  O   UNK N   1      32.835  12.768   0.474  0.00  0.00    -0.353 OA
HETATM   58  C   UNK N   1      32.113  11.687   0.015  0.00  0.00     0.210 C 
ENDBRANCH  37  57
TORSDOF 7
ENDMDL
MODEL 7
REMARK VINA RESULT:      -7.4      2.627      7.250
REMARK  7 active torsions:
REMARK  status: ('A' for Active; 'I' for Inactive)
REMARK    1  A    between atoms: O_2  and  C_8 
REMARK    2  A    between atoms: O_2  and  C_13 
REMARK    3  A    between atoms: C_20  and  O_43 
REMARK    4  A    between atoms: C_24  and  O_33 
REMARK    5  A    between atoms: C_25  and  O_34 
REMARK    6  A    between atoms: C_45  and  O_50 
REMARK    7  A    between atoms: C_46  and  O_51 
ROOT
HETATM    1  O   UNK N   1      28.672  11.374   0.631  0.00  0.00    -0.322 OA
HETATM    2  O   UNK N   1      26.917  10.037   0.528  0.00  0.00    -0.322 OA
HETATM    3  C   UNK N   1      26.991  12.743   3.632  0.00  0.00     0.004 A 
HETATM    4  C   UNK N   1      27.965  12.629   2.603  0.00  0.00     0.013 A 
HETATM    5  C   UNK N   1      27.826  11.670   1.625  0.00  0.00     0.114 A 
HETATM    6  C   UNK N   1      25.814  11.920   3.544  0.00  0.00     0.096 A 
HETATM    7  C   UNK N   1      26.772  10.872   1.558  0.00  0.00     0.114 A 
HETATM    8  C   UNK N   1      25.712  10.961   2.470  0.00  0.00     0.009 A 
HETATM    9  C   UNK N   1      28.139  10.312  -0.099  0.00  0.00     0.352 A 
HETATM   10  C   UNK N   1      24.589  10.001   2.302  0.00  0.00     0.054 C 
HETATM   11  C   UNK N   1      27.291  13.713   4.837  0.00  0.00     0.108 C 
HETATM   12  C   UNK N   1      29.102  13.550   2.570  0.00  0.00     0.143 C 
HETATM   13  N   UNK N   1      29.534  13.697   3.986  0.00  0.00    -0.367 N 
HETATM   14  C   UNK N   1      28.661  14.523   4.773  0.00  0.00     0.139 C 
HETATM   15  C   UNK N   1      29.252  15.995   4.614  0.00  0.00     0.283 C 
HETATM   16  C   UNK N   1      30.918  13.614   4.507  0.00  0.00     0.250 C 
HETATM   17  C   UNK N   1      31.359  14.978   5.115  0.00  0.00     0.275 C 
HETATM   18  N   UNK N   1      30.707  16.033   4.336  0.00  0.00     0.104 N 
HETATM   19  C   UNK N   1      21.705  16.820   4.220  0.00  0.00     0.047 A 
HETATM   20  C   UNK N   1      21.051  15.877   3.428  0.00  0.00     0.099 A 
HETATM   21  C   UNK N   1      21.809  14.995   2.612  0.00  0.00     0.101 A 
HETATM   22  C   UNK N   1      23.211  15.077   2.635  0.00  0.00     0.050 A 
HETATM   23  C   UNK N   1      23.869  16.023   3.433  0.00  0.00    -0.011 A 
HETATM   24  C   UNK N   1      23.095  16.896   4.216  0.00  0.00    -0.044 A 
HETATM   25  C   UNK N   1      23.792  17.980   4.960  0.00  0.00     0.058 C 
HETATM   26  C   UNK N   1      25.389  16.274   3.407  0.00  0.00     0.151 C 
HETATM   27  N   UNK N   1      25.535  17.708   3.089  0.00  0.00    -0.400 N 
HETATM   28  C   UNK N   1      24.821  18.641   4.013  0.00  0.00     0.120 C 
HETATM   29  C   UNK N   1      28.606  14.834   1.735  0.00  0.00     0.208 C 
HETATM   30  O   UNK N   1      27.592  15.683   2.247  0.00  0.00    -0.317 OA
HETATM   31  S   UNK N   1      25.841  14.484   5.660  0.00  0.00    -0.154 SA
HETATM   32  C   UNK N   1      25.968  16.091   4.829  0.00  0.00     0.121 C 
HETATM   33  C   UNK N   1      26.238  15.449   2.378  0.00  0.00     0.292 C 
HETATM   34  C   UNK N   1      31.060  16.034   2.920  0.00  0.00     0.311 C 
HETATM   35  O   UNK N   1      25.712  14.587   1.691  0.00  0.00    -0.262 OA
HETATM   36  C   UNK N   1      30.014  16.346   6.894  0.00  0.00    -0.044 A 
HETATM   37  C   UNK N   1      28.441  18.695   7.112  0.00  0.00     0.107 A 
HETATM   38  C   UNK N   1      28.419  17.927   5.931  0.00  0.00     0.108 A 
HETATM   39  C   UNK N   1      30.051  17.107   8.066  0.00  0.00     0.017 A 
HETATM   40  C   UNK N   1      29.255  18.265   8.182  0.00  0.00    -0.025 A 
HETATM   41  C   UNK N   1      29.317  19.062   9.438  0.00  0.00     0.051 C 
HETATM   42  C   UNK N   1      29.175  16.758   5.856  0.00  0.00     0.019 A 
HETATM   43  C   UNK N   1      30.963  15.157   6.643  0.00  0.00     0.079 C 
HETATM   44  H   UNK N   1      26.084  18.039   2.296  0.00  0.00     0.154 HD
ENDROOT
BRANCH  21  45
HETATM   45  O   UNK N   1      21.245  14.082   1.778  0.00  0.00    -0.353 OA
HETATM   46  C   UNK N   1      20.853  12.812   2.136  0.00  0.00     0.210 C 
ENDBRANCH  21  45
BRANCH  20  47
HETATM   47  O   UNK N   1      19.707  15.842   3.444  0.00  0.00    -0.358 OA
HETATM   48  H   UNK N   1      19.199  16.575   3.156  0.00  0.00     0.217 HD
ENDBRANCH  20  47
BRANCH   6  49
HETATM   49  O   UNK N   1      24.870  12.085   4.516  0.00  0.00    -0.278 OA
BRANCH  49  50
HETATM   50  C   UNK N   1      24.247  11.246   5.392  0.00  0.00     0.260 C 
HETATM   51  O   UNK N   1      23.111  11.521   5.743  0.00  0.00    -0.265 OA
HETATM   52  C   UNK N   1      24.812   9.942   5.841  0.00  0.00     0.126 C 
ENDBRANCH  49  50
ENDBRANCH   6  49
BRANCH  16  53
HETATM   53  O   UNK N   1      31.795  13.204   3.502  0.00  0.00    -0.375 OA
HETATM   54  H   UNK N   1      32.282  13.709   2.832  0.00  0.00     0.212 HD
ENDBRANCH  16  53
BRANCH  38  55
HETATM   55  O   UNK N   1      27.717  18.321   4.856  0.00  0.00    -0.357 OA
HETATM   56  H   UNK N   1      27.841  18.601   3.970  0.00  0.00     0.217 HD
ENDBRANCH  38  55
BRANCH  37  57
HETATM   57  O   UNK N   1      27.723  19.847   7.252  0.00  0.00    -0.353 OA
HETATM   58  C   UNK N   1      27.813  20.954   6.436  0.00  0.00     0.210 C 
ENDBRANCH  37  57
TORSDOF 7
ENDMDL
MODEL 8
REMARK VINA RESULT:      -7.4      5.506     11.264
REMARK  7 active torsions:
REMARK  status: ('A' for Active; 'I' for Inactive)
REMARK    1  A    between atoms: O_2  and  C_8 
REMARK    2  A    between atoms: O_2  and  C_13 
REMARK    3  A    between atoms: C_20  and  O_43 
REMARK    4  A    between atoms: C_24  and  O_33 
REMARK    5  A    between atoms: C_25  and  O_34 
REMARK    6  A    between atoms: C_45  and  O_50 
REMARK    7  A    between atoms: C_46  and  O_51 
ROOT
HETATM    1  O   UNK N   1      33.293  12.123  -0.363  0.00  0.00    -0.322 OA
HETATM    2  O   UNK N   1      31.128  11.937  -0.760  0.00  0.00    -0.322 OA
HETATM    3  C   UNK N   1      32.246  12.392   3.178  0.00  0.00     0.004 A 
HETATM    4  C   UNK N   1      33.121  12.392   2.058  0.00  0.00     0.013 A 
HETATM    5  C   UNK N   1      32.618  12.220   0.788  0.00  0.00     0.114 A 
HETATM    6  C   UNK N   1      30.829  12.332   2.929  0.00  0.00     0.096 A 
HETATM    7  C   UNK N   1      31.320  12.115   0.548  0.00  0.00     0.114 A 
HETATM    8  C   UNK N   1      30.365  12.191   1.571  0.00  0.00     0.009 A 
HETATM    9  C   UNK N   1      32.377  11.922  -1.395  0.00  0.00     0.352 A 
HETATM   10  C   UNK N   1      28.938  12.045   1.179  0.00  0.00     0.054 C 
HETATM   11  C   UNK N   1      32.882  12.389   4.620  0.00  0.00     0.108 C 
HETATM   12  C   UNK N   1      34.556  12.603   2.254  0.00  0.00     0.143 C 
HETATM   13  N   UNK N   1      34.908  11.822   3.470  0.00  0.00    -0.367 N 
HETATM   14  C   UNK N   1      34.471  12.431   4.696  0.00  0.00     0.139 C 
HETATM   15  C   UNK N   1      35.692  13.356   5.140  0.00  0.00     0.283 C 
HETATM   16  C   UNK N   1      36.053  10.896   3.632  0.00  0.00     0.250 C 
HETATM   17  C   UNK N   1      37.038  11.424   4.716  0.00  0.00     0.275 C 
HETATM   18  N   UNK N   1      37.011  12.887   4.654  0.00  0.00     0.104 N 
HETATM   19  C   UNK N   1      29.453  17.465   6.550  0.00  0.00     0.047 A 
HETATM   20  C   UNK N   1      28.490  17.437   5.542  0.00  0.00     0.099 A 
HETATM   21  C   UNK N   1      28.802  16.850   4.286  0.00  0.00     0.101 A 
HETATM   22  C   UNK N   1      30.074  16.287   4.091  0.00  0.00     0.050 A 
HETATM   23  C   UNK N   1      31.042  16.313   5.106  0.00  0.00    -0.011 A 
HETATM   24  C   UNK N   1      30.714  16.917   6.331  0.00  0.00    -0.044 A 
HETATM   25  C   UNK N   1      31.784  17.056   7.355  0.00  0.00     0.058 C 
HETATM   26  C   UNK N   1      32.500  15.851   4.925  0.00  0.00     0.151 C 
HETATM   27  N   UNK N   1      33.321  17.021   5.295  0.00  0.00    -0.400 N 
HETATM   28  C   UNK N   1      33.065  17.573   6.660  0.00  0.00     0.120 C 
HETATM   29  C   UNK N   1      34.777  14.198   2.223  0.00  0.00     0.208 C 
HETATM   30  O   UNK N   1      34.245  15.023   3.247  0.00  0.00    -0.317 OA
HETATM   31  S   UNK N   1      31.907  13.192   5.954  0.00  0.00    -0.154 SA
HETATM   32  C   UNK N   1      32.827  14.754   5.965  0.00  0.00     0.121 C 
HETATM   33  C   UNK N   1      32.933  15.373   3.496  0.00  0.00     0.292 C 
HETATM   34  C   UNK N   1      37.420  13.438   3.366  0.00  0.00     0.311 C 
HETATM   35  O   UNK N   1      32.113  15.298   2.593  0.00  0.00    -0.262 OA
HETATM   36  C   UNK N   1      36.371  12.153   7.138  0.00  0.00    -0.044 A 
HETATM   37  C   UNK N   1      36.068  14.493   8.711  0.00  0.00     0.107 A 
HETATM   38  C   UNK N   1      35.770  14.514   7.334  0.00  0.00     0.108 A 
HETATM   39  C   UNK N   1      36.679  12.125   8.502  0.00  0.00     0.017 A 
HETATM   40  C   UNK N   1      36.511  13.283   9.288  0.00  0.00    -0.025 A 
HETATM   41  C   UNK N   1      36.852  13.230  10.736  0.00  0.00     0.051 C 
HETATM   42  C   UNK N   1      35.895  13.344   6.585  0.00  0.00     0.019 A 
HETATM   43  C   UNK N   1      36.668  10.972   6.193  0.00  0.00     0.079 C 
HETATM   44  H   UNK N   1      34.014  17.423   4.664  0.00  0.00     0.154 HD
ENDROOT
BRANCH  21  45
HETATM   45  O   UNK N   1      27.934  16.825   3.240  0.00  0.00    -0.353 OA
HETATM   46  C   UNK N   1      27.386  15.691   2.687  0.00  0.00     0.210 C 
ENDBRANCH  21  45
BRANCH  20  47
HETATM   47  O   UNK N   1      27.288  17.989   5.783  0.00  0.00    -0.358 OA
HETATM   48  H   UNK N   1      26.632  17.530   6.270  0.00  0.00     0.217 HD
ENDBRANCH  20  47
BRANCH   6  49
HETATM   49  O   UNK N   1      30.008  12.385   4.018  0.00  0.00    -0.278 OA
BRANCH  49  50
HETATM   50  C   UNK N   1      29.091  11.536   4.562  0.00  0.00     0.260 C 
HETATM   51  O   UNK N   1      29.500  10.570   5.186  0.00  0.00    -0.265 OA
HETATM   52  C   UNK N   1      27.622  11.786   4.563  0.00  0.00     0.126 C 
ENDBRANCH  49  50
ENDBRANCH   6  49
BRANCH  16  53
HETATM   53  O   UNK N   1      36.704  10.705   2.411  0.00  0.00    -0.375 OA
HETATM   54  H   UNK N   1      36.497  11.024   1.519  0.00  0.00     0.212 HD
ENDBRANCH  16  53
BRANCH  38  55
HETATM   55  O   UNK N   1      35.409  15.650   6.715  0.00  0.00    -0.357 OA
HETATM   56  H   UNK N   1      35.244  16.555   6.897  0.00  0.00     0.217 HD
ENDBRANCH  38  55
BRANCH  37  57
HETATM   57  O   UNK N   1      35.964  15.601   9.501  0.00  0.00    -0.353 OA
HETATM   58  C   UNK N   1      34.789  16.141   9.977  0.00  0.00     0.210 C 
ENDBRANCH  37  57
TORSDOF 7
ENDMDL
MODEL 9
REMARK VINA RESULT:      -7.3      7.804     13.314
REMARK  7 active torsions:
REMARK  status: ('A' for Active; 'I' for Inactive)
REMARK    1  A    between atoms: O_2  and  C_8 
REMARK    2  A    between atoms: O_2  and  C_13 
REMARK    3  A    between atoms: C_20  and  O_43 
REMARK    4  A    between atoms: C_24  and  O_33 
REMARK    5  A    between atoms: C_25  and  O_34 
REMARK    6  A    between atoms: C_45  and  O_50 
REMARK    7  A    between atoms: C_46  and  O_51 
ROOT
HETATM    1  O   UNK N   1      36.732  13.458   1.605  0.00  0.00    -0.322 OA
HETATM    2  O   UNK N   1      34.738  13.496   0.658  0.00  0.00    -0.322 OA
HETATM    3  C   UNK N   1      34.849  12.617   4.680  0.00  0.00     0.004 A 
HETATM    4  C   UNK N   1      35.969  12.943   3.866  0.00  0.00     0.013 A 
HETATM    5  C   UNK N   1      35.795  13.208   2.527  0.00  0.00     0.114 A 
HETATM    6  C   UNK N   1      33.539  12.697   4.090  0.00  0.00     0.096 A 
HETATM    7  C   UNK N   1      34.600  13.236   1.958  0.00  0.00     0.114 A 
HETATM    8  C   UNK N   1      33.423  13.019   2.688  0.00  0.00     0.009 A 
HETATM    9  C   UNK N   1      36.102  13.635   0.373  0.00  0.00     0.352 A 
HETATM   10  C   UNK N   1      32.141  13.062   1.937  0.00  0.00     0.054 C 
HETATM   11  C   UNK N   1      35.117  12.127   6.153  0.00  0.00     0.108 C 
HETATM   12  C   UNK N   1      37.304  13.022   4.462  0.00  0.00     0.143 C 
HETATM   13  N   UNK N   1      37.383  11.879   5.409  0.00  0.00    -0.367 N 
HETATM   14  C   UNK N   1      36.638  12.079   6.621  0.00  0.00     0.139 C 
HETATM   15  C   UNK N   1      37.675  12.763   7.621  0.00  0.00     0.283 C 
HETATM   16  C   UNK N   1      38.492  10.905   5.538  0.00  0.00     0.250 C 
HETATM   17  C   UNK N   1      39.163  11.018   6.939  0.00  0.00     0.275 C 
HETATM   18  N   UNK N   1      39.091  12.424   7.344  0.00  0.00     0.104 N 
HETATM   19  C   UNK N   1      31.115  16.446   8.718  0.00  0.00     0.047 A 
HETATM   20  C   UNK N   1      30.427  16.781   7.553  0.00  0.00     0.099 A 
HETATM   21  C   UNK N   1      31.058  16.617   6.290  0.00  0.00     0.101 A 
HETATM   22  C   UNK N   1      32.362  16.097   6.239  0.00  0.00     0.050 A 
HETATM   23  C   UNK N   1      33.053  15.757   7.411  0.00  0.00    -0.011 A 
HETATM   24  C   UNK N   1      32.414  15.948   8.647  0.00  0.00    -0.044 A 
HETATM   25  C   UNK N   1      33.197  15.708   9.889  0.00  0.00     0.058 C 
HETATM   26  C   UNK N   1      34.529  15.320   7.451  0.00  0.00     0.151 C 
HETATM   27  N   UNK N   1      35.188  16.276   8.363  0.00  0.00    -0.400 N 
HETATM   28  C   UNK N   1      34.586  16.370   9.728  0.00  0.00     0.120 C 
HETATM   29  C   UNK N   1      37.459  14.533   4.998  0.00  0.00     0.208 C 
HETATM   30  O   UNK N   1      36.661  15.006   6.071  0.00  0.00    -0.317 OA
HETATM   31  S   UNK N   1      33.816  12.497   7.396  0.00  0.00    -0.154 SA
HETATM   32  C   UNK N   1      34.640  13.935   8.130  0.00  0.00     0.121 C 
HETATM   33  C   UNK N   1      35.315  15.309   6.093  0.00  0.00     0.292 C 
HETATM   34  C   UNK N   1      39.776  13.342   6.441  0.00  0.00     0.311 C 
HETATM   35  O   UNK N   1      34.742  15.560   5.044  0.00  0.00    -0.262 OA
HETATM   36  C   UNK N   1      37.900  10.957   9.229  0.00  0.00    -0.044 A 
HETATM   37  C   UNK N   1      37.129  12.678  11.346  0.00  0.00     0.107 A 
HETATM   38  C   UNK N   1      37.172  13.151  10.020  0.00  0.00     0.108 A 
HETATM   39  C   UNK N   1      37.870  10.481  10.543  0.00  0.00     0.017 A 
HETATM   40  C   UNK N   1      37.469  11.331  11.594  0.00  0.00    -0.025 A 
HETATM   41  C   UNK N   1      37.451  10.802  12.985  0.00  0.00     0.051 C 
HETATM   42  C   UNK N   1      37.523  12.280   8.989  0.00  0.00     0.019 A 
HETATM   43  C   UNK N   1      38.466  10.131   8.056  0.00  0.00     0.079 C 
HETATM   44  H   UNK N   1      35.996  16.831   8.083  0.00  0.00     0.154 HD
ENDROOT
BRANCH  21  45
HETATM   45  O   UNK N   1      30.471  16.964   5.114  0.00  0.00    -0.353 OA
HETATM   46  C   UNK N   1      31.035  16.812   3.869  0.00  0.00     0.210 C 
ENDBRANCH  21  45
BRANCH  20  47
HETATM   47  O   UNK N   1      29.181  17.274   7.660  0.00  0.00    -0.358 OA
HETATM   48  H   UNK N   1      28.504  17.016   7.065  0.00  0.00     0.217 HD
ENDBRANCH  20  47
BRANCH   6  49
HETATM   49  O   UNK N   1      32.477  12.430   4.905  0.00  0.00    -0.278 OA
BRANCH  49  50
HETATM   50  C   UNK N   1      31.522  11.458   4.939  0.00  0.00     0.260 C 
HETATM   51  O   UNK N   1      30.351  11.800   4.937  0.00  0.00    -0.265 OA
HETATM   52  C   UNK N   1      31.816  10.000   4.837  0.00  0.00     0.126 C 
ENDBRANCH  49  50
ENDBRANCH   6  49
BRANCH  16  53
HETATM   53  O   UNK N   1      39.427  11.091   4.517  0.00  0.00    -0.375 OA
HETATM   54  H   UNK N   1      39.541  10.642   3.665  0.00  0.00     0.212 HD
ENDBRANCH  16  53
BRANCH  38  55
HETATM   55  O   UNK N   1      36.925  14.440   9.730  0.00  0.00    -0.357 OA
HETATM   56  H   UNK N   1      37.110  15.304  10.045  0.00  0.00     0.217 HD
ENDBRANCH  38  55
BRANCH  37  57
HETATM   57  O   UNK N   1      36.791  13.477  12.399  0.00  0.00    -0.353 OA
HETATM   58  C   UNK N   1      35.509  13.836  12.758  0.00  0.00     0.210 C 
ENDBRANCH  37  57
TORSDOF 7
ENDMDL
