MODEL 1
REMARK VINA RESULT:      -8.6      0.000      0.000
REMARK  13 active torsions:
REMARK  status: ('A' for Active; 'I' for Inactive)
REMARK    1  A    between atoms: C_2  and  C_13 
REMARK    2  A    between atoms: C_5  and  C_7 
REMARK    3  A    between atoms: C_10  and  C_49 
REMARK    4  A    between atoms: C_13  and  N_14 
REMARK       I    between atoms: N_14  and  C_15 
REMARK    5  A    between atoms: N_14  and  C_16 
REMARK    6  A    between atoms: C_15  and  C_17 
REMARK    7  A    between atoms: C_17  and  N_19 
REMARK    8  A    between atoms: C_24  and  S_29 
REMARK    9  A    between atoms: S_29  and  C_30 
REMARK   10  A    between atoms: C_30  and  C_31 
REMARK   11  A    between atoms: N_42  and  C_45 
REMARK   12  A    between atoms: C_45  and  C_46 
REMARK   13  A    between atoms: C_46  and  O_47 
ROOT
HETATM    1  N   UNK N   1      24.661  14.463   5.505  0.00  0.00    -0.342 N 
HETATM    2  C   UNK N   1      23.740  15.456   5.302  0.00  0.00     0.238 C 
HETATM    3  O   UNK N   1      23.483  16.250   6.198  0.00  0.00    -0.272 OA
ENDROOT
BRANCH   1   4
HETATM    4  C   UNK N   1      25.541  14.640   6.661  0.00  0.00     0.164 C 
BRANCH   4   5
HETATM    5  C   UNK N   1      26.628  15.542   6.314  0.00  0.00    -0.040 C 
HETATM    6  C   UNK N   1      27.624  15.114   5.438  0.00  0.00     0.010 C 
HETATM    7  C   UNK N   1      28.846  15.773   5.437  0.00  0.00     0.013 C 
HETATM    8  C   UNK N   1      29.057  16.813   6.353  0.00  0.00    -0.026 C 
HETATM    9  C   UNK N   1      28.014  17.285   7.148  0.00  0.00     0.013 C 
HETATM   10  C   UNK N   1      26.795  16.672   7.105  0.00  0.00     0.010 C 
BRANCH   8  11
HETATM   11  C   UNK N   1      30.407  17.126   6.764  0.00  0.00    -0.026 A 
HETATM   12  C   UNK N   1      30.586  17.531   8.094  0.00  0.00     0.013 A 
HETATM   13  C   UNK N   1      31.854  17.663   8.623  0.00  0.00     0.017 A 
HETATM   14  C   UNK N   1      32.965  17.428   7.815  0.00  0.00     0.048 A 
HETATM   15  C   UNK N   1      32.794  17.034   6.478  0.00  0.00     0.017 A 
HETATM   16  C   UNK N   1      31.513  16.838   5.965  0.00  0.00     0.013 A 
BRANCH  14  17
HETATM   17  C   UNK N   1      34.332  17.631   8.365  0.00  0.00     0.417 C 
HETATM   18  F   UNK N   1      34.337  17.340   9.717  0.00  0.00    -0.166 F 
HETATM   19  F   UNK N   1      34.748  18.940   8.185  0.00  0.00    -0.166 F 
HETATM   20  F   UNK N   1      35.198  16.785   7.702  0.00  0.00    -0.166 F 
ENDBRANCH  14  17
ENDBRANCH   8  11
ENDBRANCH   4   5
ENDBRANCH   1   4
BRANCH   1  21
HETATM   21  C   UNK N   1      24.886  13.303   4.612  0.00  0.00     0.090 C 
HETATM   22  C   UNK N   1      23.741  12.813   3.692  0.00  0.00     0.055 C 
HETATM   23  C   UNK N   1      22.766  11.849   4.392  0.00  0.00     0.274 C 
HETATM   24  N   UNK N   1      23.486  10.711   4.957  0.00  0.00     0.090 N 
HETATM   25  C   UNK N   1      24.352  11.233   6.014  0.00  0.00     0.274 C 
HETATM   26  C   UNK N   1      25.459  12.097   5.390  0.00  0.00     0.055 C 
BRANCH  24  27
HETATM   27  C   UNK N   1      22.501   9.817   5.560  0.00  0.00     0.298 C 
BRANCH  27  28
HETATM   28  C   UNK N   1      22.884   8.354   5.341  0.00  0.00     0.197 C 
BRANCH  28  29
HETATM   29  O   UNK N   1      22.643   7.605   6.495  0.00  0.00    -0.394 OA
HETATM   30  C   UNK N   1      23.770   7.800   7.295  0.00  0.00     0.201 C 
ENDBRANCH  28  29
ENDBRANCH  27  28
ENDBRANCH  24  27
ENDBRANCH   1  21
BRANCH   2  31
HETATM   31  C   UNK N   1      23.222  15.763   3.964  0.00  0.00     0.232 C 
BRANCH  31  32
HETATM   32  N   UNK N   1      23.130  17.227   3.683  0.00  0.00    -0.332 N 
HETATM   33  C   UNK N   1      24.197  18.133   3.650  0.00  0.00     0.050 A 
HETATM   34  C   UNK N   1      25.542  17.760   3.863  0.00  0.00     0.031 A 
HETATM   35  C   UNK N   1      23.963  19.508   3.384  0.00  0.00     0.041 A 
HETATM   36  C   UNK N   1      26.596  18.666   3.832  0.00  0.00     0.002 A 
HETATM   37  C   UNK N   1      26.340  20.005   3.575  0.00  0.00     0.001 A 
HETATM   38  C   UNK N   1      25.030  20.423   3.350  0.00  0.00     0.018 A 
HETATM   39  C   UNK N   1      22.660  19.940   3.163  0.00  0.00     0.187 A 
HETATM   40  C   UNK N   1      21.620  19.034   3.198  0.00  0.00     0.092 A 
HETATM   41  O   UNK N   1      22.427  21.116   2.932  0.00  0.00    -0.287 OA
HETATM   42  C   UNK N   1      21.855  17.681   3.442  0.00  0.00     0.077 A 
BRANCH  42  43
HETATM   43  S   UNK N   1      20.439  16.556   3.412  0.00  0.00    -0.107 SA
BRANCH  43  44
HETATM   44  C   UNK N   1      20.409  16.467   1.588  0.00  0.00     0.122 C 
BRANCH  44  45
HETATM   45  C   UNK N   1      20.345  15.032   1.190  0.00  0.00    -0.007 A 
HETATM   46  C   UNK N   1      19.106  14.386   1.166  0.00  0.00     0.011 A 
HETATM   47  C   UNK N   1      19.027  13.023   0.882  0.00  0.00     0.004 A 
HETATM   48  C   UNK N   1      20.190  12.301   0.609  0.00  0.00     0.045 A 
HETATM   49  C   UNK N   1      21.431  12.945   0.606  0.00  0.00     0.155 A 
HETATM   50  C   UNK N   1      21.513  14.312   0.897  0.00  0.00     0.161 A 
HETATM   51  F   UNK N   1      22.553  12.237   0.334  0.00  0.00    -0.203 F 
HETATM   52  F   UNK N   1      22.722  14.929   0.903  0.00  0.00    -0.202 F 
ENDBRANCH  44  45
ENDBRANCH  43  44
ENDBRANCH  42  43
ENDBRANCH  31  32
ENDBRANCH   2  31
TORSDOF 13
ENDMDL
MODEL 2
REMARK VINA RESULT:      -8.5      3.012      6.847
REMARK  13 active torsions:
REMARK  status: ('A' for Active; 'I' for Inactive)
REMARK    1  A    between atoms: C_2  and  C_13 
REMARK    2  A    between atoms: C_5  and  C_7 
REMARK    3  A    between atoms: C_10  and  C_49 
REMARK    4  A    between atoms: C_13  and  N_14 
REMARK       I    between atoms: N_14  and  C_15 
REMARK    5  A    between atoms: N_14  and  C_16 
REMARK    6  A    between atoms: C_15  and  C_17 
REMARK    7  A    between atoms: C_17  and  N_19 
REMARK    8  A    between atoms: C_24  and  S_29 
REMARK    9  A    between atoms: S_29  and  C_30 
REMARK   10  A    between atoms: C_30  and  C_31 
REMARK   11  A    between atoms: N_42  and  C_45 
REMARK   12  A    between atoms: C_45  and  C_46 
REMARK   13  A    between atoms: C_46  and  O_47 
ROOT
HETATM    1  N   UNK N   1      24.178  16.726   4.168  0.00  0.00    -0.342 N 
HETATM    2  C   UNK N   1      23.735  15.492   3.772  0.00  0.00     0.238 C 
HETATM    3  O   UNK N   1      24.338  14.870   2.907  0.00  0.00    -0.272 OA
ENDROOT
BRANCH   1   4
HETATM    4  C   UNK N   1      25.551  17.059   3.787  0.00  0.00     0.164 C 
BRANCH   4   5
HETATM    5  C   UNK N   1      26.340  17.321   4.980  0.00  0.00    -0.040 C 
HETATM    6  C   UNK N   1      26.963  18.557   5.136  0.00  0.00     0.010 C 
HETATM    7  C   UNK N   1      28.029  18.666   6.020  0.00  0.00     0.013 C 
HETATM    8  C   UNK N   1      28.478  17.517   6.685  0.00  0.00    -0.026 C 
HETATM    9  C   UNK N   1      27.776  16.316   6.587  0.00  0.00     0.013 C 
HETATM   10  C   UNK N   1      26.693  16.228   5.762  0.00  0.00     0.010 C 
BRANCH   8  11
HETATM   11  C   UNK N   1      29.849  17.457   7.139  0.00  0.00    -0.026 A 
HETATM   12  C   UNK N   1      30.812  17.068   6.197  0.00  0.00     0.013 A 
HETATM   13  C   UNK N   1      32.157  17.168   6.486  0.00  0.00     0.017 A 
HETATM   14  C   UNK N   1      32.560  17.624   7.740  0.00  0.00     0.048 A 
HETATM   15  C   UNK N   1      31.602  18.004   8.694  0.00  0.00     0.017 A 
HETATM   16  C   UNK N   1      30.246  17.963   8.377  0.00  0.00     0.013 A 
BRANCH  14  17
HETATM   17  C   UNK N   1      34.009  17.672   8.075  0.00  0.00     0.417 C 
HETATM   18  F   UNK N   1      34.237  16.988   9.254  0.00  0.00    -0.166 F 
HETATM   19  F   UNK N   1      34.438  18.981   8.223  0.00  0.00    -0.166 F 
HETATM   20  F   UNK N   1      34.713  17.078   7.046  0.00  0.00    -0.166 F 
ENDBRANCH  14  17
ENDBRANCH   8  11
ENDBRANCH   4   5
ENDBRANCH   1   4
BRANCH   1  21
HETATM   21  C   UNK N   1      23.422  17.681   5.011  0.00  0.00     0.090 C 
HETATM   22  C   UNK N   1      21.909  17.454   5.256  0.00  0.00     0.055 C 
HETATM   23  C   UNK N   1      21.018  18.021   4.137  0.00  0.00     0.274 C 
HETATM   24  N   UNK N   1      21.292  19.441   3.933  0.00  0.00     0.090 N 
HETATM   25  C   UNK N   1      22.664  19.547   3.436  0.00  0.00     0.274 C 
HETATM   26  C   UNK N   1      23.644  19.139   4.547  0.00  0.00     0.055 C 
BRANCH  24  27
HETATM   27  C   UNK N   1      20.382  19.925   2.897  0.00  0.00     0.298 C 
BRANCH  27  28
HETATM   28  C   UNK N   1      20.503  19.085   1.627  0.00  0.00     0.197 C 
BRANCH  28  29
HETATM   29  O   UNK N   1      20.876  19.883   0.543  0.00  0.00    -0.394 OA
HETATM   30  C   UNK N   1      20.585  21.190   0.938  0.00  0.00     0.201 C 
ENDBRANCH  28  29
ENDBRANCH  27  28
ENDBRANCH  24  27
ENDBRANCH   1  21
BRANCH   2  31
HETATM   31  C   UNK N   1      22.699  14.769   4.520  0.00  0.00     0.232 C 
BRANCH  31  32
HETATM   32  N   UNK N   1      22.075  13.655   3.746  0.00  0.00    -0.332 N 
HETATM   33  C   UNK N   1      21.213  13.790   2.649  0.00  0.00     0.050 A 
HETATM   34  C   UNK N   1      20.831  15.036   2.108  0.00  0.00     0.031 A 
HETATM   35  C   UNK N   1      20.677  12.640   2.013  0.00  0.00     0.041 A 
HETATM   36  C   UNK N   1      19.973  15.162   1.022  0.00  0.00     0.002 A 
HETATM   37  C   UNK N   1      19.459  14.023   0.421  0.00  0.00     0.001 A 
HETATM   38  C   UNK N   1      19.811  12.768   0.913  0.00  0.00     0.018 A 
HETATM   39  C   UNK N   1      21.017  11.381   2.497  0.00  0.00     0.187 A 
HETATM   40  C   UNK N   1      21.868  11.267   3.576  0.00  0.00     0.092 A 
HETATM   41  O   UNK N   1      20.572  10.373   1.971  0.00  0.00    -0.287 OA
HETATM   42  C   UNK N   1      22.407  12.398   4.189  0.00  0.00     0.077 A 
BRANCH  42  43
HETATM   43  S   UNK N   1      23.560  12.151   5.561  0.00  0.00    -0.107 SA
BRANCH  43  44
HETATM   44  C   UNK N   1      22.318  11.303   6.597  0.00  0.00     0.122 C 
BRANCH  44  45
HETATM   45  C   UNK N   1      21.932  12.218   7.708  0.00  0.00    -0.007 A 
HETATM   46  C   UNK N   1      21.051  13.271   7.449  0.00  0.00     0.011 A 
HETATM   47  C   UNK N   1      20.741  14.193   8.449  0.00  0.00     0.004 A 
HETATM   48  C   UNK N   1      21.303  14.057   9.719  0.00  0.00     0.045 A 
HETATM   49  C   UNK N   1      22.166  12.992   9.994  0.00  0.00     0.155 A 
HETATM   50  C   UNK N   1      22.484  12.069   8.990  0.00  0.00     0.161 A 
HETATM   51  F   UNK N   1      22.702  12.866  11.231  0.00  0.00    -0.203 F 
HETATM   52  F   UNK N   1      23.330  11.043   9.260  0.00  0.00    -0.202 F 
ENDBRANCH  44  45
ENDBRANCH  43  44
ENDBRANCH  42  43
ENDBRANCH  31  32
ENDBRANCH   2  31
TORSDOF 13
ENDMDL
MODEL 3
REMARK VINA RESULT:      -8.4     10.174     15.545
REMARK  13 active torsions:
REMARK  status: ('A' for Active; 'I' for Inactive)
REMARK    1  A    between atoms: C_2  and  C_13 
REMARK    2  A    between atoms: C_5  and  C_7 
REMARK    3  A    between atoms: C_10  and  C_49 
REMARK    4  A    between atoms: C_13  and  N_14 
REMARK       I    between atoms: N_14  and  C_15 
REMARK    5  A    between atoms: N_14  and  C_16 
REMARK    6  A    between atoms: C_15  and  C_17 
REMARK    7  A    between atoms: C_17  and  N_19 
REMARK    8  A    between atoms: C_24  and  S_29 
REMARK    9  A    between atoms: S_29  and  C_30 
REMARK   10  A    between atoms: C_30  and  C_31 
REMARK   11  A    between atoms: N_42  and  C_45 
REMARK   12  A    between atoms: C_45  and  C_46 
REMARK   13  A    between atoms: C_46  and  O_47 
ROOT
HETATM    1  N   UNK N   1      35.090  14.228   9.673  0.00  0.00    -0.342 N 
HETATM    2  C   UNK N   1      36.334  14.031   9.136  0.00  0.00     0.238 C 
HETATM    3  O   UNK N   1      37.294  14.665   9.556  0.00  0.00    -0.272 OA
ENDROOT
BRANCH   1   4
HETATM    4  C   UNK N   1      35.058  14.923  10.961  0.00  0.00     0.164 C 
BRANCH   4   5
HETATM    5  C   UNK N   1      35.432  14.003  12.023  0.00  0.00    -0.040 C 
HETATM    6  C   UNK N   1      34.622  12.903  12.297  0.00  0.00     0.010 C 
HETATM    7  C   UNK N   1      34.725  12.285  13.536  0.00  0.00     0.013 C 
HETATM    8  C   UNK N   1      35.601  12.820  14.490  0.00  0.00    -0.026 C 
HETATM    9  C   UNK N   1      36.469  13.859  14.157  0.00  0.00     0.013 C 
HETATM   10  C   UNK N   1      36.406  14.427  12.918  0.00  0.00     0.010 C 
BRANCH   8  11
HETATM   11  C   UNK N   1      35.342  12.588  15.893  0.00  0.00    -0.026 A 
HETATM   12  C   UNK N   1      35.293  11.252  16.316  0.00  0.00     0.013 A 
HETATM   13  C   UNK N   1      35.243  10.942  17.659  0.00  0.00     0.017 A 
HETATM   14  C   UNK N   1      35.204  11.968  18.602  0.00  0.00     0.048 A 
HETATM   15  C   UNK N   1      35.241  13.308  18.187  0.00  0.00     0.017 A 
HETATM   16  C   UNK N   1      35.356  13.619  16.833  0.00  0.00     0.013 A 
BRANCH  14  17
HETATM   17  C   UNK N   1      35.087  11.635  20.047  0.00  0.00     0.417 C 
HETATM   18  F   UNK N   1      34.454  10.415  20.194  0.00  0.00    -0.166 F 
HETATM   19  F   UNK N   1      34.360  12.604  20.719  0.00  0.00    -0.166 F 
HETATM   20  F   UNK N   1      36.358  11.570  20.583  0.00  0.00    -0.166 F 
ENDBRANCH  14  17
ENDBRANCH   8  11
ENDBRANCH   4   5
ENDBRANCH   1   4
BRANCH   1  21
HETATM   21  C   UNK N   1      33.819  13.721   9.108  0.00  0.00     0.090 C 
HETATM   22  C   UNK N   1      33.754  13.315   7.614  0.00  0.00     0.055 C 
HETATM   23  C   UNK N   1      33.485  14.502   6.671  0.00  0.00     0.274 C 
HETATM   24  N   UNK N   1      32.264  15.201   7.062  0.00  0.00     0.090 N 
HETATM   25  C   UNK N   1      32.508  15.791   8.378  0.00  0.00     0.274 C 
HETATM   26  C   UNK N   1      32.643  14.673   9.423  0.00  0.00     0.055 C 
BRANCH  24  27
HETATM   27  C   UNK N   1      32.043  16.279   6.101  0.00  0.00     0.298 C 
BRANCH  27  28
HETATM   28  C   UNK N   1      32.890  17.502   6.446  0.00  0.00     0.197 C 
BRANCH  28  29
HETATM   29  O   UNK N   1      33.600  17.942   5.326  0.00  0.00    -0.394 OA
HETATM   30  C   UNK N   1      32.816  17.571   4.232  0.00  0.00     0.201 C 
ENDBRANCH  28  29
ENDBRANCH  27  28
ENDBRANCH  24  27
ENDBRANCH   1  21
BRANCH   2  31
HETATM   31  C   UNK N   1      36.615  12.904   8.238  0.00  0.00     0.232 C 
BRANCH  31  32
HETATM   32  N   UNK N   1      38.023  12.415   8.320  0.00  0.00    -0.332 N 
HETATM   33  C   UNK N   1      39.115  12.910   7.595  0.00  0.00     0.050 A 
HETATM   34  C   UNK N   1      39.022  13.982   6.682  0.00  0.00     0.031 A 
HETATM   35  C   UNK N   1      40.404  12.339   7.761  0.00  0.00     0.041 A 
HETATM   36  C   UNK N   1      40.109  14.465   5.963  0.00  0.00     0.002 A 
HETATM   37  C   UNK N   1      41.357  13.887   6.140  0.00  0.00     0.001 A 
HETATM   38  C   UNK N   1      41.504  12.830   7.035  0.00  0.00     0.018 A 
HETATM   39  C   UNK N   1      40.564  11.279   8.648  0.00  0.00     0.187 A 
HETATM   40  C   UNK N   1      39.479  10.806   9.356  0.00  0.00     0.092 A 
HETATM   41  O   UNK N   1      41.660  10.768   8.812  0.00  0.00    -0.287 OA
HETATM   42  C   UNK N   1      38.217  11.381   9.204  0.00  0.00     0.077 A 
BRANCH  42  43
HETATM   43  S   UNK N   1      36.864  10.733  10.214  0.00  0.00    -0.107 SA
BRANCH  43  44
HETATM   44  C   UNK N   1      37.743  11.040  11.785  0.00  0.00     0.122 C 
BRANCH  44  45
HETATM   45  C   UNK N   1      37.320  10.004  12.769  0.00  0.00    -0.007 A 
HETATM   46  C   UNK N   1      36.290   9.122  12.430  0.00  0.00     0.011 A 
HETATM   47  C   UNK N   1      35.816   8.200  13.363  0.00  0.00     0.004 A 
HETATM   48  C   UNK N   1      36.379   8.149  14.639  0.00  0.00     0.045 A 
HETATM   49  C   UNK N   1      37.426   9.012  14.979  0.00  0.00     0.155 A 
HETATM   50  C   UNK N   1      37.900   9.942  14.045  0.00  0.00     0.161 A 
HETATM   51  F   UNK N   1      37.970   8.951  16.218  0.00  0.00    -0.203 F 
HETATM   52  F   UNK N   1      38.910  10.783  14.384  0.00  0.00    -0.202 F 
ENDBRANCH  44  45
ENDBRANCH  43  44
ENDBRANCH  42  43
ENDBRANCH  31  32
ENDBRANCH   2  31
TORSDOF 13
ENDMDL
MODEL 4
REMARK VINA RESULT:      -8.2     13.315     15.765
REMARK  13 active torsions:
REMARK  status: ('A' for Active; 'I' for Inactive)
REMARK    1  A    between atoms: C_2  and  C_13 
REMARK    2  A    between atoms: C_5  and  C_7 
REMARK    3  A    between atoms: C_10  and  C_49 
REMARK    4  A    between atoms: C_13  and  N_14 
REMARK       I    between atoms: N_14  and  C_15 
REMARK    5  A    between atoms: N_14  and  C_16 
REMARK    6  A    between atoms: C_15  and  C_17 
REMARK    7  A    between atoms: C_17  and  N_19 
REMARK    8  A    between atoms: C_24  and  S_29 
REMARK    9  A    between atoms: S_29  and  C_30 
REMARK   10  A    between atoms: C_30  and  C_31 
REMARK   11  A    between atoms: N_42  and  C_45 
REMARK   12  A    between atoms: C_45  and  C_46 
REMARK   13  A    between atoms: C_46  and  O_47 
ROOT
HETATM    1  N   UNK N   1      32.124  20.428  -5.647  0.00  0.00    -0.342 N 
HETATM    2  C   UNK N   1      31.182  20.549  -6.633  0.00  0.00     0.238 C 
HETATM    3  O   UNK N   1      30.005  20.313  -6.392  0.00  0.00    -0.272 OA
ENDROOT
BRANCH   1   4
HETATM    4  C   UNK N   1      31.608  20.374  -4.279  0.00  0.00     0.164 C 
BRANCH   4   5
HETATM    5  C   UNK N   1      31.256  21.713  -3.835  0.00  0.00    -0.040 C 
HETATM    6  C   UNK N   1      29.949  21.983  -3.433  0.00  0.00     0.010 C 
HETATM    7  C   UNK N   1      29.509  23.301  -3.421  0.00  0.00     0.013 C 
HETATM    8  C   UNK N   1      30.376  24.309  -3.864  0.00  0.00    -0.026 C 
HETATM    9  C   UNK N   1      31.707  24.023  -4.166  0.00  0.00     0.013 C 
HETATM   10  C   UNK N   1      32.153  22.735  -4.120  0.00  0.00     0.010 C 
BRANCH   8  11
HETATM   11  C   UNK N   1      29.820  25.537  -4.386  0.00  0.00    -0.026 A 
HETATM   12  C   UNK N   1      30.020  25.794  -5.749  0.00  0.00     0.013 A 
HETATM   13  C   UNK N   1      29.365  26.838  -6.370  0.00  0.00     0.017 A 
HETATM   14  C   UNK N   1      28.526  27.665  -5.626  0.00  0.00     0.048 A 
HETATM   15  C   UNK N   1      28.329  27.421  -4.257  0.00  0.00     0.017 A 
HETATM   16  C   UNK N   1      28.941  26.328  -3.646  0.00  0.00     0.013 A 
BRANCH  14  17
HETATM   17  C   UNK N   1      27.869  28.828  -6.280  0.00  0.00     0.417 C 
HETATM   18  F   UNK N   1      26.687  29.122  -5.627  0.00  0.00    -0.166 F 
HETATM   19  F   UNK N   1      27.593  28.555  -7.610  0.00  0.00    -0.166 F 
HETATM   20  F   UNK N   1      28.725  29.909  -6.208  0.00  0.00    -0.166 F 
ENDBRANCH  14  17
ENDBRANCH   8  11
ENDBRANCH   4   5
ENDBRANCH   1   4
BRANCH   1  21
HETATM   21  C   UNK N   1      33.591  20.443  -5.853  0.00  0.00     0.090 C 
HETATM   22  C   UNK N   1      34.206  19.651  -7.034  0.00  0.00     0.055 C 
HETATM   23  C   UNK N   1      34.452  18.166  -6.711  0.00  0.00     0.274 C 
HETATM   24  N   UNK N   1      35.286  18.032  -5.521  0.00  0.00     0.090 N 
HETATM   25  C   UNK N   1      34.516  18.557  -4.394  0.00  0.00     0.274 C 
HETATM   26  C   UNK N   1      34.345  20.076  -4.554  0.00  0.00     0.055 C 
BRANCH  24  27
HETATM   27  C   UNK N   1      35.520  16.606  -5.302  0.00  0.00     0.298 C 
BRANCH  27  28
HETATM   28  C   UNK N   1      35.203  16.215  -3.860  0.00  0.00     0.197 C 
BRANCH  28  29
HETATM   29  O   UNK N   1      36.376  15.919  -3.161  0.00  0.00    -0.394 OA
HETATM   30  C   UNK N   1      35.969  15.115  -2.095  0.00  0.00     0.201 C 
ENDBRANCH  28  29
ENDBRANCH  27  28
ENDBRANCH  24  27
ENDBRANCH   1  21
BRANCH   2  31
HETATM   31  C   UNK N   1      31.488  21.194  -7.915  0.00  0.00     0.232 C 
BRANCH  31  32
HETATM   32  N   UNK N   1      30.562  20.796  -9.017  0.00  0.00    -0.332 N 
HETATM   33  C   UNK N   1      30.597  19.593  -9.734  0.00  0.00     0.050 A 
HETATM   34  C   UNK N   1      31.529  18.563  -9.483  0.00  0.00     0.031 A 
HETATM   35  C   UNK N   1      29.660  19.349 -10.772  0.00  0.00     0.041 A 
HETATM   36  C   UNK N   1      31.560  17.374 -10.201  0.00  0.00     0.002 A 
HETATM   37  C   UNK N   1      30.636  17.162 -11.214  0.00  0.00     0.001 A 
HETATM   38  C   UNK N   1      29.690  18.144 -11.497  0.00  0.00     0.018 A 
HETATM   39  C   UNK N   1      28.713  20.324 -11.069  0.00  0.00     0.187 A 
HETATM   40  C   UNK N   1      28.691  21.502 -10.351  0.00  0.00     0.092 A 
HETATM   41  O   UNK N   1      27.893  20.144 -11.956  0.00  0.00    -0.287 OA
HETATM   42  C   UNK N   1      29.602  21.731  -9.320  0.00  0.00     0.077 A 
BRANCH  42  43
HETATM   43  S   UNK N   1      29.463  23.279  -8.395  0.00  0.00    -0.107 SA
BRANCH  43  44
HETATM   44  C   UNK N   1      27.676  23.446  -8.727  0.00  0.00     0.122 C 
BRANCH  44  45
HETATM   45  C   UNK N   1      27.035  24.075  -7.538  0.00  0.00    -0.007 A 
HETATM   46  C   UNK N   1      27.107  23.426  -6.302  0.00  0.00     0.011 A 
HETATM   47  C   UNK N   1      26.442  23.948  -5.192  0.00  0.00     0.004 A 
HETATM   48  C   UNK N   1      25.710  25.130  -5.312  0.00  0.00     0.045 A 
HETATM   49  C   UNK N   1      25.653  25.799  -6.538  0.00  0.00     0.155 A 
HETATM   50  C   UNK N   1      26.315  25.273  -7.656  0.00  0.00     0.161 A 
HETATM   51  F   UNK N   1      24.945  26.949  -6.643  0.00  0.00    -0.203 F 
HETATM   52  F   UNK N   1      26.247  25.922  -8.846  0.00  0.00    -0.202 F 
ENDBRANCH  44  45
ENDBRANCH  43  44
ENDBRANCH  42  43
ENDBRANCH  31  32
ENDBRANCH   2  31
TORSDOF 13
ENDMDL
MODEL 5
REMARK VINA RESULT:      -8.1      4.363      9.113
REMARK  13 active torsions:
REMARK  status: ('A' for Active; 'I' for Inactive)
REMARK    1  A    between atoms: C_2  and  C_13 
REMARK    2  A    between atoms: C_5  and  C_7 
REMARK    3  A    between atoms: C_10  and  C_49 
REMARK    4  A    between atoms: C_13  and  N_14 
REMARK       I    between atoms: N_14  and  C_15 
REMARK    5  A    between atoms: N_14  and  C_16 
REMARK    6  A    between atoms: C_15  and  C_17 
REMARK    7  A    between atoms: C_17  and  N_19 
REMARK    8  A    between atoms: C_24  and  S_29 
REMARK    9  A    between atoms: S_29  and  C_30 
REMARK   10  A    between atoms: C_30  and  C_31 
REMARK   11  A    between atoms: N_42  and  C_45 
REMARK   12  A    between atoms: C_45  and  C_46 
REMARK   13  A    between atoms: C_46  and  O_47 
ROOT
HETATM    1  N   UNK N   1      28.286  16.218   4.383  0.00  0.00    -0.342 N 
HETATM    2  C   UNK N   1      27.377  17.239   4.302  0.00  0.00     0.238 C 
HETATM    3  O   UNK N   1      27.101  17.733   3.217  0.00  0.00    -0.272 OA
ENDROOT
BRANCH   1   4
HETATM    4  C   UNK N   1      28.596  15.543   3.122  0.00  0.00     0.164 C 
BRANCH   4   5
HETATM    5  C   UNK N   1      27.431  14.803   2.663  0.00  0.00    -0.040 C 
HETATM    6  C   UNK N   1      26.654  15.316   1.627  0.00  0.00     0.010 C 
HETATM    7  C   UNK N   1      25.351  14.861   1.476  0.00  0.00     0.013 C 
HETATM    8  C   UNK N   1      24.843  13.940   2.403  0.00  0.00    -0.026 C 
HETATM    9  C   UNK N   1      25.671  13.370   3.368  0.00  0.00     0.013 C 
HETATM   10  C   UNK N   1      26.968  13.777   3.477  0.00  0.00     0.010 C 
BRANCH   8  11
HETATM   11  C   UNK N   1      23.415  13.877   2.622  0.00  0.00    -0.026 A 
HETATM   12  C   UNK N   1      22.622  14.775   1.895  0.00  0.00     0.013 A 
HETATM   13  C   UNK N   1      21.247  14.657   1.896  0.00  0.00     0.017 A 
HETATM   14  C   UNK N   1      20.642  13.659   2.657  0.00  0.00     0.048 A 
HETATM   15  C   UNK N   1      21.429  12.763   3.398  0.00  0.00     0.017 A 
HETATM   16  C   UNK N   1      22.819  12.843   3.345  0.00  0.00     0.013 A 
BRANCH  14  17
HETATM   17  C   UNK N   1      19.158  13.570   2.709  0.00  0.00     0.417 C 
HETATM   18  F   UNK N   1      18.686  14.301   3.783  0.00  0.00    -0.166 F 
HETATM   19  F   UNK N   1      18.746  12.255   2.844  0.00  0.00    -0.166 F 
HETATM   20  F   UNK N   1      18.650  14.086   1.534  0.00  0.00    -0.166 F 
ENDBRANCH  14  17
ENDBRANCH   8  11
ENDBRANCH   4   5
ENDBRANCH   1   4
BRANCH   1  21
HETATM   21  C   UNK N   1      28.889  15.700   5.633  0.00  0.00     0.090 C 
HETATM   22  C   UNK N   1      29.583  16.681   6.611  0.00  0.00     0.055 C 
HETATM   23  C   UNK N   1      31.048  16.975   6.243  0.00  0.00     0.274 C 
HETATM   24  N   UNK N   1      31.811  15.734   6.143  0.00  0.00     0.090 N 
HETATM   25  C   UNK N   1      31.264  14.984   5.013  0.00  0.00     0.274 C 
HETATM   26  C   UNK N   1      29.840  14.515   5.350  0.00  0.00     0.055 C 
BRANCH  24  27
HETATM   27  C   UNK N   1      33.196  16.087   5.842  0.00  0.00     0.298 C 
BRANCH  27  28
HETATM   28  C   UNK N   1      33.445  17.575   6.078  0.00  0.00     0.197 C 
BRANCH  28  29
HETATM   29  O   UNK N   1      34.607  17.767   6.830  0.00  0.00    -0.394 OA
HETATM   30  C   UNK N   1      34.164  18.243   8.065  0.00  0.00     0.201 C 
ENDBRANCH  28  29
ENDBRANCH  27  28
ENDBRANCH  24  27
ENDBRANCH   1  21
BRANCH   2  31
HETATM   31  C   UNK N   1      26.528  17.605   5.442  0.00  0.00     0.232 C 
BRANCH  31  32
HETATM   32  N   UNK N   1      25.066  17.516   5.148  0.00  0.00    -0.332 N 
HETATM   33  C   UNK N   1      24.312  18.436   4.409  0.00  0.00     0.050 A 
HETATM   34  C   UNK N   1      24.862  19.590   3.811  0.00  0.00     0.031 A 
HETATM   35  C   UNK N   1      22.921  18.234   4.218  0.00  0.00     0.041 A 
HETATM   36  C   UNK N   1      24.106  20.501   3.082  0.00  0.00     0.002 A 
HETATM   37  C   UNK N   1      22.747  20.283   2.914  0.00  0.00     0.001 A 
HETATM   38  C   UNK N   1      22.157  19.154   3.478  0.00  0.00     0.018 A 
HETATM   39  C   UNK N   1      22.318  17.113   4.781  0.00  0.00     0.187 A 
HETATM   40  C   UNK N   1      23.076  16.216   5.504  0.00  0.00     0.092 A 
HETATM   41  O   UNK N   1      21.123  16.912   4.634  0.00  0.00    -0.287 OA
HETATM   42  C   UNK N   1      24.447  16.408   5.675  0.00  0.00     0.077 A 
BRANCH  42  43
HETATM   43  S   UNK N   1      25.371  15.151   6.589  0.00  0.00    -0.107 SA
BRANCH  43  44
HETATM   44  C   UNK N   1      23.976  13.973   6.598  0.00  0.00     0.122 C 
BRANCH  44  45
HETATM   45  C   UNK N   1      23.717  13.563   8.007  0.00  0.00    -0.007 A 
HETATM   46  C   UNK N   1      24.730  12.928   8.730  0.00  0.00     0.011 A 
HETATM   47  C   UNK N   1      24.486  12.457  10.020  0.00  0.00     0.004 A 
HETATM   48  C   UNK N   1      23.228  12.629  10.598  0.00  0.00     0.045 A 
HETATM   49  C   UNK N   1      22.216  13.286   9.891  0.00  0.00     0.155 A 
HETATM   50  C   UNK N   1      22.456  13.755   8.593  0.00  0.00     0.161 A 
HETATM   51  F   UNK N   1      20.999  13.454  10.463  0.00  0.00    -0.203 F 
HETATM   52  F   UNK N   1      21.466  14.382   7.908  0.00  0.00    -0.202 F 
ENDBRANCH  44  45
ENDBRANCH  43  44
ENDBRANCH  42  43
ENDBRANCH  31  32
ENDBRANCH   2  31
TORSDOF 13
ENDMDL
MODEL 6
REMARK VINA RESULT:      -8.0      3.636      6.062
REMARK  13 active torsions:
REMARK  status: ('A' for Active; 'I' for Inactive)
REMARK    1  A    between atoms: C_2  and  C_13 
REMARK    2  A    between atoms: C_5  and  C_7 
REMARK    3  A    between atoms: C_10  and  C_49 
REMARK    4  A    between atoms: C_13  and  N_14 
REMARK       I    between atoms: N_14  and  C_15 
REMARK    5  A    between atoms: N_14  and  C_16 
REMARK    6  A    between atoms: C_15  and  C_17 
REMARK    7  A    between atoms: C_17  and  N_19 
REMARK    8  A    between atoms: C_24  and  S_29 
REMARK    9  A    between atoms: S_29  and  C_30 
REMARK   10  A    between atoms: C_30  and  C_31 
REMARK   11  A    between atoms: N_42  and  C_45 
REMARK   12  A    between atoms: C_45  and  C_46 
REMARK   13  A    between atoms: C_46  and  O_47 
ROOT
HETATM    1  N   UNK N   1      24.205  15.950   4.351  0.00  0.00    -0.342 N 
HETATM    2  C   UNK N   1      23.320  16.990   4.451  0.00  0.00     0.238 C 
HETATM    3  O   UNK N   1      23.368  17.919   3.657  0.00  0.00    -0.272 OA
ENDROOT
BRANCH   1   4
HETATM    4  C   UNK N   1      24.918  15.845   3.077  0.00  0.00     0.164 C 
BRANCH   4   5
HETATM    5  C   UNK N   1      26.189  16.545   3.168  0.00  0.00    -0.040 C 
HETATM    6  C   UNK N   1      27.335  15.963   2.630  0.00  0.00     0.010 C 
HETATM    7  C   UNK N   1      28.579  16.395   3.071  0.00  0.00     0.013 C 
HETATM    8  C   UNK N   1      28.640  17.365   4.081  0.00  0.00    -0.026 C 
HETATM    9  C   UNK N   1      27.484  18.001   4.530  0.00  0.00     0.013 C 
HETATM   10  C   UNK N   1      26.266  17.614   4.052  0.00  0.00     0.010 C 
BRANCH   8  11
HETATM   11  C   UNK N   1      29.810  17.427   4.927  0.00  0.00    -0.026 A 
HETATM   12  C   UNK N   1      29.615  17.203   6.297  0.00  0.00     0.013 A 
HETATM   13  C   UNK N   1      30.693  17.054   7.145  0.00  0.00     0.017 A 
HETATM   14  C   UNK N   1      31.987  17.163   6.640  0.00  0.00     0.048 A 
HETATM   15  C   UNK N   1      32.192  17.400   5.271  0.00  0.00     0.017 A 
HETATM   16  C   UNK N   1      31.103  17.487   4.406  0.00  0.00     0.013 A 
BRANCH  14  17
HETATM   17  C   UNK N   1      33.149  17.065   7.564  0.00  0.00     0.417 C 
HETATM   18  F   UNK N   1      32.908  17.820   8.696  0.00  0.00    -0.166 F 
HETATM   19  F   UNK N   1      34.305  17.523   6.954  0.00  0.00    -0.166 F 
HETATM   20  F   UNK N   1      33.315  15.740   7.913  0.00  0.00    -0.166 F 
ENDBRANCH  14  17
ENDBRANCH   8  11
ENDBRANCH   4   5
ENDBRANCH   1   4
BRANCH   1  21
HETATM   21  C   UNK N   1      24.417  14.899   5.373  0.00  0.00     0.090 C 
HETATM   22  C   UNK N   1      25.671  14.957   6.281  0.00  0.00     0.055 C 
HETATM   23  C   UNK N   1      26.920  14.326   5.639  0.00  0.00     0.274 C 
HETATM   24  N   UNK N   1      26.649  12.950   5.235  0.00  0.00     0.090 N 
HETATM   25  C   UNK N   1      25.644  13.003   4.173  0.00  0.00     0.274 C 
HETATM   26  C   UNK N   1      24.307  13.485   4.757  0.00  0.00     0.055 C 
BRANCH  24  27
HETATM   27  C   UNK N   1      27.883  12.398   4.682  0.00  0.00     0.298 C 
BRANCH  27  28
HETATM   28  C   UNK N   1      29.039  13.387   4.830  0.00  0.00     0.197 C 
BRANCH  28  29
HETATM   29  O   UNK N   1      30.258  12.764   4.553  0.00  0.00    -0.394 OA
HETATM   30  C   UNK N   1      31.198  13.796   4.540  0.00  0.00     0.201 C 
ENDBRANCH  28  29
ENDBRANCH  27  28
ENDBRANCH  24  27
ENDBRANCH   1  21
BRANCH   2  31
HETATM   31  C   UNK N   1      22.146  16.918   5.330  0.00  0.00     0.232 C 
BRANCH  31  32
HETATM   32  N   UNK N   1      21.243  15.769   5.024  0.00  0.00    -0.332 N 
HETATM   33  C   UNK N   1      20.708  15.447   3.770  0.00  0.00     0.050 A 
HETATM   34  C   UNK N   1      20.982  16.181   2.595  0.00  0.00     0.031 A 
HETATM   35  C   UNK N   1      19.847  14.329   3.623  0.00  0.00     0.041 A 
HETATM   36  C   UNK N   1      20.444  15.857   1.355  0.00  0.00     0.002 A 
HETATM   37  C   UNK N   1      19.601  14.762   1.239  0.00  0.00     0.001 A 
HETATM   38  C   UNK N   1      19.306  14.000   2.367  0.00  0.00     0.018 A 
HETATM   39  C   UNK N   1      19.539  13.562   4.743  0.00  0.00     0.187 A 
HETATM   40  C   UNK N   1      20.076  13.892   5.969  0.00  0.00     0.092 A 
HETATM   41  O   UNK N   1      18.802  12.594   4.648  0.00  0.00    -0.287 OA
HETATM   42  C   UNK N   1      20.936  14.981   6.107  0.00  0.00     0.077 A 
BRANCH  42  43
HETATM   43  S   UNK N   1      21.639  15.305   7.742  0.00  0.00    -0.107 SA
BRANCH  43  44
HETATM   44  C   UNK N   1      21.123  13.684   8.406  0.00  0.00     0.122 C 
BRANCH  44  45
HETATM   45  C   UNK N   1      22.189  13.193   9.325  0.00  0.00    -0.007 A 
HETATM   46  C   UNK N   1      23.516  13.186   8.886  0.00  0.00     0.011 A 
HETATM   47  C   UNK N   1      24.522  12.651   9.692  0.00  0.00     0.004 A 
HETATM   48  C   UNK N   1      24.204  12.131  10.947  0.00  0.00     0.045 A 
HETATM   49  C   UNK N   1      22.883  12.157  11.404  0.00  0.00     0.155 A 
HETATM   50  C   UNK N   1      21.871  12.688  10.595  0.00  0.00     0.161 A 
HETATM   51  F   UNK N   1      22.586  11.656  12.627  0.00  0.00    -0.203 F 
HETATM   52  F   UNK N   1      20.589  12.701  11.039  0.00  0.00    -0.202 F 
ENDBRANCH  44  45
ENDBRANCH  43  44
ENDBRANCH  42  43
ENDBRANCH  31  32
ENDBRANCH   2  31
TORSDOF 13
ENDMDL
MODEL 7
REMARK VINA RESULT:      -7.8     11.011     16.816
REMARK  13 active torsions:
REMARK  status: ('A' for Active; 'I' for Inactive)
REMARK    1  A    between atoms: C_2  and  C_13 
REMARK    2  A    between atoms: C_5  and  C_7 
REMARK    3  A    between atoms: C_10  and  C_49 
REMARK    4  A    between atoms: C_13  and  N_14 
REMARK       I    between atoms: N_14  and  C_15 
REMARK    5  A    between atoms: N_14  and  C_16 
REMARK    6  A    between atoms: C_15  and  C_17 
REMARK    7  A    between atoms: C_17  and  N_19 
REMARK    8  A    between atoms: C_24  and  S_29 
REMARK    9  A    between atoms: S_29  and  C_30 
REMARK   10  A    between atoms: C_30  and  C_31 
REMARK   11  A    between atoms: N_42  and  C_45 
REMARK   12  A    between atoms: C_45  and  C_46 
REMARK   13  A    between atoms: C_46  and  O_47 
ROOT
HETATM    1  N   UNK N   1      36.339  13.482  11.096  0.00  0.00    -0.342 N 
HETATM    2  C   UNK N   1      37.462  12.888  10.584  0.00  0.00     0.238 C 
HETATM    3  O   UNK N   1      38.532  12.984  11.170  0.00  0.00    -0.272 OA
ENDROOT
BRANCH   1   4
HETATM    4  C   UNK N   1      36.421  13.887  12.500  0.00  0.00     0.164 C 
BRANCH   4   5
HETATM    5  C   UNK N   1      36.127  12.748  13.356  0.00  0.00    -0.040 C 
HETATM    6  C   UNK N   1      34.806  12.345  13.536  0.00  0.00     0.010 C 
HETATM    7  C   UNK N   1      34.485  11.570  14.643  0.00  0.00     0.013 C 
HETATM    8  C   UNK N   1      35.490  11.263  15.570  0.00  0.00    -0.026 C 
HETATM    9  C   UNK N   1      36.820  11.594  15.316  0.00  0.00     0.013 C 
HETATM   10  C   UNK N   1      37.141  12.306  14.197  0.00  0.00     0.010 C 
BRANCH   8  11
HETATM   11  C   UNK N   1      35.122  10.974  16.938  0.00  0.00    -0.026 A 
HETATM   12  C   UNK N   1      34.547   9.721  17.188  0.00  0.00     0.013 A 
HETATM   13  C   UNK N   1      34.343   9.287  18.482  0.00  0.00     0.017 A 
HETATM   14  C   UNK N   1      34.679  10.119  19.548  0.00  0.00     0.048 A 
HETATM   15  C   UNK N   1      35.245  11.381  19.306  0.00  0.00     0.017 A 
HETATM   16  C   UNK N   1      35.509  11.791  18.001  0.00  0.00     0.013 A 
BRANCH  14  17
HETATM   17  C   UNK N   1      34.401   9.679  20.941  0.00  0.00     0.417 C 
HETATM   18  F   UNK N   1      35.539   9.829  21.712  0.00  0.00    -0.166 F 
HETATM   19  F   UNK N   1      34.010   8.350  20.971  0.00  0.00    -0.166 F 
HETATM   20  F   UNK N   1      33.385  10.462  21.451  0.00  0.00    -0.166 F 
ENDBRANCH  14  17
ENDBRANCH   8  11
ENDBRANCH   4   5
ENDBRANCH   1   4
BRANCH   1  21
HETATM   21  C   UNK N   1      35.054  13.652  10.380  0.00  0.00     0.090 C 
HETATM   22  C   UNK N   1      35.051  13.810   8.840  0.00  0.00     0.055 C 
HETATM   23  C   UNK N   1      35.290  15.257   8.374  0.00  0.00     0.274 C 
HETATM   24  N   UNK N   1      34.314  16.159   8.978  0.00  0.00     0.090 N 
HETATM   25  C   UNK N   1      34.566  16.162  10.419  0.00  0.00     0.274 C 
HETATM   26  C   UNK N   1      34.209  14.787  11.004  0.00  0.00     0.055 C 
BRANCH  24  27
HETATM   27  C   UNK N   1      34.567  17.500   8.457  0.00  0.00     0.298 C 
BRANCH  27  28
HETATM   28  C   UNK N   1      33.572  17.855   7.354  0.00  0.00     0.197 C 
BRANCH  28  29
HETATM   29  O   UNK N   1      34.207  17.886   6.110  0.00  0.00    -0.394 OA
HETATM   30  C   UNK N   1      33.309  17.282   5.229  0.00  0.00     0.201 C 
ENDBRANCH  28  29
ENDBRANCH  27  28
ENDBRANCH  24  27
ENDBRANCH   1  21
BRANCH   2  31
HETATM   31  C   UNK N   1      37.387  11.925   9.478  0.00  0.00     0.232 C 
BRANCH  31  32
HETATM   32  N   UNK N   1      38.533  10.968   9.444  0.00  0.00    -0.332 N 
HETATM   33  C   UNK N   1      39.751  11.159   8.780  0.00  0.00     0.050 A 
HETATM   34  C   UNK N   1      40.067  12.327   8.053  0.00  0.00     0.031 A 
HETATM   35  C   UNK N   1      40.753  10.155   8.818  0.00  0.00     0.041 A 
HETATM   36  C   UNK N   1      41.278  12.507   7.393  0.00  0.00     0.002 A 
HETATM   37  C   UNK N   1      42.239  11.508   7.442  0.00  0.00     0.001 A 
HETATM   38  C   UNK N   1      41.979  10.339   8.153  0.00  0.00     0.018 A 
HETATM   39  C   UNK N   1      40.505   8.979   9.520  0.00  0.00     0.187 A 
HETATM   40  C   UNK N   1      39.300   8.809  10.170  0.00  0.00     0.092 A 
HETATM   41  O   UNK N   1      41.348   8.097   9.572  0.00  0.00    -0.287 OA
HETATM   42  C   UNK N   1      38.324   9.805  10.145  0.00  0.00     0.077 A 
BRANCH  42  43
HETATM   43  S   UNK N   1      36.798   9.520  11.073  0.00  0.00    -0.107 SA
BRANCH  43  44
HETATM   44  C   UNK N   1      37.353   7.897  11.701  0.00  0.00     0.122 C 
BRANCH  44  45
HETATM   45  C   UNK N   1      37.357   7.947  13.190  0.00  0.00    -0.007 A 
HETATM   46  C   UNK N   1      38.444   8.525  13.850  0.00  0.00     0.011 A 
HETATM   47  C   UNK N   1      38.515   8.507  15.243  0.00  0.00     0.004 A 
HETATM   48  C   UNK N   1      37.489   7.919  15.984  0.00  0.00     0.045 A 
HETATM   49  C   UNK N   1      36.385   7.360  15.332  0.00  0.00     0.155 A 
HETATM   50  C   UNK N   1      36.315   7.371  13.934  0.00  0.00     0.161 A 
HETATM   51  F   UNK N   1      35.391   6.796  16.061  0.00  0.00    -0.203 F 
HETATM   52  F   UNK N   1      35.246   6.818  13.307  0.00  0.00    -0.202 F 
ENDBRANCH  44  45
ENDBRANCH  43  44
ENDBRANCH  42  43
ENDBRANCH  31  32
ENDBRANCH   2  31
TORSDOF 13
ENDMDL
MODEL 8
REMARK VINA RESULT:      -7.8      4.437      9.625
REMARK  13 active torsions:
REMARK  status: ('A' for Active; 'I' for Inactive)
REMARK    1  A    between atoms: C_2  and  C_13 
REMARK    2  A    between atoms: C_5  and  C_7 
REMARK    3  A    between atoms: C_10  and  C_49 
REMARK    4  A    between atoms: C_13  and  N_14 
REMARK       I    between atoms: N_14  and  C_15 
REMARK    5  A    between atoms: N_14  and  C_16 
REMARK    6  A    between atoms: C_15  and  C_17 
REMARK    7  A    between atoms: C_17  and  N_19 
REMARK    8  A    between atoms: C_24  and  S_29 
REMARK    9  A    between atoms: S_29  and  C_30 
REMARK   10  A    between atoms: C_30  and  C_31 
REMARK   11  A    between atoms: N_42  and  C_45 
REMARK   12  A    between atoms: C_45  and  C_46 
REMARK   13  A    between atoms: C_46  and  O_47 
ROOT
HETATM    1  N   UNK N   1      26.660  16.216   4.500  0.00  0.00    -0.342 N 
HETATM    2  C   UNK N   1      25.451  16.860   4.484  0.00  0.00     0.238 C 
HETATM    3  O   UNK N   1      25.057  17.406   3.462  0.00  0.00    -0.272 OA
ENDROOT
BRANCH   1   4
HETATM    4  C   UNK N   1      27.234  15.914   3.188  0.00  0.00     0.164 C 
BRANCH   4   5
HETATM    5  C   UNK N   1      26.388  14.958   2.492  0.00  0.00    -0.040 C 
HETATM    6  C   UNK N   1      25.724  15.345   1.330  0.00  0.00     0.010 C 
HETATM    7  C   UNK N   1      24.620  14.615   0.911  0.00  0.00     0.013 C 
HETATM    8  C   UNK N   1      24.177  13.544   1.700  0.00  0.00    -0.026 C 
HETATM    9  C   UNK N   1      24.916  13.117   2.802  0.00  0.00     0.013 C 
HETATM   10  C   UNK N   1      26.035  13.802   3.177  0.00  0.00     0.010 C 
BRANCH   8  11
HETATM   11  C   UNK N   1      22.790  13.141   1.627  0.00  0.00    -0.026 A 
HETATM   12  C   UNK N   1      21.912  14.011   0.964  0.00  0.00     0.013 A 
HETATM   13  C   UNK N   1      20.620  13.621   0.681  0.00  0.00     0.017 A 
HETATM   14  C   UNK N   1      20.173  12.365   1.090  0.00  0.00     0.048 A 
HETATM   15  C   UNK N   1      21.043  11.493   1.764  0.00  0.00     0.017 A 
HETATM   16  C   UNK N   1      22.367  11.864   1.993  0.00  0.00     0.013 A 
BRANCH  14  17
HETATM   17  C   UNK N   1      18.762  11.969   0.840  0.00  0.00     0.417 C 
HETATM   18  F   UNK N   1      18.681  10.596   0.706  0.00  0.00    -0.166 F 
HETATM   19  F   UNK N   1      18.278  12.563  -0.315  0.00  0.00    -0.166 F 
HETATM   20  F   UNK N   1      17.998  12.380   1.914  0.00  0.00    -0.166 F 
ENDBRANCH  14  17
ENDBRANCH   8  11
ENDBRANCH   4   5
ENDBRANCH   1   4
BRANCH   1  21
HETATM   21  C   UNK N   1      27.361  15.733   5.711  0.00  0.00     0.090 C 
HETATM   22  C   UNK N   1      27.858  16.753   6.766  0.00  0.00     0.055 C 
HETATM   23  C   UNK N   1      29.235  17.354   6.432  0.00  0.00     0.274 C 
HETATM   24  N   UNK N   1      30.224  16.296   6.244  0.00  0.00     0.090 N 
HETATM   25  C   UNK N   1      29.825  15.541   5.056  0.00  0.00     0.274 C 
HETATM   26  C   UNK N   1      28.522  14.780   5.347  0.00  0.00     0.055 C 
BRANCH  24  27
HETATM   27  C   UNK N   1      31.512  16.934   5.981  0.00  0.00     0.298 C 
BRANCH  27  28
HETATM   28  C   UNK N   1      31.522  17.599   4.606  0.00  0.00     0.197 C 
BRANCH  28  29
HETATM   29  O   UNK N   1      32.820  17.643   4.090  0.00  0.00    -0.394 OA
HETATM   30  C   UNK N   1      32.848  16.664   3.095  0.00  0.00     0.201 C 
ENDBRANCH  28  29
ENDBRANCH  27  28
ENDBRANCH  24  27
ENDBRANCH   1  21
BRANCH   2  31
HETATM   31  C   UNK N   1      24.487  16.713   5.581  0.00  0.00     0.232 C 
BRANCH  31  32
HETATM   32  N   UNK N   1      23.266  15.943   5.200  0.00  0.00    -0.332 N 
HETATM   33  C   UNK N   1      22.209  16.405   4.405  0.00  0.00     0.050 A 
HETATM   34  C   UNK N   1      22.175  17.694   3.829  0.00  0.00     0.031 A 
HETATM   35  C   UNK N   1      21.096  15.568   4.133  0.00  0.00     0.041 A 
HETATM   36  C   UNK N   1      21.120  18.147   3.045  0.00  0.00     0.002 A 
HETATM   37  C   UNK N   1      20.042  17.310   2.797  0.00  0.00     0.001 A 
HETATM   38  C   UNK N   1      20.031  16.026   3.337  0.00  0.00     0.018 A 
HETATM   39  C   UNK N   1      21.070  14.285   4.670  0.00  0.00     0.187 A 
HETATM   40  C   UNK N   1      22.120  13.844   5.449  0.00  0.00     0.092 A 
HETATM   41  O   UNK N   1      20.126  13.540   4.453  0.00  0.00    -0.287 OA
HETATM   42  C   UNK N   1      23.220  14.664   5.701  0.00  0.00     0.077 A 
BRANCH  42  43
HETATM   43  S   UNK N   1      24.577  13.983   6.684  0.00  0.00    -0.107 SA
BRANCH  43  44
HETATM   44  C   UNK N   1      23.666  12.451   7.082  0.00  0.00     0.122 C 
BRANCH  44  45
HETATM   45  C   UNK N   1      23.438  12.410   8.555  0.00  0.00    -0.007 A 
HETATM   46  C   UNK N   1      24.539  12.330   9.412  0.00  0.00     0.011 A 
HETATM   47  C   UNK N   1      24.352  12.203  10.789  0.00  0.00     0.004 A 
HETATM   48  C   UNK N   1      23.060  12.166  11.315  0.00  0.00     0.045 A 
HETATM   49  C   UNK N   1      21.954  12.270  10.466  0.00  0.00     0.155 A 
HETATM   50  C   UNK N   1      22.139  12.392   9.083  0.00  0.00     0.161 A 
HETATM   51  F   UNK N   1      20.704  12.240  10.987  0.00  0.00    -0.203 F 
HETATM   52  F   UNK N   1      21.061  12.482   8.264  0.00  0.00    -0.202 F 
ENDBRANCH  44  45
ENDBRANCH  43  44
ENDBRANCH  42  43
ENDBRANCH  31  32
ENDBRANCH   2  31
TORSDOF 13
ENDMDL
MODEL 9
REMARK VINA RESULT:      -7.8      4.558      9.783
REMARK  13 active torsions:
REMARK  status: ('A' for Active; 'I' for Inactive)
REMARK    1  A    between atoms: C_2  and  C_13 
REMARK    2  A    between atoms: C_5  and  C_7 
REMARK    3  A    between atoms: C_10  and  C_49 
REMARK    4  A    between atoms: C_13  and  N_14 
REMARK       I    between atoms: N_14  and  C_15 
REMARK    5  A    between atoms: N_14  and  C_16 
REMARK    6  A    between atoms: C_15  and  C_17 
REMARK    7  A    between atoms: C_17  and  N_19 
REMARK    8  A    between atoms: C_24  and  S_29 
REMARK    9  A    between atoms: S_29  and  C_30 
REMARK   10  A    between atoms: C_30  and  C_31 
REMARK   11  A    between atoms: N_42  and  C_45 
REMARK   12  A    between atoms: C_45  and  C_46 
REMARK   13  A    between atoms: C_46  and  O_47 
ROOT
HETATM    1  N   UNK N   1      26.101  14.851   4.520  0.00  0.00    -0.342 N 
HETATM    2  C   UNK N   1      25.246  14.314   5.444  0.00  0.00     0.238 C 
HETATM    3  O   UNK N   1      24.793  13.188   5.284  0.00  0.00    -0.272 OA
ENDROOT
BRANCH   1   4
HETATM    4  C   UNK N   1      26.702  13.900   3.584  0.00  0.00     0.164 C 
BRANCH   4   5
HETATM    5  C   UNK N   1      25.815  13.704   2.448  0.00  0.00    -0.040 C 
HETATM    6  C   UNK N   1      25.119  14.790   1.923  0.00  0.00     0.010 C 
HETATM    7  C   UNK N   1      23.987  14.555   1.153  0.00  0.00     0.013 C 
HETATM    8  C   UNK N   1      23.551  13.235   0.975  0.00  0.00    -0.026 C 
HETATM    9  C   UNK N   1      24.319  12.163   1.427  0.00  0.00     0.013 C 
HETATM   10  C   UNK N   1      25.463  12.397   2.134  0.00  0.00     0.010 C 
BRANCH   8  11
HETATM   11  C   UNK N   1      22.156  12.986   0.692  0.00  0.00    -0.026 A 
HETATM   12  C   UNK N   1      21.757  11.646   0.595  0.00  0.00     0.013 A 
HETATM   13  C   UNK N   1      20.420  11.314   0.520  0.00  0.00     0.017 A 
HETATM   14  C   UNK N   1      19.460  12.325   0.502  0.00  0.00     0.048 A 
HETATM   15  C   UNK N   1      19.851  13.670   0.586  0.00  0.00     0.017 A 
HETATM   16  C   UNK N   1      21.198  14.000   0.727  0.00  0.00     0.013 A 
BRANCH  14  17
HETATM   17  C   UNK N   1      18.022  11.971   0.357  0.00  0.00     0.417 C 
HETATM   18  F   UNK N   1      17.611  11.237   1.454  0.00  0.00    -0.166 F 
HETATM   19  F   UNK N   1      17.810  11.224  -0.790  0.00  0.00    -0.166 F 
HETATM   20  F   UNK N   1      17.293  13.141   0.277  0.00  0.00    -0.166 F 
ENDBRANCH  14  17
ENDBRANCH   8  11
ENDBRANCH   4   5
ENDBRANCH   1   4
BRANCH   1  21
HETATM   21  C   UNK N   1      26.524  16.269   4.461  0.00  0.00     0.090 C 
HETATM   22  C   UNK N   1      27.592  16.707   3.428  0.00  0.00     0.055 C 
HETATM   23  C   UNK N   1      29.037  16.488   3.913  0.00  0.00     0.274 C 
HETATM   24  N   UNK N   1      29.257  17.163   5.188  0.00  0.00     0.090 N 
HETATM   25  C   UNK N   1      28.406  16.503   6.177  0.00  0.00     0.274 C 
HETATM   26  C   UNK N   1      26.930  16.793   5.858  0.00  0.00     0.055 C 
BRANCH  24  27
HETATM   27  C   UNK N   1      30.654  16.957   5.564  0.00  0.00     0.298 C 
BRANCH  27  28
HETATM   28  C   UNK N   1      31.593  17.399   4.443  0.00  0.00     0.197 C 
BRANCH  28  29
HETATM   29  O   UNK N   1      32.826  16.751   4.549  0.00  0.00    -0.394 OA
HETATM   30  C   UNK N   1      33.502  17.424   5.569  0.00  0.00     0.201 C 
ENDBRANCH  28  29
ENDBRANCH  27  28
ENDBRANCH  24  27
ENDBRANCH   1  21
BRANCH   2  31
HETATM   31  C   UNK N   1      25.038  14.940   6.756  0.00  0.00     0.232 C 
BRANCH  31  32
HETATM   32  N   UNK N   1      23.743  14.562   7.397  0.00  0.00    -0.332 N 
HETATM   33  C   UNK N   1      23.575  13.656   8.452  0.00  0.00     0.050 A 
HETATM   34  C   UNK N   1      24.646  12.980   9.076  0.00  0.00     0.031 A 
HETATM   35  C   UNK N   1      22.278  13.377   8.957  0.00  0.00     0.041 A 
HETATM   36  C   UNK N   1      24.470  12.079  10.120  0.00  0.00     0.002 A 
HETATM   37  C   UNK N   1      23.192  11.820  10.593  0.00  0.00     0.001 A 
HETATM   38  C   UNK N   1      22.102  12.467  10.015  0.00  0.00     0.018 A 
HETATM   39  C   UNK N   1      21.180  14.012   8.386  0.00  0.00     0.187 A 
HETATM   40  C   UNK N   1      21.364  14.903   7.350  0.00  0.00     0.092 A 
HETATM   41  O   UNK N   1      20.052  13.793   8.800  0.00  0.00    -0.287 OA
HETATM   42  C   UNK N   1      22.641  15.188   6.867  0.00  0.00     0.077 A 
BRANCH  42  43
HETATM   43  S   UNK N   1      22.793  16.413   5.544  0.00  0.00    -0.107 SA
BRANCH  43  44
HETATM   44  C   UNK N   1      20.989  16.519   5.284  0.00  0.00     0.122 C 
BRANCH  44  45
HETATM   45  C   UNK N   1      20.736  17.373   4.090  0.00  0.00    -0.007 A 
HETATM   46  C   UNK N   1      20.431  16.766   2.869  0.00  0.00     0.011 A 
HETATM   47  C   UNK N   1      20.276  17.537   1.717  0.00  0.00     0.004 A 
HETATM   48  C   UNK N   1      20.415  18.924   1.784  0.00  0.00     0.045 A 
HETATM   49  C   UNK N   1      20.695  19.542   3.007  0.00  0.00     0.155 A 
HETATM   50  C   UNK N   1      20.857  18.770   4.164  0.00  0.00     0.161 A 
HETATM   51  F   UNK N   1      20.821  20.890   3.063  0.00  0.00    -0.203 F 
HETATM   52  F   UNK N   1      21.139  19.375   5.345  0.00  0.00    -0.202 F 
ENDBRANCH  44  45
ENDBRANCH  43  44
ENDBRANCH  42  43
ENDBRANCH  31  32
ENDBRANCH   2  31
TORSDOF 13
ENDMDL
