REMARK  6 active torsions:
REMARK  status: ('A' for Active; 'I' for Inactive)
REMARK    1  A    between atoms: S_2  and  C_13 
REMARK    2  A    between atoms: S_2  and  C_14 
REMARK    3  A    between atoms: O_5  and  C_15 
REMARK    4  A    between atoms: N_7  and  C_8 
REMARK       I    between atoms: N_7  and  C_12 
REMARK    5  A    between atoms: C_12  and  C_13 
REMARK    6  A    between atoms: C_14  and  C_15 
ROOT
HETATM    1  O   UNK N   1       4.822  -0.802   0.344  0.00  0.00    -0.273 OA
HETATM    2  N   UNK N   1       2.668  -1.261  -0.092  0.00  0.00    -0.348 N 
HETATM    3  C   UNK N   1       3.732  -0.416  -0.049  0.00  0.00     0.227 C 
HETATM    4  H   UNK N   1       1.823  -0.935  -0.476  0.00  0.00     0.163 HD
ENDROOT
BRANCH   3   5
HETATM    5  C   UNK N   1       3.567   0.996  -0.508  0.00  0.00     0.177 C 
BRANCH   5   6
HETATM    6  S   UNK N   1       4.104   2.169   0.779  0.00  0.00    -0.149 SA
BRANCH   6   7
HETATM    7  C   UNK N   1       4.770   3.320  -0.464  0.00  0.00     0.184 C 
BRANCH   7   8
HETATM    8  C   UNK N   1       6.147   3.781  -0.111  0.00  0.00     0.149 C 
HETATM    9  O   UNK N   1       7.067   2.984  -0.036  0.00  0.00    -0.649 OA
BRANCH   8  10
HETATM   10  O   UNK N   1       6.377   5.092   0.093  0.00  0.00    -0.776 OA
HETATM   11  H   UNK N   1       7.247   5.410   0.235  0.00  0.00     0.167 HD
ENDBRANCH   8  10
ENDBRANCH   7   8
ENDBRANCH   6   7
ENDBRANCH   5   6
ENDBRANCH   3   5
BRANCH   2  12
HETATM   12  C   UNK N   1       2.724  -2.622   0.405  0.00  0.00     0.166 C 
HETATM   13  C   UNK N   1       3.768  -3.448  -0.331  0.00  0.00     0.044 C 
HETATM   14  C   UNK N   1       3.378  -4.906  -0.164  0.00  0.00     0.085 C 
HETATM   15  S   UNK N   1       1.580  -5.024  -0.430  0.00  0.00    -0.090 SA
HETATM   16  C   UNK N   1       1.447  -3.344   0.157  0.00  0.00     0.208 C 
HETATM   17  O   UNK N   1       0.362  -2.845   0.407  0.00  0.00    -0.283 OA
ENDBRANCH   2  12
TORSDOF 6
