MODEL 1
REMARK VINA RESULT:      -8.0      0.000      0.000
REMARK  23 active torsions:
REMARK  status: ('A' for Active; 'I' for Inactive)
REMARK    1  A    between atoms: O_4  and  C_35 
REMARK    2  A    between atoms: O_5  and  C_42 
REMARK    3  A    between atoms: O_7  and  C_41 
REMARK    4  A    between atoms: O_10  and  C_47 
REMARK    5  A    between atoms: C_19  and  N_11 
REMARK       I    between atoms: N_11  and  C_24 
REMARK       I    between atoms: N_12  and  C_22 
REMARK    6  A    between atoms: N_12  and  C_26 
REMARK    7  A    between atoms: C_23  and  N_13 
REMARK       I    between atoms: N_14  and  C_28 
REMARK    8  A    between atoms: C_29  and  N_14 
REMARK    9  A    between atoms: C_30  and  N_15 
REMARK       I    between atoms: N_15  and  C_40 
REMARK       I    between atoms: N_16  and  C_34 
REMARK   10  A    between atoms: N_16  and  C_39 
REMARK   11  A    between atoms: C_17  and  C_18 
REMARK   12  A    between atoms: C_17  and  C_19 
REMARK   13  A    between atoms: C_19  and  C_22 
REMARK   14  A    between atoms: C_23  and  C_24 
REMARK   15  A    between atoms: C_23  and  C_25 
REMARK   16  A    between atoms: C_25  and  C_27 
REMARK   17  A    between atoms: C_26  and  C_28 
REMARK   18  A    between atoms: C_29  and  C_34 
REMARK   19  A    between atoms: C_29  and  C_35 
REMARK   20  A    between atoms: C_30  and  C_33 
REMARK   21  A    between atoms: C_30  and  C_42 
REMARK   22  A    between atoms: C_33  and  C_36 
REMARK   23  A    between atoms: C_39  and  C_40 
ROOT
HETATM    1  O   UNK N   1      32.047  14.423   9.026  0.00  0.00    -0.272 OA
HETATM    2  N   UNK N   1      33.188  14.893   7.189  0.00  0.00    -0.344 N 
HETATM    3  C   UNK N   1      32.944  15.068   8.504  0.00  0.00     0.236 C 
HETATM    4  H   UNK N   1      32.618  14.270   6.684  0.00  0.00     0.163 HD
ENDROOT
BRANCH   2   5
HETATM    5  C   UNK N   1      34.243  15.579   6.488  0.00  0.00     0.200 C 
BRANCH   5   6
HETATM    6  C   UNK N   1      33.881  16.853   5.773  0.00  0.00     0.242 C 
HETATM    7  O   UNK N   1      34.158  17.917   6.302  0.00  0.00    -0.271 OA
HETATM    8  N   UNK N   1      33.232  16.856   4.568  0.00  0.00    -0.350 N 
HETATM    9  H   UNK N   1      33.034  17.731   4.162  0.00  0.00     0.163 HD
BRANCH   8  10
HETATM   10  C   UNK N   1      32.808  15.666   3.838  0.00  0.00     0.225 C 
BRANCH  10  11
HETATM   11  C   UNK N   1      31.397  15.348   4.187  0.00  0.00     0.236 C 
HETATM   12  O   UNK N   1      31.176  14.483   5.019  0.00  0.00    -0.272 OA
HETATM   13  N   UNK N   1      30.428  16.201   3.770  0.00  0.00    -0.346 N 
HETATM   14  H   UNK N   1      30.572  16.664   2.914  0.00  0.00     0.163 HD
BRANCH  13  15
HETATM   15  C   UNK N   1      29.195  16.488   4.481  0.00  0.00     0.188 C 
BRANCH  15  16
HETATM   16  C   UNK N   1      29.148  17.932   4.970  0.00  0.00     0.074 C 
BRANCH  16  17
HETATM   17  C   UNK N   1      29.235  17.933   6.452  0.00  0.00    -0.056 A 
HETATM   18  C   UNK N   1      28.187  18.495   7.185  0.00  0.00     0.010 A 
HETATM   19  C   UNK N   1      28.315  18.664   8.563  0.00  0.00     0.037 A 
HETATM   20  C   UNK N   1      29.494  18.280   9.206  0.00  0.00     0.065 A 
HETATM   21  C   UNK N   1      30.539  17.705   8.475  0.00  0.00     0.037 A 
HETATM   22  C   UNK N   1      30.414  17.541   7.095  0.00  0.00     0.010 A 
BRANCH  20  23
HETATM   23  O   UNK N   1      29.626  18.469  10.528  0.00  0.00    -0.361 OA
HETATM   24  H   UNK N   1      29.154  19.070  11.071  0.00  0.00     0.217 HD
ENDBRANCH  20  23
ENDBRANCH  16  17
ENDBRANCH  15  16
BRANCH  15  25
HETATM   25  C   UNK N   1      27.882  16.002   3.916  0.00  0.00     0.281 C 
HETATM   26  O   UNK N   1      26.898  15.868   4.629  0.00  0.00    -0.263 OA
BRANCH  25  27
HETATM   27  O   UNK N   1      27.839  15.662   2.604  0.00  0.00    -0.325 OA
HETATM   28  C   UNK N   1      26.679  15.286   1.972  0.00  0.00     0.213 C 
ENDBRANCH  25  27
ENDBRANCH  15  25
ENDBRANCH  13  15
ENDBRANCH  10  11
ENDBRANCH   8  10
ENDBRANCH   5   6
BRANCH   5  29
HETATM   29  C   UNK N   1      35.628  14.937   6.416  0.00  0.00     0.199 C 
BRANCH  29  30
HETATM   30  O   UNK N   1      35.765  14.209   5.229  0.00  0.00    -0.398 OA
HETATM   31  H   UNK N   1      36.587  14.233   4.715  0.00  0.00     0.209 HD
ENDBRANCH  29  30
ENDBRANCH   5  29
ENDBRANCH   2   5
BRANCH   3  32
HETATM   32  C   UNK N   1      33.761  16.032   9.341  0.00  0.00     0.225 C 
BRANCH  32  33
HETATM   33  N   UNK N   1      34.529  15.250  10.267  0.00  0.00    -0.351 N 
HETATM   34  C   UNK N   1      35.724  15.705  10.702  0.00  0.00     0.240 C 
HETATM   35  O   UNK N   1      36.043  16.871  10.537  0.00  0.00    -0.271 OA
HETATM   36  H   UNK N   1      34.186  14.383  10.583  0.00  0.00     0.163 HD
BRANCH  34  37
HETATM   37  C   UNK N   1      36.724  14.692  11.151  0.00  0.00     0.177 C 
BRANCH  37  38
HETATM   38  N   UNK N   1      36.789  14.507  12.581  0.00  0.00    -0.346 N 
HETATM   39  C   UNK N   1      35.793  13.974  13.319  0.00  0.00     0.240 C 
HETATM   40  O   UNK N   1      34.740  13.623  12.801  0.00  0.00    -0.271 OA
HETATM   41  H   UNK N   1      37.611  14.786  13.047  0.00  0.00     0.163 HD
BRANCH  39  42
HETATM   42  C   UNK N   1      36.002  13.805  14.777  0.00  0.00     0.171 C 
BRANCH  42  43
HETATM   43  N   UNK N   1      37.391  13.418  14.995  0.00  0.00    -0.418 N 
HETATM   44  H   UNK N   1      37.719  12.758  15.700  0.00  0.00     0.150 HD
HETATM   45  H   UNK N   1      38.094  13.846  14.392  0.00  0.00     0.150 HD
ENDBRANCH  42  43
BRANCH  42  46
HETATM   46  C   UNK N   1      34.983  12.795  15.333  0.00  0.00     0.072 C 
BRANCH  46  47
HETATM   47  C   UNK N   1      35.243  12.449  16.757  0.00  0.00    -0.056 A 
HETATM   48  C   UNK N   1      35.522  11.128  17.126  0.00  0.00     0.010 A 
HETATM   49  C   UNK N   1      35.613  10.790  18.478  0.00  0.00     0.037 A 
HETATM   50  C   UNK N   1      35.423  11.771  19.456  0.00  0.00     0.065 A 
HETATM   51  C   UNK N   1      35.171  13.094  19.083  0.00  0.00     0.037 A 
HETATM   52  C   UNK N   1      35.077  13.432  17.733  0.00  0.00     0.010 A 
BRANCH  50  53
HETATM   53  O   UNK N   1      35.474  11.440  20.754  0.00  0.00    -0.361 OA
HETATM   54  H   UNK N   1      36.097  10.822  21.087  0.00  0.00     0.217 HD
ENDBRANCH  50  53
ENDBRANCH  46  47
ENDBRANCH  42  46
ENDBRANCH  39  42
ENDBRANCH  37  38
BRANCH  37  55
HETATM   55  C   UNK N   1      36.796  13.395  10.378  0.00  0.00     0.038 C 
BRANCH  55  56
HETATM   56  C   UNK N   1      38.063  12.694  10.840  0.00  0.00    -0.020 C 
HETATM   57  C   UNK N   1      39.068  12.625   9.702  0.00  0.00     0.009 C 
HETATM   58  C   UNK N   1      37.757  11.303  11.341  0.00  0.00     0.009 C 
ENDBRANCH  55  56
ENDBRANCH  37  55
ENDBRANCH  34  37
ENDBRANCH  32  33
ENDBRANCH   3  32
TORSDOF 23
ENDMDL
MODEL 2
REMARK VINA RESULT:      -7.9      2.241      4.330
REMARK  23 active torsions:
REMARK  status: ('A' for Active; 'I' for Inactive)
REMARK    1  A    between atoms: O_4  and  C_35 
REMARK    2  A    between atoms: O_5  and  C_42 
REMARK    3  A    between atoms: O_7  and  C_41 
REMARK    4  A    between atoms: O_10  and  C_47 
REMARK    5  A    between atoms: C_19  and  N_11 
REMARK       I    between atoms: N_11  and  C_24 
REMARK       I    between atoms: N_12  and  C_22 
REMARK    6  A    between atoms: N_12  and  C_26 
REMARK    7  A    between atoms: C_23  and  N_13 
REMARK       I    between atoms: N_14  and  C_28 
REMARK    8  A    between atoms: C_29  and  N_14 
REMARK    9  A    between atoms: C_30  and  N_15 
REMARK       I    between atoms: N_15  and  C_40 
REMARK       I    between atoms: N_16  and  C_34 
REMARK   10  A    between atoms: N_16  and  C_39 
REMARK   11  A    between atoms: C_17  and  C_18 
REMARK   12  A    between atoms: C_17  and  C_19 
REMARK   13  A    between atoms: C_19  and  C_22 
REMARK   14  A    between atoms: C_23  and  C_24 
REMARK   15  A    between atoms: C_23  and  C_25 
REMARK   16  A    between atoms: C_25  and  C_27 
REMARK   17  A    between atoms: C_26  and  C_28 
REMARK   18  A    between atoms: C_29  and  C_34 
REMARK   19  A    between atoms: C_29  and  C_35 
REMARK   20  A    between atoms: C_30  and  C_33 
REMARK   21  A    between atoms: C_30  and  C_42 
REMARK   22  A    between atoms: C_33  and  C_36 
REMARK   23  A    between atoms: C_39  and  C_40 
ROOT
HETATM    1  O   UNK N   1      38.546  13.665   9.180  0.00  0.00    -0.272 OA
HETATM    2  N   UNK N   1      37.389  14.971  10.542  0.00  0.00    -0.344 N 
HETATM    3  C   UNK N   1      37.461  13.945   9.669  0.00  0.00     0.236 C 
HETATM    4  H   UNK N   1      38.209  15.479  10.739  0.00  0.00     0.163 HD
ENDROOT
BRANCH   2   5
HETATM    5  C   UNK N   1      36.167  15.358  11.199  0.00  0.00     0.200 C 
BRANCH   5   6
HETATM    6  C   UNK N   1      35.361  16.458  10.561  0.00  0.00     0.242 C 
HETATM    7  O   UNK N   1      35.841  17.579  10.512  0.00  0.00    -0.271 OA
HETATM    8  N   UNK N   1      34.104  16.249  10.062  0.00  0.00    -0.350 N 
HETATM    9  H   UNK N   1      33.643  17.018   9.657  0.00  0.00     0.163 HD
BRANCH   8  10
HETATM   10  C   UNK N   1      33.392  14.975  10.084  0.00  0.00     0.225 C 
BRANCH  10  11
HETATM   11  C   UNK N   1      32.944  14.635   8.706  0.00  0.00     0.236 C 
HETATM   12  O   UNK N   1      32.101  13.765   8.557  0.00  0.00    -0.272 OA
HETATM   13  N   UNK N   1      33.287  15.475   7.697  0.00  0.00    -0.346 N 
HETATM   14  H   UNK N   1      34.150  15.942   7.773  0.00  0.00     0.163 HD
BRANCH  13  15
HETATM   15  C   UNK N   1      32.489  15.742   6.514  0.00  0.00     0.188 C 
BRANCH  15  16
HETATM   16  C   UNK N   1      32.044  17.199   6.452  0.00  0.00     0.074 C 
BRANCH  16  17
HETATM   17  C   UNK N   1      30.839  17.363   7.305  0.00  0.00    -0.056 A 
HETATM   18  C   UNK N   1      29.586  17.072   6.761  0.00  0.00     0.010 A 
HETATM   19  C   UNK N   1      28.429  17.376   7.477  0.00  0.00     0.037 A 
HETATM   20  C   UNK N   1      28.526  17.979   8.734  0.00  0.00     0.065 A 
HETATM   21  C   UNK N   1      29.781  18.259   9.286  0.00  0.00     0.037 A 
HETATM   22  C   UNK N   1      30.938  17.959   8.567  0.00  0.00     0.010 A 
BRANCH  20  23
HETATM   23  O   UNK N   1      27.412  18.297   9.409  0.00  0.00    -0.361 OA
HETATM   24  H   UNK N   1      26.577  17.873   9.370  0.00  0.00     0.217 HD
ENDBRANCH  20  23
ENDBRANCH  16  17
ENDBRANCH  15  16
BRANCH  15  25
HETATM   25  C   UNK N   1      32.933  15.192   5.180  0.00  0.00     0.281 C 
HETATM   26  O   UNK N   1      33.627  14.188   5.111  0.00  0.00    -0.263 OA
BRANCH  25  27
HETATM   27  O   UNK N   1      32.588  15.875   4.061  0.00  0.00    -0.325 OA
HETATM   28  C   UNK N   1      31.659  15.409   3.163  0.00  0.00     0.213 C 
ENDBRANCH  25  27
ENDBRANCH  15  25
ENDBRANCH  13  15
ENDBRANCH  10  11
ENDBRANCH   8  10
ENDBRANCH   5   6
BRANCH   5  29
HETATM   29  C   UNK N   1      35.809  14.721  12.541  0.00  0.00     0.199 C 
BRANCH  29  30
HETATM   30  O   UNK N   1      36.804  14.988  13.486  0.00  0.00    -0.398 OA
HETATM   31  H   UNK N   1      37.461  14.317  13.731  0.00  0.00     0.209 HD
ENDBRANCH  29  30
ENDBRANCH   5  29
ENDBRANCH   2   5
BRANCH   3  32
HETATM   32  C   UNK N   1      36.237  13.134   9.294  0.00  0.00     0.225 C 
BRANCH  32  33
HETATM   33  N   UNK N   1      36.329  11.878   9.980  0.00  0.00    -0.351 N 
HETATM   34  C   UNK N   1      35.216  11.142  10.189  0.00  0.00     0.240 C 
HETATM   35  O   UNK N   1      34.185  11.388   9.583  0.00  0.00    -0.271 OA
HETATM   36  H   UNK N   1      37.202  11.554  10.300  0.00  0.00     0.163 HD
BRANCH  34  37
HETATM   37  C   UNK N   1      35.218  10.204  11.350  0.00  0.00     0.177 C 
BRANCH  37  38
HETATM   38  N   UNK N   1      35.407  10.839  12.632  0.00  0.00    -0.346 N 
HETATM   39  C   UNK N   1      36.609  11.007  13.221  0.00  0.00     0.240 C 
HETATM   40  O   UNK N   1      37.637  10.603  12.689  0.00  0.00    -0.271 OA
HETATM   41  H   UNK N   1      34.610  11.169  13.107  0.00  0.00     0.163 HD
BRANCH  39  42
HETATM   42  C   UNK N   1      36.670  11.709  14.525  0.00  0.00     0.171 C 
BRANCH  42  43
HETATM   43  N   UNK N   1      37.989  12.318  14.653  0.00  0.00    -0.418 N 
HETATM   44  H   UNK N   1      38.707  12.334  13.929  0.00  0.00     0.150 HD
HETATM   45  H   UNK N   1      38.211  12.766  15.542  0.00  0.00     0.150 HD
ENDBRANCH  42  43
BRANCH  42  46
HETATM   46  C   UNK N   1      36.329  10.727  15.660  0.00  0.00     0.072 C 
BRANCH  46  47
HETATM   47  C   UNK N   1      35.808  11.417  16.872  0.00  0.00    -0.056 A 
HETATM   48  C   UNK N   1      35.414  12.759  16.810  0.00  0.00     0.010 A 
HETATM   49  C   UNK N   1      35.073  13.436  17.982  0.00  0.00     0.037 A 
HETATM   50  C   UNK N   1      35.130  12.773  19.212  0.00  0.00     0.065 A 
HETATM   51  C   UNK N   1      35.498  11.426  19.267  0.00  0.00     0.037 A 
HETATM   52  C   UNK N   1      35.842  10.749  18.097  0.00  0.00     0.010 A 
BRANCH  50  53
HETATM   53  O   UNK N   1      34.839  13.433  20.342  0.00  0.00    -0.361 OA
HETATM   54  H   UNK N   1      34.084  13.985  20.416  0.00  0.00     0.217 HD
ENDBRANCH  50  53
ENDBRANCH  46  47
ENDBRANCH  42  46
ENDBRANCH  39  42
ENDBRANCH  37  38
BRANCH  37  55
HETATM   55  C   UNK N   1      34.166   9.120  11.371  0.00  0.00     0.038 C 
BRANCH  55  56
HETATM   56  C   UNK N   1      34.915   7.798  11.289  0.00  0.00    -0.020 C 
HETATM   57  C   UNK N   1      35.265   7.309  12.685  0.00  0.00     0.009 C 
HETATM   58  C   UNK N   1      36.170   7.940  10.463  0.00  0.00     0.009 C 
ENDBRANCH  55  56
ENDBRANCH  37  55
ENDBRANCH  34  37
ENDBRANCH  32  33
ENDBRANCH   3  32
TORSDOF 23
ENDMDL
MODEL 3
REMARK VINA RESULT:      -7.8      6.930     11.404
REMARK  23 active torsions:
REMARK  status: ('A' for Active; 'I' for Inactive)
REMARK    1  A    between atoms: O_4  and  C_35 
REMARK    2  A    between atoms: O_5  and  C_42 
REMARK    3  A    between atoms: O_7  and  C_41 
REMARK    4  A    between atoms: O_10  and  C_47 
REMARK    5  A    between atoms: C_19  and  N_11 
REMARK       I    between atoms: N_11  and  C_24 
REMARK       I    between atoms: N_12  and  C_22 
REMARK    6  A    between atoms: N_12  and  C_26 
REMARK    7  A    between atoms: C_23  and  N_13 
REMARK       I    between atoms: N_14  and  C_28 
REMARK    8  A    between atoms: C_29  and  N_14 
REMARK    9  A    between atoms: C_30  and  N_15 
REMARK       I    between atoms: N_15  and  C_40 
REMARK       I    between atoms: N_16  and  C_34 
REMARK   10  A    between atoms: N_16  and  C_39 
REMARK   11  A    between atoms: C_17  and  C_18 
REMARK   12  A    between atoms: C_17  and  C_19 
REMARK   13  A    between atoms: C_19  and  C_22 
REMARK   14  A    between atoms: C_23  and  C_24 
REMARK   15  A    between atoms: C_23  and  C_25 
REMARK   16  A    between atoms: C_25  and  C_27 
REMARK   17  A    between atoms: C_26  and  C_28 
REMARK   18  A    between atoms: C_29  and  C_34 
REMARK   19  A    between atoms: C_29  and  C_35 
REMARK   20  A    between atoms: C_30  and  C_33 
REMARK   21  A    between atoms: C_30  and  C_42 
REMARK   22  A    between atoms: C_33  and  C_36 
REMARK   23  A    between atoms: C_39  and  C_40 
ROOT
HETATM    1  O   UNK N   1      24.567  16.672   3.370  0.00  0.00    -0.272 OA
HETATM    2  N   UNK N   1      22.485  17.094   3.992  0.00  0.00    -0.344 N 
HETATM    3  C   UNK N   1      23.777  17.462   3.866  0.00  0.00     0.236 C 
HETATM    4  H   UNK N   1      22.224  16.190   3.704  0.00  0.00     0.163 HD
ENDROOT
BRANCH   2   5
HETATM    5  C   UNK N   1      21.472  17.963   4.531  0.00  0.00     0.200 C 
BRANCH   5   6
HETATM    6  C   UNK N   1      21.168  17.839   6.001  0.00  0.00     0.242 C 
HETATM    7  O   UNK N   1      21.638  18.666   6.765  0.00  0.00    -0.271 OA
HETATM    8  N   UNK N   1      20.407  16.820   6.507  0.00  0.00    -0.350 N 
HETATM    9  H   UNK N   1      20.250  16.811   7.478  0.00  0.00     0.163 HD
BRANCH   8  10
HETATM   10  C   UNK N   1      19.812  15.745   5.721  0.00  0.00     0.225 C 
BRANCH  10  11
HETATM   11  C   UNK N   1      20.358  14.437   6.178  0.00  0.00     0.236 C 
HETATM   12  O   UNK N   1      19.805  13.410   5.820  0.00  0.00    -0.272 OA
HETATM   13  N   UNK N   1      21.589  14.424   6.749  0.00  0.00    -0.346 N 
HETATM   14  H   UNK N   1      21.851  15.214   7.274  0.00  0.00     0.163 HD
BRANCH  13  15
HETATM   15  C   UNK N   1      22.550  13.340   6.653  0.00  0.00     0.188 C 
BRANCH  15  16
HETATM   16  C   UNK N   1      22.122  12.132   7.478  0.00  0.00     0.074 C 
BRANCH  16  17
HETATM   17  C   UNK N   1      22.647  12.291   8.858  0.00  0.00    -0.056 A 
HETATM   18  C   UNK N   1      24.029  12.257   9.059  0.00  0.00     0.010 A 
HETATM   19  C   UNK N   1      24.543  12.233  10.354  0.00  0.00     0.037 A 
HETATM   20  C   UNK N   1      23.674  12.234  11.449  0.00  0.00     0.065 A 
HETATM   21  C   UNK N   1      22.291  12.282  11.250  0.00  0.00     0.037 A 
HETATM   22  C   UNK N   1      21.776  12.301   9.953  0.00  0.00     0.010 A 
BRANCH  20  23
HETATM   23  O   UNK N   1      24.170  12.183  12.695  0.00  0.00    -0.361 OA
HETATM   24  H   UNK N   1      24.422  12.902  13.241  0.00  0.00     0.217 HD
ENDBRANCH  20  23
ENDBRANCH  16  17
ENDBRANCH  15  16
BRANCH  15  25
HETATM   25  C   UNK N   1      23.123  12.975   5.305  0.00  0.00     0.281 C 
HETATM   26  O   UNK N   1      23.719  11.921   5.137  0.00  0.00    -0.263 OA
BRANCH  25  27
HETATM   27  O   UNK N   1      23.010  13.875   4.297  0.00  0.00    -0.325 OA
HETATM   28  C   UNK N   1      22.367  13.592   3.116  0.00  0.00     0.213 C 
ENDBRANCH  25  27
ENDBRANCH  15  25
ENDBRANCH  13  15
ENDBRANCH  10  11
ENDBRANCH   8  10
ENDBRANCH   5   6
BRANCH   5  29
HETATM   29  C   UNK N   1      20.693  18.875   3.584  0.00  0.00     0.199 C 
BRANCH  29  30
HETATM   30  O   UNK N   1      20.651  20.178   4.089  0.00  0.00    -0.398 OA
HETATM   31  H   UNK N   1      20.617  20.947   3.499  0.00  0.00     0.209 HD
ENDBRANCH  29  30
ENDBRANCH   5  29
ENDBRANCH   2   5
BRANCH   3  32
HETATM   32  C   UNK N   1      24.262  18.826   4.313  0.00  0.00     0.225 C 
BRANCH  32  33
HETATM   33  N   UNK N   1      25.169  18.622   5.405  0.00  0.00    -0.351 N 
HETATM   34  C   UNK N   1      26.387  19.206   5.387  0.00  0.00     0.240 C 
HETATM   35  O   UNK N   1      26.632  20.107   4.601  0.00  0.00    -0.271 OA
HETATM   36  H   UNK N   1      24.904  18.056   6.166  0.00  0.00     0.163 HD
BRANCH  34  37
HETATM   37  C   UNK N   1      27.476  18.551   6.168  0.00  0.00     0.177 C 
BRANCH  37  38
HETATM   38  N   UNK N   1      28.554  18.023   5.366  0.00  0.00    -0.346 N 
HETATM   39  C   UNK N   1      28.487  16.863   4.681  0.00  0.00     0.240 C 
HETATM   40  O   UNK N   1      27.482  16.163   4.717  0.00  0.00    -0.271 OA
HETATM   41  H   UNK N   1      29.390  18.541   5.315  0.00  0.00     0.163 HD
BRANCH  39  42
HETATM   42  C   UNK N   1      29.654  16.451   3.864  0.00  0.00     0.171 C 
BRANCH  42  43
HETATM   43  N   UNK N   1      29.159  15.929   2.596  0.00  0.00    -0.418 N 
HETATM   44  H   UNK N   1      28.851  14.972   2.428  0.00  0.00     0.150 HD
HETATM   45  H   UNK N   1      29.119  16.577   1.809  0.00  0.00     0.150 HD
ENDBRANCH  42  43
BRANCH  42  46
HETATM   46  C   UNK N   1      30.513  15.448   4.654  0.00  0.00     0.072 C 
BRANCH  46  47
HETATM   47  C   UNK N   1      31.638  16.105   5.373  0.00  0.00    -0.056 A 
HETATM   48  C   UNK N   1      31.539  16.381   6.743  0.00  0.00     0.010 A 
HETATM   49  C   UNK N   1      32.534  17.132   7.372  0.00  0.00     0.037 A 
HETATM   50  C   UNK N   1      33.621  17.608   6.633  0.00  0.00     0.065 A 
HETATM   51  C   UNK N   1      33.730  17.308   5.272  0.00  0.00     0.037 A 
HETATM   52  C   UNK N   1      32.736  16.560   4.641  0.00  0.00     0.010 A 
BRANCH  50  53
HETATM   53  O   UNK N   1      34.557  18.360   7.228  0.00  0.00    -0.361 OA
HETATM   54  H   UNK N   1      34.353  18.945   7.933  0.00  0.00     0.217 HD
ENDBRANCH  50  53
ENDBRANCH  46  47
ENDBRANCH  42  46
ENDBRANCH  39  42
ENDBRANCH  37  38
BRANCH  37  55
HETATM   55  C   UNK N   1      27.952  19.249   7.421  0.00  0.00     0.038 C 
BRANCH  55  56
HETATM   56  C   UNK N   1      28.795  18.235   8.179  0.00  0.00    -0.020 C 
HETATM   57  C   UNK N   1      27.897  17.288   8.959  0.00  0.00     0.009 C 
HETATM   58  C   UNK N   1      29.754  18.926   9.118  0.00  0.00     0.009 C 
ENDBRANCH  55  56
ENDBRANCH  37  55
ENDBRANCH  34  37
ENDBRANCH  32  33
ENDBRANCH   3  32
TORSDOF 23
ENDMDL
MODEL 4
REMARK VINA RESULT:      -7.7      1.784      3.196
REMARK  23 active torsions:
REMARK  status: ('A' for Active; 'I' for Inactive)
REMARK    1  A    between atoms: O_4  and  C_35 
REMARK    2  A    between atoms: O_5  and  C_42 
REMARK    3  A    between atoms: O_7  and  C_41 
REMARK    4  A    between atoms: O_10  and  C_47 
REMARK    5  A    between atoms: C_19  and  N_11 
REMARK       I    between atoms: N_11  and  C_24 
REMARK       I    between atoms: N_12  and  C_22 
REMARK    6  A    between atoms: N_12  and  C_26 
REMARK    7  A    between atoms: C_23  and  N_13 
REMARK       I    between atoms: N_14  and  C_28 
REMARK    8  A    between atoms: C_29  and  N_14 
REMARK    9  A    between atoms: C_30  and  N_15 
REMARK       I    between atoms: N_15  and  C_40 
REMARK       I    between atoms: N_16  and  C_34 
REMARK   10  A    between atoms: N_16  and  C_39 
REMARK   11  A    between atoms: C_17  and  C_18 
REMARK   12  A    between atoms: C_17  and  C_19 
REMARK   13  A    between atoms: C_19  and  C_22 
REMARK   14  A    between atoms: C_23  and  C_24 
REMARK   15  A    between atoms: C_23  and  C_25 
REMARK   16  A    between atoms: C_25  and  C_27 
REMARK   17  A    between atoms: C_26  and  C_28 
REMARK   18  A    between atoms: C_29  and  C_34 
REMARK   19  A    between atoms: C_29  and  C_35 
REMARK   20  A    between atoms: C_30  and  C_33 
REMARK   21  A    between atoms: C_30  and  C_42 
REMARK   22  A    between atoms: C_33  and  C_36 
REMARK   23  A    between atoms: C_39  and  C_40 
ROOT
HETATM    1  O   UNK N   1      31.601  15.142   9.434  0.00  0.00    -0.272 OA
HETATM    2  N   UNK N   1      32.483  15.261   7.407  0.00  0.00    -0.344 N 
HETATM    3  C   UNK N   1      32.516  15.540   8.727  0.00  0.00     0.236 C 
HETATM    4  H   UNK N   1      31.711  14.768   7.050  0.00  0.00     0.163 HD
ENDROOT
BRANCH   2   5
HETATM    5  C   UNK N   1      33.527  15.654   6.497  0.00  0.00     0.200 C 
BRANCH   5   6
HETATM    6  C   UNK N   1      33.355  16.964   5.774  0.00  0.00     0.242 C 
HETATM    7  O   UNK N   1      33.944  17.945   6.196  0.00  0.00    -0.271 OA
HETATM    8  N   UNK N   1      32.542  17.093   4.680  0.00  0.00    -0.350 N 
HETATM    9  H   UNK N   1      32.485  17.982   4.260  0.00  0.00     0.163 HD
BRANCH   8  10
HETATM   10  C   UNK N   1      31.752  16.020   4.088  0.00  0.00     0.225 C 
BRANCH  10  11
HETATM   11  C   UNK N   1      30.344  16.122   4.561  0.00  0.00     0.236 C 
HETATM   12  O   UNK N   1      29.800  15.129   5.016  0.00  0.00    -0.272 OA
HETATM   13  N   UNK N   1      29.810  17.361   4.713  0.00  0.00    -0.346 N 
HETATM   14  H   UNK N   1      30.116  18.062   4.094  0.00  0.00     0.163 HD
BRANCH  13  15
HETATM   15  C   UNK N   1      28.825  17.737   5.711  0.00  0.00     0.188 C 
BRANCH  15  16
HETATM   16  C   UNK N   1      27.440  17.199   5.367  0.00  0.00     0.074 C 
BRANCH  16  17
HETATM   17  C   UNK N   1      26.778  18.153   4.442  0.00  0.00    -0.056 A 
HETATM   18  C   UNK N   1      27.360  19.407   4.240  0.00  0.00     0.010 A 
HETATM   19  C   UNK N   1      26.678  20.382   3.515  0.00  0.00     0.037 A 
HETATM   20  C   UNK N   1      25.409  20.107   2.999  0.00  0.00     0.065 A 
HETATM   21  C   UNK N   1      24.830  18.847   3.188  0.00  0.00     0.037 A 
HETATM   22  C   UNK N   1      25.511  17.872   3.919  0.00  0.00     0.010 A 
BRANCH  20  23
HETATM   23  O   UNK N   1      24.742  21.056   2.325  0.00  0.00    -0.361 OA
HETATM   24  H   UNK N   1      23.817  21.209   2.316  0.00  0.00     0.217 HD
ENDBRANCH  20  23
ENDBRANCH  16  17
ENDBRANCH  15  16
BRANCH  15  25
HETATM   25  C   UNK N   1      29.170  17.616   7.175  0.00  0.00     0.281 C 
HETATM   26  O   UNK N   1      28.310  17.368   8.008  0.00  0.00    -0.263 OA
BRANCH  25  27
HETATM   27  O   UNK N   1      30.452  17.848   7.552  0.00  0.00    -0.325 OA
HETATM   28  C   UNK N   1      30.778  18.511   8.709  0.00  0.00     0.213 C 
ENDBRANCH  25  27
ENDBRANCH  15  25
ENDBRANCH  13  15
ENDBRANCH  10  11
ENDBRANCH   8  10
ENDBRANCH   5   6
BRANCH   5  29
HETATM   29  C   UNK N   1      34.685  14.693   6.232  0.00  0.00     0.199 C 
BRANCH  29  30
HETATM   30  O   UNK N   1      35.788  15.388   5.726  0.00  0.00    -0.398 OA
HETATM   31  H   UNK N   1      35.962  15.431   4.772  0.00  0.00     0.209 HD
ENDBRANCH  29  30
ENDBRANCH   5  29
ENDBRANCH   2   5
BRANCH   3  32
HETATM   32  C   UNK N   1      33.658  16.319   9.346  0.00  0.00     0.225 C 
BRANCH  32  33
HETATM   33  N   UNK N   1      34.456  15.390  10.092  0.00  0.00    -0.351 N 
HETATM   34  C   UNK N   1      35.416  15.845  10.927  0.00  0.00     0.240 C 
HETATM   35  O   UNK N   1      35.446  17.019  11.259  0.00  0.00    -0.271 OA
HETATM   36  H   UNK N   1      34.305  14.422   9.996  0.00  0.00     0.163 HD
BRANCH  34  37
HETATM   37  C   UNK N   1      36.565  14.937  11.213  0.00  0.00     0.177 C 
BRANCH  37  38
HETATM   38  N   UNK N   1      36.698  14.558  12.600  0.00  0.00    -0.346 N 
HETATM   39  C   UNK N   1      35.722  13.964  13.317  0.00  0.00     0.240 C 
HETATM   40  O   UNK N   1      34.630  13.720  12.819  0.00  0.00    -0.271 OA
HETATM   41  H   UNK N   1      37.553  14.746  13.051  0.00  0.00     0.163 HD
BRANCH  39  42
HETATM   42  C   UNK N   1      36.000  13.593  14.725  0.00  0.00     0.171 C 
BRANCH  42  43
HETATM   43  N   UNK N   1      37.346  13.037  14.791  0.00  0.00    -0.418 N 
HETATM   44  H   UNK N   1      38.076  13.325  15.442  0.00  0.00     0.150 HD
HETATM   45  H   UNK N   1      37.578  12.297  14.128  0.00  0.00     0.150 HD
ENDBRANCH  42  43
BRANCH  42  46
HETATM   46  C   UNK N   1      34.909  12.636  15.235  0.00  0.00     0.072 C 
BRANCH  46  47
HETATM   47  C   UNK N   1      35.016  12.378  16.697  0.00  0.00    -0.056 A 
HETATM   48  C   UNK N   1      34.975  13.438  17.610  0.00  0.00     0.010 A 
HETATM   49  C   UNK N   1      35.230  13.200  18.962  0.00  0.00     0.037 A 
HETATM   50  C   UNK N   1      35.527  11.905  19.397  0.00  0.00     0.065 A 
HETATM   51  C   UNK N   1      35.541  10.844  18.488  0.00  0.00     0.037 A 
HETATM   52  C   UNK N   1      35.290  11.081  17.136  0.00  0.00     0.010 A 
BRANCH  50  53
HETATM   53  O   UNK N   1      35.808  11.682  20.689  0.00  0.00    -0.361 OA
HETATM   54  H   UNK N   1      35.208  11.905  21.375  0.00  0.00     0.217 HD
ENDBRANCH  50  53
ENDBRANCH  46  47
ENDBRANCH  42  46
ENDBRANCH  39  42
ENDBRANCH  37  38
BRANCH  37  55
HETATM   55  C   UNK N   1      36.802  13.791  10.257  0.00  0.00     0.038 C 
BRANCH  55  56
HETATM   56  C   UNK N   1      37.940  12.973  10.847  0.00  0.00    -0.020 C 
HETATM   57  C   UNK N   1      39.146  13.013   9.924  0.00  0.00     0.009 C 
HETATM   58  C   UNK N   1      37.514  11.542  11.076  0.00  0.00     0.009 C 
ENDBRANCH  55  56
ENDBRANCH  37  55
ENDBRANCH  34  37
ENDBRANCH  32  33
ENDBRANCH   3  32
TORSDOF 23
ENDMDL
MODEL 5
REMARK VINA RESULT:      -7.6      2.639     12.530
REMARK  23 active torsions:
REMARK  status: ('A' for Active; 'I' for Inactive)
REMARK    1  A    between atoms: O_4  and  C_35 
REMARK    2  A    between atoms: O_5  and  C_42 
REMARK    3  A    between atoms: O_7  and  C_41 
REMARK    4  A    between atoms: O_10  and  C_47 
REMARK    5  A    between atoms: C_19  and  N_11 
REMARK       I    between atoms: N_11  and  C_24 
REMARK       I    between atoms: N_12  and  C_22 
REMARK    6  A    between atoms: N_12  and  C_26 
REMARK    7  A    between atoms: C_23  and  N_13 
REMARK       I    between atoms: N_14  and  C_28 
REMARK    8  A    between atoms: C_29  and  N_14 
REMARK    9  A    between atoms: C_30  and  N_15 
REMARK       I    between atoms: N_15  and  C_40 
REMARK       I    between atoms: N_16  and  C_34 
REMARK   10  A    between atoms: N_16  and  C_39 
REMARK   11  A    between atoms: C_17  and  C_18 
REMARK   12  A    between atoms: C_17  and  C_19 
REMARK   13  A    between atoms: C_19  and  C_22 
REMARK   14  A    between atoms: C_23  and  C_24 
REMARK   15  A    between atoms: C_23  and  C_25 
REMARK   16  A    between atoms: C_25  and  C_27 
REMARK   17  A    between atoms: C_26  and  C_28 
REMARK   18  A    between atoms: C_29  and  C_34 
REMARK   19  A    between atoms: C_29  and  C_35 
REMARK   20  A    between atoms: C_30  and  C_33 
REMARK   21  A    between atoms: C_30  and  C_42 
REMARK   22  A    between atoms: C_33  and  C_36 
REMARK   23  A    between atoms: C_39  and  C_40 
ROOT
HETATM    1  O   UNK N   1      35.299  15.752   5.913  0.00  0.00    -0.272 OA
HETATM    2  N   UNK N   1      34.859  15.397   8.053  0.00  0.00    -0.344 N 
HETATM    3  C   UNK N   1      34.749  16.140   6.933  0.00  0.00     0.236 C 
HETATM    4  H   UNK N   1      35.402  14.577   8.021  0.00  0.00     0.163 HD
ENDROOT
BRANCH   2   5
HETATM    5  C   UNK N   1      34.222  15.750   9.295  0.00  0.00     0.200 C 
BRANCH   5   6
HETATM    6  C   UNK N   1      35.073  16.419  10.341  0.00  0.00     0.242 C 
HETATM    7  O   UNK N   1      35.353  17.597  10.199  0.00  0.00    -0.271 OA
HETATM    8  N   UNK N   1      35.561  15.744  11.427  0.00  0.00    -0.350 N 
HETATM    9  H   UNK N   1      36.107  16.252  12.070  0.00  0.00     0.163 HD
BRANCH   8  10
HETATM   10  C   UNK N   1      35.339  14.329  11.708  0.00  0.00     0.225 C 
BRANCH  10  11
HETATM   11  C   UNK N   1      36.188  13.914  12.858  0.00  0.00     0.236 C 
HETATM   12  O   UNK N   1      36.443  14.730  13.729  0.00  0.00    -0.272 OA
HETATM   13  N   UNK N   1      36.425  12.589  13.030  0.00  0.00    -0.346 N 
HETATM   14  H   UNK N   1      36.483  12.032  12.221  0.00  0.00     0.163 HD
BRANCH  13  15
HETATM   15  C   UNK N   1      36.603  11.924  14.309  0.00  0.00     0.188 C 
BRANCH  15  16
HETATM   16  C   UNK N   1      35.268  11.656  14.995  0.00  0.00     0.074 C 
BRANCH  16  17
HETATM   17  C   UNK N   1      35.384  12.042  16.424  0.00  0.00    -0.056 A 
HETATM   18  C   UNK N   1      35.361  11.037  17.395  0.00  0.00     0.010 A 
HETATM   19  C   UNK N   1      35.297  11.376  18.746  0.00  0.00     0.037 A 
HETATM   20  C   UNK N   1      35.248  12.720  19.125  0.00  0.00     0.065 A 
HETATM   21  C   UNK N   1      35.284  13.728  18.155  0.00  0.00     0.037 A 
HETATM   22  C   UNK N   1      35.342  13.388  16.803  0.00  0.00     0.010 A 
BRANCH  20  23
HETATM   23  O   UNK N   1      35.158  13.045  20.424  0.00  0.00    -0.361 OA
HETATM   24  H   UNK N   1      35.208  13.899  20.806  0.00  0.00     0.217 HD
ENDBRANCH  20  23
ENDBRANCH  16  17
ENDBRANCH  15  16
BRANCH  15  25
HETATM   25  C   UNK N   1      37.576  10.776  14.419  0.00  0.00     0.281 C 
HETATM   26  O   UNK N   1      38.759  10.971  14.659  0.00  0.00    -0.263 OA
BRANCH  25  27
HETATM   27  O   UNK N   1      37.114   9.522  14.186  0.00  0.00    -0.325 OA
HETATM   28  C   UNK N   1      36.563   9.144  12.986  0.00  0.00     0.213 C 
ENDBRANCH  25  27
ENDBRANCH  15  25
ENDBRANCH  13  15
ENDBRANCH  10  11
ENDBRANCH   8  10
ENDBRANCH   5   6
BRANCH   5  29
HETATM   29  C   UNK N   1      32.768  15.340   9.528  0.00  0.00     0.199 C 
BRANCH  29  30
HETATM   30  O   UNK N   1      32.549  15.075  10.883  0.00  0.00    -0.398 OA
HETATM   31  H   UNK N   1      32.038  15.684  11.440  0.00  0.00     0.209 HD
ENDBRANCH  29  30
ENDBRANCH   5  29
ENDBRANCH   2   5
BRANCH   3  32
HETATM   32  C   UNK N   1      33.954  17.431   6.911  0.00  0.00     0.225 C 
BRANCH  32  33
HETATM   33  N   UNK N   1      33.162  17.426   5.715  0.00  0.00    -0.351 N 
HETATM   34  C   UNK N   1      31.849  17.115   5.778  0.00  0.00     0.240 C 
HETATM   35  O   UNK N   1      31.266  17.095   6.849  0.00  0.00    -0.271 OA
HETATM   36  H   UNK N   1      33.576  17.649   4.850  0.00  0.00     0.163 HD
BRANCH  34  37
HETATM   37  C   UNK N   1      31.216  16.555   4.548  0.00  0.00     0.177 C 
BRANCH  37  38
HETATM   38  N   UNK N   1      29.848  16.965   4.339  0.00  0.00    -0.346 N 
HETATM   39  C   UNK N   1      28.778  16.193   4.619  0.00  0.00     0.240 C 
HETATM   40  O   UNK N   1      28.914  15.059   5.065  0.00  0.00    -0.271 OA
HETATM   41  H   UNK N   1      29.685  17.863   3.969  0.00  0.00     0.163 HD
BRANCH  39  42
HETATM   42  C   UNK N   1      27.422  16.747   4.392  0.00  0.00     0.171 C 
BRANCH  42  43
HETATM   43  N   UNK N   1      26.979  16.336   3.065  0.00  0.00    -0.418 N 
HETATM   44  H   UNK N   1      26.612  16.955   2.343  0.00  0.00     0.150 HD
HETATM   45  H   UNK N   1      27.042  15.342   2.840  0.00  0.00     0.150 HD
ENDBRANCH  42  43
BRANCH  42  46
HETATM   46  C   UNK N   1      27.444  18.273   4.592  0.00  0.00     0.072 C 
BRANCH  46  47
HETATM   47  C   UNK N   1      26.252  18.941   4.004  0.00  0.00    -0.056 A 
HETATM   48  C   UNK N   1      26.401  20.070   3.189  0.00  0.00     0.010 A 
HETATM   49  C   UNK N   1      25.272  20.777   2.771  0.00  0.00     0.037 A 
HETATM   50  C   UNK N   1      23.999  20.358   3.169  0.00  0.00     0.065 A 
HETATM   51  C   UNK N   1      23.852  19.215   3.961  0.00  0.00     0.037 A 
HETATM   52  C   UNK N   1      24.979  18.510   4.382  0.00  0.00     0.010 A 
BRANCH  50  53
HETATM   53  O   UNK N   1      22.918  21.058   2.798  0.00  0.00    -0.361 OA
HETATM   54  H   UNK N   1      22.255  20.694   2.243  0.00  0.00     0.217 HD
ENDBRANCH  50  53
ENDBRANCH  46  47
ENDBRANCH  42  46
ENDBRANCH  39  42
ENDBRANCH  37  38
BRANCH  37  55
HETATM   55  C   UNK N   1      32.038  16.555   3.280  0.00  0.00     0.038 C 
BRANCH  55  56
HETATM   56  C   UNK N   1      32.431  15.107   3.028  0.00  0.00    -0.020 C 
HETATM   57  C   UNK N   1      32.160  14.269   4.266  0.00  0.00     0.009 C 
HETATM   58  C   UNK N   1      33.888  15.003   2.644  0.00  0.00     0.009 C 
ENDBRANCH  55  56
ENDBRANCH  37  55
ENDBRANCH  34  37
ENDBRANCH  32  33
ENDBRANCH   3  32
TORSDOF 23
ENDMDL
MODEL 6
REMARK VINA RESULT:      -7.6      2.386      3.686
REMARK  23 active torsions:
REMARK  status: ('A' for Active; 'I' for Inactive)
REMARK    1  A    between atoms: O_4  and  C_35 
REMARK    2  A    between atoms: O_5  and  C_42 
REMARK    3  A    between atoms: O_7  and  C_41 
REMARK    4  A    between atoms: O_10  and  C_47 
REMARK    5  A    between atoms: C_19  and  N_11 
REMARK       I    between atoms: N_11  and  C_24 
REMARK       I    between atoms: N_12  and  C_22 
REMARK    6  A    between atoms: N_12  and  C_26 
REMARK    7  A    between atoms: C_23  and  N_13 
REMARK       I    between atoms: N_14  and  C_28 
REMARK    8  A    between atoms: C_29  and  N_14 
REMARK    9  A    between atoms: C_30  and  N_15 
REMARK       I    between atoms: N_15  and  C_40 
REMARK       I    between atoms: N_16  and  C_34 
REMARK   10  A    between atoms: N_16  and  C_39 
REMARK   11  A    between atoms: C_17  and  C_18 
REMARK   12  A    between atoms: C_17  and  C_19 
REMARK   13  A    between atoms: C_19  and  C_22 
REMARK   14  A    between atoms: C_23  and  C_24 
REMARK   15  A    between atoms: C_23  and  C_25 
REMARK   16  A    between atoms: C_25  and  C_27 
REMARK   17  A    between atoms: C_26  and  C_28 
REMARK   18  A    between atoms: C_29  and  C_34 
REMARK   19  A    between atoms: C_29  and  C_35 
REMARK   20  A    between atoms: C_30  and  C_33 
REMARK   21  A    between atoms: C_30  and  C_42 
REMARK   22  A    between atoms: C_33  and  C_36 
REMARK   23  A    between atoms: C_39  and  C_40 
ROOT
HETATM    1  O   UNK N   1      35.583  17.736  10.189  0.00  0.00    -0.272 OA
HETATM    2  N   UNK N   1      33.575  17.212   9.419  0.00  0.00    -0.344 N 
HETATM    3  C   UNK N   1      34.888  16.944   9.569  0.00  0.00     0.236 C 
HETATM    4  H   UNK N   1      33.221  18.051   9.792  0.00  0.00     0.163 HD
ENDROOT
BRANCH   2   5
HETATM    5  C   UNK N   1      32.667  16.328   8.736  0.00  0.00     0.200 C 
BRANCH   5   6
HETATM    6  C   UNK N   1      32.350  16.641   7.297  0.00  0.00     0.242 C 
HETATM    7  O   UNK N   1      33.193  16.400   6.449  0.00  0.00    -0.271 OA
HETATM    8  N   UNK N   1      31.164  17.209   6.917  0.00  0.00    -0.350 N 
HETATM    9  H   UNK N   1      31.031  17.379   5.957  0.00  0.00     0.163 HD
BRANCH   8  10
HETATM   10  C   UNK N   1      30.082  17.583   7.821  0.00  0.00     0.225 C 
BRANCH  10  11
HETATM   11  C   UNK N   1      28.784  17.505   7.098  0.00  0.00     0.236 C 
HETATM   12  O   UNK N   1      27.825  18.119   7.538  0.00  0.00    -0.272 OA
HETATM   13  N   UNK N   1      28.779  16.976   5.848  0.00  0.00    -0.346 N 
HETATM   14  H   UNK N   1      29.428  16.261   5.659  0.00  0.00     0.163 HD
BRANCH  13  15
HETATM   15  C   UNK N   1      27.896  17.375   4.768  0.00  0.00     0.188 C 
BRANCH  15  16
HETATM   16  C   UNK N   1      27.913  18.885   4.554  0.00  0.00     0.074 C 
BRANCH  16  17
HETATM   17  C   UNK N   1      26.590  19.304   4.027  0.00  0.00    -0.056 A 
HETATM   18  C   UNK N   1      26.540  20.314   3.063  0.00  0.00     0.010 A 
HETATM   19  C   UNK N   1      25.311  20.845   2.674  0.00  0.00     0.037 A 
HETATM   20  C   UNK N   1      24.132  20.372   3.257  0.00  0.00     0.065 A 
HETATM   21  C   UNK N   1      24.179  19.352   4.213  0.00  0.00     0.037 A 
HETATM   22  C   UNK N   1      25.410  18.824   4.606  0.00  0.00     0.010 A 
BRANCH  20  23
HETATM   23  O   UNK N   1      22.953  20.904   2.903  0.00  0.00    -0.361 OA
HETATM   24  H   UNK N   1      22.634  21.066   2.036  0.00  0.00     0.217 HD
ENDBRANCH  20  23
ENDBRANCH  16  17
ENDBRANCH  15  16
BRANCH  15  25
HETATM   25  C   UNK N   1      27.895  16.587   3.481  0.00  0.00     0.281 C 
HETATM   26  O   UNK N   1      26.882  16.031   3.082  0.00  0.00    -0.263 OA
BRANCH  25  27
HETATM   27  O   UNK N   1      29.065  16.462   2.807  0.00  0.00    -0.325 OA
HETATM   28  C   UNK N   1      29.758  15.278   2.734  0.00  0.00     0.213 C 
ENDBRANCH  25  27
ENDBRANCH  15  25
ENDBRANCH  13  15
ENDBRANCH  10  11
ENDBRANCH   8  10
ENDBRANCH   5   6
BRANCH   5  29
HETATM   29  C   UNK N   1      31.997  15.199   9.518  0.00  0.00     0.199 C 
BRANCH  29  30
HETATM   30  O   UNK N   1      32.589  15.063  10.778  0.00  0.00    -0.398 OA
HETATM   31  H   UNK N   1      33.031  15.810  11.211  0.00  0.00     0.209 HD
ENDBRANCH  29  30
ENDBRANCH   5  29
ENDBRANCH   2   5
BRANCH   3  32
HETATM   32  C   UNK N   1      35.512  15.686   8.998  0.00  0.00     0.225 C 
BRANCH  32  33
HETATM   33  N   UNK N   1      35.662  14.754  10.078  0.00  0.00    -0.351 N 
HETATM   34  C   UNK N   1      36.896  14.377  10.475  0.00  0.00     0.240 C 
HETATM   35  O   UNK N   1      37.882  15.002  10.119  0.00  0.00    -0.271 OA
HETATM   36  H   UNK N   1      34.866  14.390  10.528  0.00  0.00     0.163 HD
BRANCH  34  37
HETATM   37  C   UNK N   1      37.029  13.046  11.137  0.00  0.00     0.177 C 
BRANCH  37  38
HETATM   38  N   UNK N   1      36.987  13.087  12.579  0.00  0.00    -0.346 N 
HETATM   39  C   UNK N   1      35.930  13.531  13.291  0.00  0.00     0.240 C 
HETATM   40  O   UNK N   1      34.923  13.952  12.733  0.00  0.00    -0.271 OA
HETATM   41  H   UNK N   1      37.778  12.772  13.075  0.00  0.00     0.163 HD
BRANCH  39  42
HETATM   42  C   UNK N   1      36.001  13.486  14.771  0.00  0.00     0.171 C 
BRANCH  42  43
HETATM   43  N   UNK N   1      37.338  13.905  15.175  0.00  0.00    -0.418 N 
HETATM   44  H   UNK N   1      38.185  13.344  15.092  0.00  0.00     0.150 HD
HETATM   45  H   UNK N   1      37.432  14.839  15.575  0.00  0.00     0.150 HD
ENDBRANCH  42  43
BRANCH  42  46
HETATM   46  C   UNK N   1      35.615  12.082  15.267  0.00  0.00     0.072 C 
BRANCH  46  47
HETATM   47  C   UNK N   1      35.646  11.974  16.751  0.00  0.00    -0.056 A 
HETATM   48  C   UNK N   1      36.032  10.777  17.367  0.00  0.00     0.010 A 
HETATM   49  C   UNK N   1      35.911  10.640  18.751  0.00  0.00     0.037 A 
HETATM   50  C   UNK N   1      35.402  11.695  19.515  0.00  0.00     0.065 A 
HETATM   51  C   UNK N   1      35.043  12.897  18.900  0.00  0.00     0.037 A 
HETATM   52  C   UNK N   1      35.160  13.035  17.516  0.00  0.00     0.010 A 
BRANCH  50  53
HETATM   53  O   UNK N   1      35.251  11.550  20.839  0.00  0.00    -0.361 OA
HETATM   54  H   UNK N   1      34.585  12.007  21.318  0.00  0.00     0.217 HD
ENDBRANCH  50  53
ENDBRANCH  46  47
ENDBRANCH  42  46
ENDBRANCH  39  42
ENDBRANCH  37  38
BRANCH  37  55
HETATM   55  C   UNK N   1      36.244  11.895  10.550  0.00  0.00     0.038 C 
BRANCH  55  56
HETATM   56  C   UNK N   1      36.405  10.733  11.517  0.00  0.00    -0.020 C 
HETATM   57  C   UNK N   1      37.358   9.700  10.939  0.00  0.00     0.009 C 
HETATM   58  C   UNK N   1      35.071  10.093  11.817  0.00  0.00     0.009 C 
ENDBRANCH  55  56
ENDBRANCH  37  55
ENDBRANCH  34  37
ENDBRANCH  32  33
ENDBRANCH   3  32
TORSDOF 23
ENDMDL
MODEL 7
REMARK VINA RESULT:      -7.6      2.041     11.307
REMARK  23 active torsions:
REMARK  status: ('A' for Active; 'I' for Inactive)
REMARK    1  A    between atoms: O_4  and  C_35 
REMARK    2  A    between atoms: O_5  and  C_42 
REMARK    3  A    between atoms: O_7  and  C_41 
REMARK    4  A    between atoms: O_10  and  C_47 
REMARK    5  A    between atoms: C_19  and  N_11 
REMARK       I    between atoms: N_11  and  C_24 
REMARK       I    between atoms: N_12  and  C_22 
REMARK    6  A    between atoms: N_12  and  C_26 
REMARK    7  A    between atoms: C_23  and  N_13 
REMARK       I    between atoms: N_14  and  C_28 
REMARK    8  A    between atoms: C_29  and  N_14 
REMARK    9  A    between atoms: C_30  and  N_15 
REMARK       I    between atoms: N_15  and  C_40 
REMARK       I    between atoms: N_16  and  C_34 
REMARK   10  A    between atoms: N_16  and  C_39 
REMARK   11  A    between atoms: C_17  and  C_18 
REMARK   12  A    between atoms: C_17  and  C_19 
REMARK   13  A    between atoms: C_19  and  C_22 
REMARK   14  A    between atoms: C_23  and  C_24 
REMARK   15  A    between atoms: C_23  and  C_25 
REMARK   16  A    between atoms: C_25  and  C_27 
REMARK   17  A    between atoms: C_26  and  C_28 
REMARK   18  A    between atoms: C_29  and  C_34 
REMARK   19  A    between atoms: C_29  and  C_35 
REMARK   20  A    between atoms: C_30  and  C_33 
REMARK   21  A    between atoms: C_30  and  C_42 
REMARK   22  A    between atoms: C_33  and  C_36 
REMARK   23  A    between atoms: C_39  and  C_40 
ROOT
HETATM    1  O   UNK N   1      33.213  11.921   8.483  0.00  0.00    -0.272 OA
HETATM    2  N   UNK N   1      34.374  13.539   9.449  0.00  0.00    -0.344 N 
HETATM    3  C   UNK N   1      34.009  12.839   8.354  0.00  0.00     0.236 C 
HETATM    4  H   UNK N   1      34.006  13.272  10.321  0.00  0.00     0.163 HD
ENDROOT
BRANCH   2   5
HETATM    5  C   UNK N   1      35.277  14.659   9.398  0.00  0.00     0.200 C 
BRANCH   5   6
HETATM    6  C   UNK N   1      36.686  14.430   9.878  0.00  0.00     0.242 C 
HETATM    7  O   UNK N   1      37.493  13.941   9.105  0.00  0.00    -0.271 OA
HETATM    8  N   UNK N   1      37.081  14.728  11.154  0.00  0.00    -0.350 N 
HETATM    9  H   UNK N   1      38.020  14.554  11.390  0.00  0.00     0.163 HD
BRANCH   8  10
HETATM   10  C   UNK N   1      36.220  15.282  12.193  0.00  0.00     0.225 C 
BRANCH  10  11
HETATM   11  C   UNK N   1      35.652  14.174  13.009  0.00  0.00     0.236 C 
HETATM   12  O   UNK N   1      34.647  13.606  12.613  0.00  0.00    -0.272 OA
HETATM   13  N   UNK N   1      36.411  13.666  14.012  0.00  0.00    -0.346 N 
HETATM   14  H   UNK N   1      37.015  14.286  14.479  0.00  0.00     0.163 HD
BRANCH  13  15
HETATM   15  C   UNK N   1      36.405  12.283  14.455  0.00  0.00     0.188 C 
BRANCH  15  16
HETATM   16  C   UNK N   1      35.044  11.875  15.010  0.00  0.00     0.074 C 
BRANCH  16  17
HETATM   17  C   UNK N   1      35.067  12.034  16.486  0.00  0.00    -0.056 A 
HETATM   18  C   UNK N   1      34.910  13.313  17.026  0.00  0.00     0.010 A 
HETATM   19  C   UNK N   1      35.096  13.519  18.392  0.00  0.00     0.037 A 
HETATM   20  C   UNK N   1      35.447  12.447  19.217  0.00  0.00     0.065 A 
HETATM   21  C   UNK N   1      35.592  11.163  18.680  0.00  0.00     0.037 A 
HETATM   22  C   UNK N   1      35.411  10.958  17.311  0.00  0.00     0.010 A 
BRANCH  20  23
HETATM   23  O   UNK N   1      35.653  12.651  20.526  0.00  0.00    -0.361 OA
HETATM   24  H   UNK N   1      35.448  12.074  21.236  0.00  0.00     0.217 HD
ENDBRANCH  20  23
ENDBRANCH  16  17
ENDBRANCH  15  16
BRANCH  15  25
HETATM   25  C   UNK N   1      37.043  11.224  13.589  0.00  0.00     0.281 C 
HETATM   26  O   UNK N   1      36.997  10.042  13.900  0.00  0.00    -0.263 OA
BRANCH  25  27
HETATM   27  O   UNK N   1      37.720  11.624  12.485  0.00  0.00    -0.325 OA
HETATM   28  C   UNK N   1      37.632  10.968  11.281  0.00  0.00     0.213 C 
ENDBRANCH  25  27
ENDBRANCH  15  25
ENDBRANCH  13  15
ENDBRANCH  10  11
ENDBRANCH   8  10
ENDBRANCH   5   6
BRANCH   5  29
HETATM   29  C   UNK N   1      34.745  16.026   8.971  0.00  0.00     0.199 C 
BRANCH  29  30
HETATM   30  O   UNK N   1      33.620  16.368   9.727  0.00  0.00    -0.398 OA
HETATM   31  H   UNK N   1      32.952  16.984   9.387  0.00  0.00     0.209 HD
ENDBRANCH  29  30
ENDBRANCH   5  29
ENDBRANCH   2   5
BRANCH   3  32
HETATM   32  C   UNK N   1      34.554  13.173   6.980  0.00  0.00     0.225 C 
BRANCH  32  33
HETATM   33  N   UNK N   1      33.431  13.396   6.117  0.00  0.00    -0.351 N 
HETATM   34  C   UNK N   1      33.197  14.632   5.622  0.00  0.00     0.240 C 
HETATM   35  O   UNK N   1      34.056  15.496   5.676  0.00  0.00    -0.271 OA
HETATM   36  H   UNK N   1      32.831  12.651   5.886  0.00  0.00     0.163 HD
BRANCH  34  37
HETATM   37  C   UNK N   1      31.791  14.969   5.251  0.00  0.00     0.177 C 
BRANCH  37  38
HETATM   38  N   UNK N   1      31.256  16.128   5.923  0.00  0.00    -0.346 N 
HETATM   39  C   UNK N   1      31.122  16.230   7.262  0.00  0.00     0.240 C 
HETATM   40  O   UNK N   1      31.444  15.307   8.002  0.00  0.00    -0.271 OA
HETATM   41  H   UNK N   1      30.969  16.892   5.372  0.00  0.00     0.163 HD
BRANCH  39  42
HETATM   42  C   UNK N   1      30.590  17.491   7.830  0.00  0.00     0.171 C 
BRANCH  42  43
HETATM   43  N   UNK N   1      31.142  17.654   9.170  0.00  0.00    -0.418 N 
HETATM   44  H   UNK N   1      31.522  16.907   9.750  0.00  0.00     0.150 HD
HETATM   45  H   UNK N   1      31.146  18.597   9.561  0.00  0.00     0.150 HD
ENDBRANCH  42  43
BRANCH  42  46
HETATM   46  C   UNK N   1      29.052  17.471   7.791  0.00  0.00     0.072 C 
BRANCH  46  47
HETATM   47  C   UNK N   1      28.496  18.419   6.788  0.00  0.00    -0.056 A 
HETATM   48  C   UNK N   1      27.906  19.621   7.199  0.00  0.00     0.010 A 
HETATM   49  C   UNK N   1      27.253  20.428   6.265  0.00  0.00     0.037 A 
HETATM   50  C   UNK N   1      27.188  20.031   4.925  0.00  0.00     0.065 A 
HETATM   51  C   UNK N   1      27.801  18.844   4.514  0.00  0.00     0.037 A 
HETATM   52  C   UNK N   1      28.451  18.036   5.447  0.00  0.00     0.010 A 
BRANCH  50  53
HETATM   53  O   UNK N   1      26.530  20.787   4.035  0.00  0.00    -0.361 OA
HETATM   54  H   UNK N   1      25.874  20.430   3.467  0.00  0.00     0.217 HD
ENDBRANCH  50  53
ENDBRANCH  46  47
ENDBRANCH  42  46
ENDBRANCH  39  42
ENDBRANCH  37  38
BRANCH  37  55
HETATM   55  C   UNK N   1      31.425  14.908   3.786  0.00  0.00     0.038 C 
BRANCH  55  56
HETATM   56  C   UNK N   1      30.984  16.311   3.398  0.00  0.00    -0.020 C 
HETATM   57  C   UNK N   1      29.742  16.246   2.525  0.00  0.00     0.009 C 
HETATM   58  C   UNK N   1      32.088  17.041   2.671  0.00  0.00     0.009 C 
ENDBRANCH  55  56
ENDBRANCH  37  55
ENDBRANCH  34  37
ENDBRANCH  32  33
ENDBRANCH   3  32
TORSDOF 23
ENDMDL
MODEL 8
REMARK VINA RESULT:      -7.5      2.301     12.035
REMARK  23 active torsions:
REMARK  status: ('A' for Active; 'I' for Inactive)
REMARK    1  A    between atoms: O_4  and  C_35 
REMARK    2  A    between atoms: O_5  and  C_42 
REMARK    3  A    between atoms: O_7  and  C_41 
REMARK    4  A    between atoms: O_10  and  C_47 
REMARK    5  A    between atoms: C_19  and  N_11 
REMARK       I    between atoms: N_11  and  C_24 
REMARK       I    between atoms: N_12  and  C_22 
REMARK    6  A    between atoms: N_12  and  C_26 
REMARK    7  A    between atoms: C_23  and  N_13 
REMARK       I    between atoms: N_14  and  C_28 
REMARK    8  A    between atoms: C_29  and  N_14 
REMARK    9  A    between atoms: C_30  and  N_15 
REMARK       I    between atoms: N_15  and  C_40 
REMARK       I    between atoms: N_16  and  C_34 
REMARK   10  A    between atoms: N_16  and  C_39 
REMARK   11  A    between atoms: C_17  and  C_18 
REMARK   12  A    between atoms: C_17  and  C_19 
REMARK   13  A    between atoms: C_19  and  C_22 
REMARK   14  A    between atoms: C_23  and  C_24 
REMARK   15  A    between atoms: C_23  and  C_25 
REMARK   16  A    between atoms: C_25  and  C_27 
REMARK   17  A    between atoms: C_26  and  C_28 
REMARK   18  A    between atoms: C_29  and  C_34 
REMARK   19  A    between atoms: C_29  and  C_35 
REMARK   20  A    between atoms: C_30  and  C_33 
REMARK   21  A    between atoms: C_30  and  C_42 
REMARK   22  A    between atoms: C_33  and  C_36 
REMARK   23  A    between atoms: C_39  and  C_40 
ROOT
HETATM    1  O   UNK N   1      32.883  12.740   8.920  0.00  0.00    -0.272 OA
HETATM    2  N   UNK N   1      34.186  13.974  10.218  0.00  0.00    -0.344 N 
HETATM    3  C   UNK N   1      33.789  13.558   8.997  0.00  0.00     0.236 C 
HETATM    4  H   UNK N   1      33.751  13.585  11.010  0.00  0.00     0.163 HD
ENDROOT
BRANCH   2   5
HETATM    5  C   UNK N   1      35.218  14.958  10.414  0.00  0.00     0.200 C 
BRANCH   5   6
HETATM    6  C   UNK N   1      36.627  14.455  10.579  0.00  0.00     0.242 C 
HETATM    7  O   UNK N   1      37.370  14.473   9.611  0.00  0.00    -0.271 OA
HETATM    8  N   UNK N   1      37.092  13.958  11.767  0.00  0.00    -0.350 N 
HETATM    9  H   UNK N   1      38.027  13.652  11.796  0.00  0.00     0.163 HD
BRANCH   8  10
HETATM   10  C   UNK N   1      36.310  13.842  12.993  0.00  0.00     0.225 C 
BRANCH  10  11
HETATM   11  C   UNK N   1      36.683  12.587  13.702  0.00  0.00     0.236 C 
HETATM   12  O   UNK N   1      37.518  12.637  14.590  0.00  0.00    -0.272 OA
HETATM   13  N   UNK N   1      35.899  11.495  13.519  0.00  0.00    -0.346 N 
HETATM   14  H   UNK N   1      35.470  11.389  12.640  0.00  0.00     0.163 HD
BRANCH  13  15
HETATM   15  C   UNK N   1      35.642  10.467  14.512  0.00  0.00     0.188 C 
BRANCH  15  16
HETATM   16  C   UNK N   1      34.417  10.796  15.359  0.00  0.00     0.074 C 
BRANCH  16  17
HETATM   17  C   UNK N   1      34.874  11.385  16.643  0.00  0.00    -0.056 A 
HETATM   18  C   UNK N   1      35.191  10.528  17.700  0.00  0.00     0.010 A 
HETATM   19  C   UNK N   1      35.458  11.052  18.964  0.00  0.00     0.037 A 
HETATM   20  C   UNK N   1      35.400  12.433  19.173  0.00  0.00     0.065 A 
HETATM   21  C   UNK N   1      35.095  13.293  18.113  0.00  0.00     0.037 A 
HETATM   22  C   UNK N   1      34.823  12.768  16.849  0.00  0.00     0.010 A 
BRANCH  20  23
HETATM   23  O   UNK N   1      35.629  12.934  20.396  0.00  0.00    -0.361 OA
HETATM   24  H   UNK N   1      35.737  13.833  20.636  0.00  0.00     0.217 HD
ENDBRANCH  20  23
ENDBRANCH  16  17
ENDBRANCH  15  16
BRANCH  15  25
HETATM   25  C   UNK N   1      35.724   9.013  14.114  0.00  0.00     0.281 C 
HETATM   26  O   UNK N   1      35.120   8.591  13.139  0.00  0.00    -0.263 OA
BRANCH  25  27
HETATM   27  O   UNK N   1      36.441   8.174  14.902  0.00  0.00    -0.325 OA
HETATM   28  C   UNK N   1      35.864   7.386  15.867  0.00  0.00     0.213 C 
ENDBRANCH  25  27
ENDBRANCH  15  25
ENDBRANCH  13  15
ENDBRANCH  10  11
ENDBRANCH   8  10
ENDBRANCH   5   6
BRANCH   5  29
HETATM   29  C   UNK N   1      34.828  16.429  10.550  0.00  0.00     0.199 C 
BRANCH  29  30
HETATM   30  O   UNK N   1      35.955  17.245  10.417  0.00  0.00    -0.398 OA
HETATM   31  H   UNK N   1      36.561  17.393  11.160  0.00  0.00     0.209 HD
ENDBRANCH  29  30
ENDBRANCH   5  29
ENDBRANCH   2   5
BRANCH   3  32
HETATM   32  C   UNK N   1      34.429  14.089   7.730  0.00  0.00     0.225 C 
BRANCH  32  33
HETATM   33  N   UNK N   1      33.482  14.966   7.106  0.00  0.00    -0.351 N 
HETATM   34  C   UNK N   1      33.798  16.264   6.902  0.00  0.00     0.240 C 
HETATM   35  O   UNK N   1      34.954  16.643   6.993  0.00  0.00    -0.271 OA
HETATM   36  H   UNK N   1      32.602  14.623   6.828  0.00  0.00     0.163 HD
BRANCH  34  37
HETATM   37  C   UNK N   1      32.674  17.241   6.819  0.00  0.00     0.177 C 
BRANCH  37  38
HETATM   38  N   UNK N   1      31.526  16.773   6.080  0.00  0.00    -0.346 N 
HETATM   39  C   UNK N   1      31.334  16.995   4.763  0.00  0.00     0.240 C 
HETATM   40  O   UNK N   1      32.142  17.641   4.106  0.00  0.00    -0.271 OA
HETATM   41  H   UNK N   1      30.840  16.260   6.566  0.00  0.00     0.163 HD
BRANCH  39  42
HETATM   42  C   UNK N   1      30.128  16.427   4.114  0.00  0.00     0.171 C 
BRANCH  42  43
HETATM   43  N   UNK N   1      30.010  17.013   2.784  0.00  0.00    -0.418 N 
HETATM   44  H   UNK N   1      30.635  17.713   2.386  0.00  0.00     0.150 HD
HETATM   45  H   UNK N   1      29.235  16.694   2.201  0.00  0.00     0.150 HD
ENDBRANCH  42  43
BRANCH  42  46
HETATM   46  C   UNK N   1      28.898  16.664   5.006  0.00  0.00     0.072 C 
BRANCH  46  47
HETATM   47  C   UNK N   1      27.983  17.699   4.452  0.00  0.00    -0.056 A 
HETATM   48  C   UNK N   1      28.252  19.060   4.647  0.00  0.00     0.010 A 
HETATM   49  C   UNK N   1      27.311  20.015   4.257  0.00  0.00     0.037 A 
HETATM   50  C   UNK N   1      26.105  19.608   3.677  0.00  0.00     0.065 A 
HETATM   51  C   UNK N   1      25.852  18.251   3.460  0.00  0.00     0.037 A 
HETATM   52  C   UNK N   1      26.790  17.296   3.853  0.00  0.00     0.010 A 
BRANCH  50  53
HETATM   53  O   UNK N   1      25.185  20.523   3.336  0.00  0.00    -0.361 OA
HETATM   54  H   UNK N   1      24.266  20.367   3.438  0.00  0.00     0.217 HD
ENDBRANCH  50  53
ENDBRANCH  46  47
ENDBRANCH  42  46
ENDBRANCH  39  42
ENDBRANCH  37  38
BRANCH  37  55
HETATM   55  C   UNK N   1      32.306  17.987   8.081  0.00  0.00     0.038 C 
BRANCH  55  56
HETATM   56  C   UNK N   1      30.936  17.472   8.496  0.00  0.00    -0.020 C 
HETATM   57  C   UNK N   1      30.141  18.581   9.164  0.00  0.00     0.009 C 
HETATM   58  C   UNK N   1      31.065  16.294   9.433  0.00  0.00     0.009 C 
ENDBRANCH  55  56
ENDBRANCH  37  55
ENDBRANCH  34  37
ENDBRANCH  32  33
ENDBRANCH   3  32
TORSDOF 23
ENDMDL
MODEL 9
REMARK VINA RESULT:      -7.4      2.318     11.448
REMARK  23 active torsions:
REMARK  status: ('A' for Active; 'I' for Inactive)
REMARK    1  A    between atoms: O_4  and  C_35 
REMARK    2  A    between atoms: O_5  and  C_42 
REMARK    3  A    between atoms: O_7  and  C_41 
REMARK    4  A    between atoms: O_10  and  C_47 
REMARK    5  A    between atoms: C_19  and  N_11 
REMARK       I    between atoms: N_11  and  C_24 
REMARK       I    between atoms: N_12  and  C_22 
REMARK    6  A    between atoms: N_12  and  C_26 
REMARK    7  A    between atoms: C_23  and  N_13 
REMARK       I    between atoms: N_14  and  C_28 
REMARK    8  A    between atoms: C_29  and  N_14 
REMARK    9  A    between atoms: C_30  and  N_15 
REMARK       I    between atoms: N_15  and  C_40 
REMARK       I    between atoms: N_16  and  C_34 
REMARK   10  A    between atoms: N_16  and  C_39 
REMARK   11  A    between atoms: C_17  and  C_18 
REMARK   12  A    between atoms: C_17  and  C_19 
REMARK   13  A    between atoms: C_19  and  C_22 
REMARK   14  A    between atoms: C_23  and  C_24 
REMARK   15  A    between atoms: C_23  and  C_25 
REMARK   16  A    between atoms: C_25  and  C_27 
REMARK   17  A    between atoms: C_26  and  C_28 
REMARK   18  A    between atoms: C_29  and  C_34 
REMARK   19  A    between atoms: C_29  and  C_35 
REMARK   20  A    between atoms: C_30  and  C_33 
REMARK   21  A    between atoms: C_30  and  C_42 
REMARK   22  A    between atoms: C_33  and  C_36 
REMARK   23  A    between atoms: C_39  and  C_40 
ROOT
HETATM    1  O   UNK N   1      34.970  12.840   6.999  0.00  0.00    -0.272 OA
HETATM    2  N   UNK N   1      34.768  13.699   9.029  0.00  0.00    -0.344 N 
HETATM    3  C   UNK N   1      35.072  13.822   7.720  0.00  0.00     0.236 C 
HETATM    4  H   UNK N   1      34.499  12.815   9.368  0.00  0.00     0.163 HD
ENDROOT
BRANCH   2   5
HETATM    5  C   UNK N   1      34.822  14.801   9.953  0.00  0.00     0.200 C 
BRANCH   5   6
HETATM    6  C   UNK N   1      36.117  15.020  10.691  0.00  0.00     0.242 C 
HETATM    7  O   UNK N   1      36.986  15.688  10.157  0.00  0.00    -0.271 OA
HETATM    8  N   UNK N   1      36.357  14.474  11.923  0.00  0.00    -0.350 N 
HETATM    9  H   UNK N   1      37.227  14.666  12.342  0.00  0.00     0.163 HD
BRANCH   8  10
HETATM   10  C   UNK N   1      35.428  13.627  12.664  0.00  0.00     0.225 C 
BRANCH  10  11
HETATM   11  C   UNK N   1      36.148  12.426  13.169  0.00  0.00     0.236 C 
HETATM   12  O   UNK N   1      37.296  12.549  13.563  0.00  0.00    -0.272 OA
HETATM   13  N   UNK N   1      35.424  11.306  13.418  0.00  0.00    -0.346 N 
HETATM   14  H   UNK N   1      34.642  11.138  12.845  0.00  0.00     0.163 HD
BRANCH  13  15
HETATM   15  C   UNK N   1      35.708  10.334  14.459  0.00  0.00     0.188 C 
BRANCH  15  16
HETATM   16  C   UNK N   1      34.564  10.232  15.462  0.00  0.00     0.074 C 
BRANCH  16  17
HETATM   17  C   UNK N   1      34.950  10.959  16.697  0.00  0.00    -0.056 A 
HETATM   18  C   UNK N   1      35.142  10.230  17.873  0.00  0.00     0.010 A 
HETATM   19  C   UNK N   1      35.337  10.898  19.081  0.00  0.00     0.037 A 
HETATM   20  C   UNK N   1      35.334  12.295  19.114  0.00  0.00     0.065 A 
HETATM   21  C   UNK N   1      35.156  13.026  17.935  0.00  0.00     0.037 A 
HETATM   22  C   UNK N   1      34.954  12.358  16.726  0.00  0.00     0.010 A 
BRANCH  20  23
HETATM   23  O   UNK N   1      35.495  12.936  20.281  0.00  0.00    -0.361 OA
HETATM   24  H   UNK N   1      35.952  13.739  20.436  0.00  0.00     0.217 HD
ENDBRANCH  20  23
ENDBRANCH  16  17
ENDBRANCH  15  16
BRANCH  15  25
HETATM   25  C   UNK N   1      36.299   8.996  14.083  0.00  0.00     0.281 C 
HETATM   26  O   UNK N   1      37.501   8.865  13.905  0.00  0.00    -0.263 OA
BRANCH  25  27
HETATM   27  O   UNK N   1      35.452   7.955  13.891  0.00  0.00    -0.325 OA
HETATM   28  C   UNK N   1      35.880   6.652  13.820  0.00  0.00     0.213 C 
ENDBRANCH  25  27
ENDBRANCH  15  25
ENDBRANCH  13  15
ENDBRANCH  10  11
ENDBRANCH   8  10
ENDBRANCH   5   6
BRANCH   5  29
HETATM   29  C   UNK N   1      33.556  15.614  10.217  0.00  0.00     0.199 C 
BRANCH  29  30
HETATM   30  O   UNK N   1      33.678  16.896   9.671  0.00  0.00    -0.398 OA
HETATM   31  H   UNK N   1      32.925  17.506   9.643  0.00  0.00     0.209 HD
ENDBRANCH  29  30
ENDBRANCH   5  29
ENDBRANCH   2   5
BRANCH   3  32
HETATM   32  C   UNK N   1      35.522  15.143   7.130  0.00  0.00     0.225 C 
BRANCH  32  33
HETATM   33  N   UNK N   1      34.542  15.534   6.158  0.00  0.00    -0.351 N 
HETATM   34  C   UNK N   1      34.054  16.794   6.164  0.00  0.00     0.240 C 
HETATM   35  O   UNK N   1      34.611  17.674   6.799  0.00  0.00    -0.271 OA
HETATM   36  H   UNK N   1      34.226  14.885   5.489  0.00  0.00     0.163 HD
BRANCH  34  37
HETATM   37  C   UNK N   1      32.693  17.006   5.589  0.00  0.00     0.177 C 
BRANCH  37  38
HETATM   38  N   UNK N   1      31.733  17.561   6.512  0.00  0.00    -0.346 N 
HETATM   39  C   UNK N   1      31.059  16.835   7.428  0.00  0.00     0.240 C 
HETATM   40  O   UNK N   1      31.219  15.623   7.517  0.00  0.00    -0.271 OA
HETATM   41  H   UNK N   1      31.557  18.530   6.472  0.00  0.00     0.163 HD
BRANCH  39  42
HETATM   42  C   UNK N   1      30.125  17.534   8.343  0.00  0.00     0.171 C 
BRANCH  42  43
HETATM   43  N   UNK N   1      30.460  17.154   9.710  0.00  0.00    -0.418 N 
HETATM   44  H   UNK N   1      31.085  17.666  10.332  0.00  0.00     0.150 HD
HETATM   45  H   UNK N   1      30.032  16.303  10.075  0.00  0.00     0.150 HD
ENDBRANCH  42  43
BRANCH  42  46
HETATM   46  C   UNK N   1      28.673  17.213   7.948  0.00  0.00     0.072 C 
BRANCH  46  47
HETATM   47  C   UNK N   1      28.229  17.968   6.746  0.00  0.00    -0.056 A 
HETATM   48  C   UNK N   1      28.230  17.358   5.485  0.00  0.00     0.010 A 
HETATM   49  C   UNK N   1      27.959  18.119   4.347  0.00  0.00     0.037 A 
HETATM   50  C   UNK N   1      27.691  19.486   4.470  0.00  0.00     0.065 A 
HETATM   51  C   UNK N   1      27.665  20.086   5.732  0.00  0.00     0.037 A 
HETATM   52  C   UNK N   1      27.939  19.327   6.870  0.00  0.00     0.010 A 
BRANCH  50  53
HETATM   53  O   UNK N   1      27.467  20.225   3.374  0.00  0.00    -0.361 OA
HETATM   54  H   UNK N   1      27.368  19.839   2.524  0.00  0.00     0.217 HD
ENDBRANCH  50  53
ENDBRANCH  46  47
ENDBRANCH  42  46
ENDBRANCH  39  42
ENDBRANCH  37  38
BRANCH  37  55
HETATM   55  C   UNK N   1      32.608  17.610   4.206  0.00  0.00     0.038 C 
BRANCH  55  56
HETATM   56  C   UNK N   1      32.259  16.468   3.264  0.00  0.00    -0.020 C 
HETATM   57  C   UNK N   1      31.387  15.449   3.978  0.00  0.00     0.009 C 
HETATM   58  C   UNK N   1      33.508  15.801   2.740  0.00  0.00     0.009 C 
ENDBRANCH  55  56
ENDBRANCH  37  55
ENDBRANCH  34  37
ENDBRANCH  32  33
ENDBRANCH   3  32
TORSDOF 23
ENDMDL
