MODEL 1
REMARK VINA RESULT:      -6.8      0.000      0.000
REMARK  16 active torsions:
REMARK  status: ('A' for Active; 'I' for Inactive)
REMARK    1  A    between atoms: O_5  and  C_35 
REMARK    2  A    between atoms: O_5  and  C_42 
REMARK    3  A    between atoms: C_17  and  N_10 
REMARK       I    between atoms: N_10  and  C_22 
REMARK    4  A    between atoms: C_23  and  N_11 
REMARK       I    between atoms: N_11  and  C_34 
REMARK    5  A    between atoms: C_14  and  C_15 
REMARK    6  A    between atoms: C_15  and  C_17 
REMARK    7  A    between atoms: C_17  and  C_27 
REMARK    8  A    between atoms: C_20  and  C_21 
REMARK    9  A    between atoms: C_20  and  C_22 
REMARK   10  A    between atoms: C_20  and  C_24 
REMARK   11  A    between atoms: C_21  and  C_26 
REMARK   12  A    between atoms: C_23  and  C_25 
REMARK   13  A    between atoms: C_23  and  C_26 
REMARK   14  A    between atoms: C_24  and  C_28 
REMARK   15  A    between atoms: C_31  and  C_35 
REMARK   16  A    between atoms: C_34  and  C_38 
ROOT
HETATM    1  C   UNK N   1      21.692  14.389   6.075  0.00  0.00     0.089 C 
ENDROOT
BRANCH   1   2
HETATM    2  C   UNK N   1      21.217  14.249   4.609  0.00  0.00     0.095 C 
BRANCH   2   3
HETATM    3  C   UNK N   1      19.929  14.908   4.215  0.00  0.00     0.150 C 
HETATM    4  O   UNK N   1      18.907  14.566   4.790  0.00  0.00    -0.296 OA
BRANCH   3   5
HETATM    5  C   UNK N   1      19.842  15.931   3.109  0.00  0.00     0.158 C 
BRANCH   5   6
HETATM    6  N   UNK N   1      20.645  17.088   3.465  0.00  0.00    -0.344 N 
HETATM    7  C   UNK N   1      20.361  18.380   3.149  0.00  0.00     0.270 C 
HETATM    8  O   UNK N   1      19.253  18.705   2.763  0.00  0.00    -0.266 OA
HETATM    9  H   UNK N   1      21.467  16.923   3.981  0.00  0.00     0.163 HD
BRANCH   7  10
HETATM   10  C   UNK N   1      21.453  19.359   3.146  0.00  0.00     0.124 A 
HETATM   11  N   UNK N   1      21.328  20.636   2.727  0.00  0.00    -0.256 N 
HETATM   12  O   UNK N   1      22.518  21.154   2.727  0.00  0.00    -0.242 OA
ATOM     13  HN  UNK N   1      20.462  21.106   2.461  1.00  0.00     0.195 HD
HETATM   14  C   UNK N   1      23.412  20.274   3.116  0.00  0.00     0.075 A 
HETATM   15  C   UNK N   1      22.781  19.083   3.403  0.00  0.00     0.071 A 
HETATM   16  C   UNK N   1      24.875  20.519   3.169  0.00  0.00     0.079 C 
ENDBRANCH   7  10
ENDBRANCH   5   6
BRANCH   5  17
HETATM   17  C   UNK N   1      19.927  15.380   1.671  0.00  0.00     0.007 C 
HETATM   18  C   UNK N   1      19.160  14.088   1.445  0.00  0.00     0.012 C 
HETATM   19  C   UNK N   1      21.355  15.265   1.168  0.00  0.00     0.012 C 
ENDBRANCH   5  17
ENDBRANCH   3   5
ENDBRANCH   2   3
ENDBRANCH   1   2
BRANCH   1  20
HETATM   20  C   UNK N   1      21.945  15.808   6.524  0.00  0.00     0.223 C 
HETATM   21  O   UNK N   1      21.049  16.452   7.041  0.00  0.00    -0.273 OA
HETATM   22  N   UNK N   1      23.161  16.371   6.401  0.00  0.00    -0.353 N 
HETATM   23  H   UNK N   1      23.278  17.313   6.662  0.00  0.00     0.163 HD
BRANCH  22  24
HETATM   24  C   UNK N   1      24.293  15.645   5.905  0.00  0.00     0.108 C 
BRANCH  24  25
HETATM   25  C   UNK N   1      25.285  16.575   5.174  0.00  0.00     0.043 C 
BRANCH  25  26
HETATM   26  C   UNK N   1      25.373  16.502   3.633  0.00  0.00     0.081 A 
HETATM   27  C   UNK N   1      24.376  15.505   3.022  0.00  0.00     0.034 A 
HETATM   28  C   UNK N   1      25.202  14.501   2.194  0.00  0.00     0.123 A 
HETATM   29  N   UNK N   1      26.563  14.925   2.340  0.00  0.00    -0.361 N 
HETATM   30  C   UNK N   1      26.666  16.006   3.112  0.00  0.00     0.221 A 
HETATM   31  H   UNK N   1      27.329  14.473   1.921  0.00  0.00     0.162 HD
HETATM   32  O   UNK N   1      27.741  16.533   3.348  0.00  0.00    -0.273 OA
ENDBRANCH  25  26
ENDBRANCH  24  25
BRANCH  24  33
HETATM   33  C   UNK N   1      24.895  14.885   7.045  0.00  0.00     0.004 C 
HETATM   34  C   UNK N   1      25.548  13.732   6.898  0.00  0.00     0.080 C 
BRANCH  34  35
HETATM   35  C   UNK N   1      25.639  12.997   5.618  0.00  0.00     0.282 C 
HETATM   36  O   UNK N   1      26.657  13.064   4.943  0.00  0.00    -0.260 OA
BRANCH  35  37
HETATM   37  O   UNK N   1      24.601  12.238   5.190  0.00  0.00    -0.319 OA
BRANCH  37  38
HETATM   38  C   UNK N   1      24.773  10.997   4.610  0.00  0.00     0.174 C 
HETATM   39  C   UNK N   1      24.477   9.889   5.613  0.00  0.00     0.034 C 
ENDBRANCH  37  38
ENDBRANCH  35  37
ENDBRANCH  34  35
ENDBRANCH  24  33
ENDBRANCH  22  24
ENDBRANCH   1  20
BRANCH   1  40
HETATM   40  C   UNK N   1      20.857  13.624   7.117  0.00  0.00     0.053 C 
BRANCH  40  41
HETATM   41  C   UNK N   1      21.677  13.076   8.237  0.00  0.00    -0.057 A 
HETATM   42  C   UNK N   1      21.468  13.577   9.521  0.00  0.00     0.010 A 
HETATM   43  C   UNK N   1      22.107  12.992  10.613  0.00  0.00     0.043 A 
HETATM   44  C   UNK N   1      22.953  11.897  10.422  0.00  0.00     0.116 A 
HETATM   45  F   UNK N   1      23.536  11.305  11.491  0.00  0.00    -0.206 F 
HETATM   46  C   UNK N   1      23.187  11.406   9.133  0.00  0.00     0.043 A 
HETATM   47  C   UNK N   1      22.549  11.994   8.037  0.00  0.00     0.010 A 
ENDBRANCH  40  41
ENDBRANCH   1  40
TORSDOF 16
ENDMDL
MODEL 2
REMARK VINA RESULT:      -6.7     10.668     14.866
REMARK  16 active torsions:
REMARK  status: ('A' for Active; 'I' for Inactive)
REMARK    1  A    between atoms: O_5  and  C_35 
REMARK    2  A    between atoms: O_5  and  C_42 
REMARK    3  A    between atoms: C_17  and  N_10 
REMARK       I    between atoms: N_10  and  C_22 
REMARK    4  A    between atoms: C_23  and  N_11 
REMARK       I    between atoms: N_11  and  C_34 
REMARK    5  A    between atoms: C_14  and  C_15 
REMARK    6  A    between atoms: C_15  and  C_17 
REMARK    7  A    between atoms: C_17  and  C_27 
REMARK    8  A    between atoms: C_20  and  C_21 
REMARK    9  A    between atoms: C_20  and  C_22 
REMARK   10  A    between atoms: C_20  and  C_24 
REMARK   11  A    between atoms: C_21  and  C_26 
REMARK   12  A    between atoms: C_23  and  C_25 
REMARK   13  A    between atoms: C_23  and  C_26 
REMARK   14  A    between atoms: C_24  and  C_28 
REMARK   15  A    between atoms: C_31  and  C_35 
REMARK   16  A    between atoms: C_34  and  C_38 
ROOT
HETATM    1  C   UNK N   1      34.786  15.303   9.839  0.00  0.00     0.089 C 
ENDROOT
BRANCH   1   2
HETATM    2  C   UNK N   1      34.332  14.731  11.203  0.00  0.00     0.095 C 
BRANCH   2   3
HETATM    3  C   UNK N   1      35.381  14.443  12.235  0.00  0.00     0.150 C 
HETATM    4  O   UNK N   1      36.114  15.357  12.581  0.00  0.00    -0.296 OA
BRANCH   3   5
HETATM    5  C   UNK N   1      35.595  13.069  12.819  0.00  0.00     0.158 C 
BRANCH   5   6
HETATM    6  N   UNK N   1      35.428  13.133  14.262  0.00  0.00    -0.344 N 
HETATM    7  C   UNK N   1      36.254  12.566  15.183  0.00  0.00     0.270 C 
HETATM    8  O   UNK N   1      37.366  12.178  14.877  0.00  0.00    -0.266 OA
HETATM    9  H   UNK N   1      34.650  13.630  14.602  0.00  0.00     0.163 HD
BRANCH   7  10
HETATM   10  C   UNK N   1      35.730  12.302  16.527  0.00  0.00     0.124 A 
HETATM   11  N   UNK N   1      35.239  13.252  17.352  0.00  0.00    -0.256 N 
HETATM   12  O   UNK N   1      35.012  12.680  18.495  0.00  0.00    -0.242 OA
ATOM     13  HN  UNK N   1      35.077  14.232  17.120  1.00  0.00     0.195 HD
HETATM   14  C   UNK N   1      35.340  11.410  18.457  0.00  0.00     0.075 A 
HETATM   15  C   UNK N   1      35.816  11.101  17.201  0.00  0.00     0.071 A 
HETATM   16  C   UNK N   1      35.267  10.481  19.613  0.00  0.00     0.079 C 
ENDBRANCH   7  10
ENDBRANCH   5   6
BRANCH   5  17
HETATM   17  C   UNK N   1      34.954  11.899  12.048  0.00  0.00     0.007 C 
HETATM   18  C   UNK N   1      34.145  10.944  12.910  0.00  0.00     0.012 C 
HETATM   19  C   UNK N   1      35.950  11.146  11.184  0.00  0.00     0.012 C 
ENDBRANCH   5  17
ENDBRANCH   3   5
ENDBRANCH   2   3
ENDBRANCH   1   2
BRANCH   1  20
HETATM   20  C   UNK N   1      34.830  16.811   9.770  0.00  0.00     0.223 C 
HETATM   21  O   UNK N   1      35.640  17.428  10.439  0.00  0.00    -0.273 OA
HETATM   22  N   UNK N   1      34.013  17.495   8.947  0.00  0.00    -0.353 N 
HETATM   23  H   UNK N   1      34.038  18.479   8.962  0.00  0.00     0.163 HD
BRANCH  22  24
HETATM   24  C   UNK N   1      33.109  16.839   8.049  0.00  0.00     0.108 C 
BRANCH  24  25
HETATM   25  C   UNK N   1      31.693  16.729   8.653  0.00  0.00     0.043 C 
BRANCH  25  26
HETATM   26  C   UNK N   1      30.643  17.801   8.286  0.00  0.00     0.081 A 
HETATM   27  C   UNK N   1      29.872  18.328   9.507  0.00  0.00     0.034 A 
HETATM   28  C   UNK N   1      28.375  18.092   9.224  0.00  0.00     0.123 A 
HETATM   29  N   UNK N   1      28.332  17.480   7.929  0.00  0.00    -0.361 N 
HETATM   30  C   UNK N   1      29.549  17.321   7.413  0.00  0.00     0.221 A 
HETATM   31  H   UNK N   1      27.502  17.209   7.475  0.00  0.00     0.162 HD
HETATM   32  O   UNK N   1      29.727  16.831   6.310  0.00  0.00    -0.273 OA
ENDBRANCH  25  26
ENDBRANCH  24  25
BRANCH  24  33
HETATM   33  C   UNK N   1      33.158  17.553   6.735  0.00  0.00     0.004 C 
HETATM   34  C   UNK N   1      33.707  17.035   5.635  0.00  0.00     0.080 C 
BRANCH  34  35
HETATM   35  C   UNK N   1      34.450  15.757   5.613  0.00  0.00     0.282 C 
HETATM   36  O   UNK N   1      35.632  15.729   5.922  0.00  0.00    -0.260 OA
BRANCH  35  37
HETATM   37  O   UNK N   1      33.823  14.608   5.258  0.00  0.00    -0.319 OA
BRANCH  37  38
HETATM   38  C   UNK N   1      32.540  14.584   4.750  0.00  0.00     0.174 C 
HETATM   39  C   UNK N   1      31.565  14.013   5.772  0.00  0.00     0.034 C 
ENDBRANCH  37  38
ENDBRANCH  35  37
ENDBRANCH  34  35
ENDBRANCH  24  33
ENDBRANCH  22  24
ENDBRANCH   1  20
BRANCH   1  40
HETATM   40  C   UNK N   1      36.072  14.689   9.258  0.00  0.00     0.053 C 
BRANCH  40  41
HETATM   41  C   UNK N   1      35.819  13.473   8.431  0.00  0.00    -0.057 A 
HETATM   42  C   UNK N   1      36.914  12.735   7.982  0.00  0.00     0.010 A 
HETATM   43  C   UNK N   1      36.717  11.517   7.333  0.00  0.00     0.043 A 
HETATM   44  C   UNK N   1      35.423  11.031   7.138  0.00  0.00     0.116 A 
HETATM   45  F   UNK N   1      35.240   9.827   6.547  0.00  0.00    -0.206 F 
HETATM   46  C   UNK N   1      34.320  11.779   7.564  0.00  0.00     0.043 A 
HETATM   47  C   UNK N   1      34.515  13.001   8.212  0.00  0.00     0.010 A 
ENDBRANCH  40  41
ENDBRANCH   1  40
TORSDOF 16
ENDMDL
MODEL 3
REMARK VINA RESULT:      -6.7      2.784      6.168
REMARK  16 active torsions:
REMARK  status: ('A' for Active; 'I' for Inactive)
REMARK    1  A    between atoms: O_5  and  C_35 
REMARK    2  A    between atoms: O_5  and  C_42 
REMARK    3  A    between atoms: C_17  and  N_10 
REMARK       I    between atoms: N_10  and  C_22 
REMARK    4  A    between atoms: C_23  and  N_11 
REMARK       I    between atoms: N_11  and  C_34 
REMARK    5  A    between atoms: C_14  and  C_15 
REMARK    6  A    between atoms: C_15  and  C_17 
REMARK    7  A    between atoms: C_17  and  C_27 
REMARK    8  A    between atoms: C_20  and  C_21 
REMARK    9  A    between atoms: C_20  and  C_22 
REMARK   10  A    between atoms: C_20  and  C_24 
REMARK   11  A    between atoms: C_21  and  C_26 
REMARK   12  A    between atoms: C_23  and  C_25 
REMARK   13  A    between atoms: C_23  and  C_26 
REMARK   14  A    between atoms: C_24  and  C_28 
REMARK   15  A    between atoms: C_31  and  C_35 
REMARK   16  A    between atoms: C_34  and  C_38 
ROOT
HETATM    1  C   UNK N   1      22.722  14.061   3.819  0.00  0.00     0.089 C 
ENDROOT
BRANCH   1   2
HETATM    2  C   UNK N   1      21.816  13.057   3.067  0.00  0.00     0.095 C 
BRANCH   2   3
HETATM    3  C   UNK N   1      20.341  13.095   3.332  0.00  0.00     0.150 C 
HETATM    4  O   UNK N   1      19.944  12.738   4.430  0.00  0.00    -0.296 OA
BRANCH   3   5
HETATM    5  C   UNK N   1      19.335  13.506   2.286  0.00  0.00     0.158 C 
BRANCH   5   6
HETATM    6  N   UNK N   1      19.220  14.955   2.278  0.00  0.00    -0.344 N 
HETATM    7  C   UNK N   1      20.028  15.813   1.597  0.00  0.00     0.270 C 
HETATM    8  O   UNK N   1      20.762  15.417   0.711  0.00  0.00    -0.266 OA
HETATM    9  H   UNK N   1      18.493  15.351   2.811  0.00  0.00     0.163 HD
BRANCH   7  10
HETATM   10  C   UNK N   1      20.104  17.208   2.042  0.00  0.00     0.124 A 
HETATM   11  N   UNK N   1      19.407  17.714   3.081  0.00  0.00    -0.256 N 
HETATM   12  O   UNK N   1      19.609  18.996   3.086  0.00  0.00    -0.242 OA
ATOM     13  HN  UNK N   1      18.831  17.188   3.739  1.00  0.00     0.195 HD
HETATM   14  C   UNK N   1      20.395  19.350   2.095  0.00  0.00     0.075 A 
HETATM   15  C   UNK N   1      20.751  18.229   1.377  0.00  0.00     0.071 A 
HETATM   16  C   UNK N   1      20.775  20.748   1.774  0.00  0.00     0.079 C 
ENDBRANCH   7  10
ENDBRANCH   5   6
BRANCH   5  17
HETATM   17  C   UNK N   1      19.417  12.760   0.939  0.00  0.00     0.007 C 
HETATM   18  C   UNK N   1      18.247  13.018   0.004  0.00  0.00     0.012 C 
HETATM   19  C   UNK N   1      19.668  11.271   1.104  0.00  0.00     0.012 C 
ENDBRANCH   5  17
ENDBRANCH   3   5
ENDBRANCH   2   3
ENDBRANCH   1   2
BRANCH   1  20
HETATM   20  C   UNK N   1      23.642  13.439   4.842  0.00  0.00     0.223 C 
HETATM   21  O   UNK N   1      24.727  13.003   4.501  0.00  0.00    -0.273 OA
HETATM   22  N   UNK N   1      23.302  13.389   6.144  0.00  0.00    -0.353 N 
HETATM   23  H   UNK N   1      23.905  12.935   6.776  0.00  0.00     0.163 HD
BRANCH  22  24
HETATM   24  C   UNK N   1      22.093  13.976   6.642  0.00  0.00     0.108 C 
BRANCH  24  25
HETATM   25  C   UNK N   1      21.483  13.133   7.781  0.00  0.00     0.043 C 
BRANCH  25  26
HETATM   26  C   UNK N   1      21.932  13.411   9.233  0.00  0.00     0.081 A 
HETATM   27  C   UNK N   1      23.267  12.737   9.588  0.00  0.00     0.034 A 
HETATM   28  C   UNK N   1      23.004  11.847  10.819  0.00  0.00     0.123 A 
HETATM   29  N   UNK N   1      21.614  12.028  11.119  0.00  0.00    -0.361 N 
HETATM   30  C   UNK N   1      21.027  12.871  10.273  0.00  0.00     0.221 A 
HETATM   31  H   UNK N   1      21.149  11.581  11.863  0.00  0.00     0.162 HD
HETATM   32  O   UNK N   1      19.848  13.170  10.368  0.00  0.00    -0.273 OA
ENDBRANCH  25  26
ENDBRANCH  24  25
BRANCH  24  33
HETATM   33  C   UNK N   1      22.386  15.394   7.020  0.00  0.00     0.004 C 
HETATM   34  C   UNK N   1      21.470  16.364   7.009  0.00  0.00     0.080 C 
BRANCH  34  35
HETATM   35  C   UNK N   1      20.095  16.188   6.494  0.00  0.00     0.282 C 
HETATM   36  O   UNK N   1      19.903  16.031   5.297  0.00  0.00    -0.260 OA
BRANCH  35  37
HETATM   37  O   UNK N   1      19.040  16.190   7.346  0.00  0.00    -0.319 OA
BRANCH  37  38
HETATM   38  C   UNK N   1      19.188  16.284   8.716  0.00  0.00     0.174 C 
HETATM   39  C   UNK N   1      18.537  17.558   9.241  0.00  0.00     0.034 C 
ENDBRANCH  37  38
ENDBRANCH  35  37
ENDBRANCH  34  35
ENDBRANCH  24  33
ENDBRANCH  22  24
ENDBRANCH   1  20
BRANCH   1  40
HETATM   40  C   UNK N   1      23.486  15.057   2.928  0.00  0.00     0.053 C 
BRANCH  40  41
HETATM   41  C   UNK N   1      23.939  16.274   3.665  0.00  0.00    -0.057 A 
HETATM   42  C   UNK N   1      25.304  16.446   3.889  0.00  0.00     0.010 A 
HETATM   43  C   UNK N   1      25.778  17.635   4.442  0.00  0.00     0.043 A 
HETATM   44  C   UNK N   1      24.885  18.658   4.766  0.00  0.00     0.116 A 
HETATM   45  F   UNK N   1      25.354  19.827   5.261  0.00  0.00    -0.206 F 
HETATM   46  C   UNK N   1      23.511  18.481   4.568  0.00  0.00     0.043 A 
HETATM   47  C   UNK N   1      23.035  17.289   4.016  0.00  0.00     0.010 A 
ENDBRANCH  40  41
ENDBRANCH   1  40
TORSDOF 16
ENDMDL
MODEL 4
REMARK VINA RESULT:      -6.6     13.856     17.059
REMARK  16 active torsions:
REMARK  status: ('A' for Active; 'I' for Inactive)
REMARK    1  A    between atoms: O_5  and  C_35 
REMARK    2  A    between atoms: O_5  and  C_42 
REMARK    3  A    between atoms: C_17  and  N_10 
REMARK       I    between atoms: N_10  and  C_22 
REMARK    4  A    between atoms: C_23  and  N_11 
REMARK       I    between atoms: N_11  and  C_34 
REMARK    5  A    between atoms: C_14  and  C_15 
REMARK    6  A    between atoms: C_15  and  C_17 
REMARK    7  A    between atoms: C_17  and  C_27 
REMARK    8  A    between atoms: C_20  and  C_21 
REMARK    9  A    between atoms: C_20  and  C_22 
REMARK   10  A    between atoms: C_20  and  C_24 
REMARK   11  A    between atoms: C_21  and  C_26 
REMARK   12  A    between atoms: C_23  and  C_25 
REMARK   13  A    between atoms: C_23  and  C_26 
REMARK   14  A    between atoms: C_24  and  C_28 
REMARK   15  A    between atoms: C_31  and  C_35 
REMARK   16  A    between atoms: C_34  and  C_38 
ROOT
HETATM    1  C   UNK N   1      26.356  24.589  -6.121  0.00  0.00     0.089 C 
ENDROOT
BRANCH   1   2
HETATM    2  C   UNK N   1      26.635  23.718  -4.873  0.00  0.00     0.095 C 
BRANCH   2   3
HETATM    3  C   UNK N   1      27.339  24.350  -3.710  0.00  0.00     0.150 C 
HETATM    4  O   UNK N   1      26.662  24.749  -2.775  0.00  0.00    -0.296 OA
BRANCH   3   5
HETATM    5  C   UNK N   1      28.833  24.556  -3.676  0.00  0.00     0.158 C 
BRANCH   5   6
HETATM    6  N   UNK N   1      29.495  23.272  -3.840  0.00  0.00    -0.344 N 
HETATM    7  C   UNK N   1      30.392  22.724  -2.976  0.00  0.00     0.270 C 
HETATM    8  O   UNK N   1      30.515  23.150  -1.842  0.00  0.00    -0.266 OA
HETATM    9  H   UNK N   1      29.275  22.753  -4.648  0.00  0.00     0.163 HD
BRANCH   7  10
HETATM   10  C   UNK N   1      31.311  21.697  -3.476  0.00  0.00     0.124 A 
HETATM   11  N   UNK N   1      30.945  20.435  -3.784  0.00  0.00    -0.256 N 
HETATM   12  O   UNK N   1      32.034  19.778  -4.046  0.00  0.00    -0.242 OA
ATOM     13  HN  UNK N   1      29.994  20.067  -3.809  1.00  0.00     0.195 HD
HETATM   14  C   UNK N   1      33.089  20.547  -3.912  0.00  0.00     0.075 A 
HETATM   15  C   UNK N   1      32.685  21.811  -3.541  0.00  0.00     0.071 A 
HETATM   16  C   UNK N   1      34.494  20.094  -4.074  0.00  0.00     0.079 C 
ENDBRANCH   7  10
ENDBRANCH   5   6
BRANCH   5  17
HETATM   17  C   UNK N   1      29.366  25.773  -4.458  0.00  0.00     0.007 C 
HETATM   18  C   UNK N   1      30.593  25.487  -5.308  0.00  0.00     0.012 C 
HETATM   19  C   UNK N   1      29.583  26.991  -3.577  0.00  0.00     0.012 C 
ENDBRANCH   5  17
ENDBRANCH   3   5
ENDBRANCH   2   3
ENDBRANCH   1   2
BRANCH   1  20
HETATM   20  C   UNK N   1      26.036  23.811  -7.375  0.00  0.00     0.223 C 
HETATM   21  O   UNK N   1      24.886  23.486  -7.614  0.00  0.00    -0.273 OA
HETATM   22  N   UNK N   1      26.996  23.500  -8.266  0.00  0.00    -0.353 N 
HETATM   23  H   UNK N   1      26.760  22.953  -9.049  0.00  0.00     0.163 HD
BRANCH  22  24
HETATM   24  C   UNK N   1      28.352  23.940  -8.113  0.00  0.00     0.108 C 
BRANCH  24  25
HETATM   25  C   UNK N   1      29.181  22.939  -7.280  0.00  0.00     0.043 C 
BRANCH  25  26
HETATM   26  C   UNK N   1      29.890  21.775  -8.009  0.00  0.00     0.081 A 
HETATM   27  C   UNK N   1      29.017  20.515  -8.117  0.00  0.00     0.034 A 
HETATM   28  C   UNK N   1      29.810  19.367  -7.462  0.00  0.00     0.123 A 
HETATM   29  N   UNK N   1      31.039  19.961  -7.028  0.00  0.00    -0.361 N 
HETATM   30  C   UNK N   1      31.094  21.259  -7.321  0.00  0.00     0.221 A 
HETATM   31  H   UNK N   1      31.756  19.470  -6.569  0.00  0.00     0.162 HD
HETATM   32  O   UNK N   1      32.066  21.945  -7.048  0.00  0.00    -0.273 OA
ENDBRANCH  25  26
ENDBRANCH  24  25
BRANCH  24  33
HETATM   33  C   UNK N   1      28.910  24.211  -9.475  0.00  0.00     0.004 C 
HETATM   34  C   UNK N   1      28.701  25.346 -10.144  0.00  0.00     0.080 C 
BRANCH  34  35
HETATM   35  C   UNK N   1      27.788  26.414  -9.684  0.00  0.00     0.282 C 
HETATM   36  O   UNK N   1      26.578  26.238  -9.705  0.00  0.00    -0.260 OA
BRANCH  35  37
HETATM   37  O   UNK N   1      28.285  27.590  -9.229  0.00  0.00    -0.319 OA
BRANCH  37  38
HETATM   38  C   UNK N   1      29.590  27.983  -9.448  0.00  0.00     0.174 C 
HETATM   39  C   UNK N   1      30.399  27.911  -8.159  0.00  0.00     0.034 C 
ENDBRANCH  37  38
ENDBRANCH  35  37
ENDBRANCH  34  35
ENDBRANCH  24  33
ENDBRANCH  22  24
ENDBRANCH   1  20
BRANCH   1  40
HETATM   40  C   UNK N   1      25.351  25.736  -5.916  0.00  0.00     0.053 C 
BRANCH  40  41
HETATM   41  C   UNK N   1      25.995  27.007  -5.470  0.00  0.00    -0.057 A 
HETATM   42  C   UNK N   1      26.927  27.611  -6.314  0.00  0.00     0.010 A 
HETATM   43  C   UNK N   1      27.441  28.869  -6.001  0.00  0.00     0.043 A 
HETATM   44  C   UNK N   1      27.017  29.528  -4.846  0.00  0.00     0.116 A 
HETATM   45  F   UNK N   1      27.486  30.768  -4.570  0.00  0.00    -0.206 F 
HETATM   46  C   UNK N   1      26.101  28.916  -3.982  0.00  0.00     0.043 A 
HETATM   47  C   UNK N   1      25.588  27.654  -4.293  0.00  0.00     0.010 A 
ENDBRANCH  40  41
ENDBRANCH   1  40
TORSDOF 16
ENDMDL
MODEL 5
REMARK VINA RESULT:      -6.6     14.149     17.236
REMARK  16 active torsions:
REMARK  status: ('A' for Active; 'I' for Inactive)
REMARK    1  A    between atoms: O_5  and  C_35 
REMARK    2  A    between atoms: O_5  and  C_42 
REMARK    3  A    between atoms: C_17  and  N_10 
REMARK       I    between atoms: N_10  and  C_22 
REMARK    4  A    between atoms: C_23  and  N_11 
REMARK       I    between atoms: N_11  and  C_34 
REMARK    5  A    between atoms: C_14  and  C_15 
REMARK    6  A    between atoms: C_15  and  C_17 
REMARK    7  A    between atoms: C_17  and  C_27 
REMARK    8  A    between atoms: C_20  and  C_21 
REMARK    9  A    between atoms: C_20  and  C_22 
REMARK   10  A    between atoms: C_20  and  C_24 
REMARK   11  A    between atoms: C_21  and  C_26 
REMARK   12  A    between atoms: C_23  and  C_25 
REMARK   13  A    between atoms: C_23  and  C_26 
REMARK   14  A    between atoms: C_24  and  C_28 
REMARK   15  A    between atoms: C_31  and  C_35 
REMARK   16  A    between atoms: C_34  and  C_38 
ROOT
HETATM    1  C   UNK N   1      26.455  24.653  -6.302  0.00  0.00     0.089 C 
ENDROOT
BRANCH   1   2
HETATM    2  C   UNK N   1      26.751  23.768  -5.067  0.00  0.00     0.095 C 
BRANCH   2   3
HETATM    3  C   UNK N   1      27.390  24.410  -3.872  0.00  0.00     0.150 C 
HETATM    4  O   UNK N   1      26.678  24.691  -2.920  0.00  0.00    -0.296 OA
BRANCH   3   5
HETATM    5  C   UNK N   1      28.855  24.764  -3.822  0.00  0.00     0.158 C 
BRANCH   5   6
HETATM    6  N   UNK N   1      29.644  23.553  -3.981  0.00  0.00    -0.344 N 
HETATM    7  C   UNK N   1      30.553  23.075  -3.089  0.00  0.00     0.270 C 
HETATM    8  O   UNK N   1      30.589  23.486  -1.944  0.00  0.00    -0.266 OA
HETATM    9  H   UNK N   1      29.508  23.033  -4.805  0.00  0.00     0.163 HD
BRANCH   7  10
HETATM   10  C   UNK N   1      31.587  22.151  -3.567  0.00  0.00     0.124 A 
HETATM   11  N   UNK N   1      31.641  20.840  -3.248  0.00  0.00    -0.256 N 
HETATM   12  O   UNK N   1      32.758  20.380  -3.722  0.00  0.00    -0.242 OA
ATOM     13  HN  UNK N   1      30.937  20.312  -2.732  1.00  0.00     0.195 HD
HETATM   14  C   UNK N   1      33.437  21.329  -4.325  0.00  0.00     0.075 A 
HETATM   15  C   UNK N   1      32.727  22.508  -4.258  0.00  0.00     0.071 A 
HETATM   16  C   UNK N   1      34.785  21.157  -4.922  0.00  0.00     0.079 C 
ENDBRANCH   7  10
ENDBRANCH   5   6
BRANCH   5  17
HETATM   17  C   UNK N   1      29.272  26.029  -4.598  0.00  0.00     0.007 C 
HETATM   18  C   UNK N   1      30.187  25.768  -5.783  0.00  0.00     0.012 C 
HETATM   19  C   UNK N   1      29.837  27.114  -3.698  0.00  0.00     0.012 C 
ENDBRANCH   5  17
ENDBRANCH   3   5
ENDBRANCH   2   3
ENDBRANCH   1   2
BRANCH   1  20
HETATM   20  C   UNK N   1      26.034  23.893  -7.536  0.00  0.00     0.223 C 
HETATM   21  O   UNK N   1      24.873  23.550  -7.675  0.00  0.00    -0.273 OA
HETATM   22  N   UNK N   1      26.913  23.616  -8.517  0.00  0.00    -0.353 N 
HETATM   23  H   UNK N   1      26.615  23.079  -9.286  0.00  0.00     0.163 HD
BRANCH  22  24
HETATM   24  C   UNK N   1      28.270  24.077  -8.481  0.00  0.00     0.108 C 
BRANCH  24  25
HETATM   25  C   UNK N   1      29.269  22.901  -8.512  0.00  0.00     0.043 C 
BRANCH  25  26
HETATM   26  C   UNK N   1      29.178  21.821  -7.411  0.00  0.00     0.081 A 
HETATM   27  C   UNK N   1      30.555  21.309  -6.959  0.00  0.00     0.034 A 
HETATM   28  C   UNK N   1      30.553  19.782  -7.166  0.00  0.00     0.123 A 
HETATM   29  N   UNK N   1      29.256  19.479  -7.694  0.00  0.00    -0.361 N 
HETATM   30  C   UNK N   1      28.505  20.570  -7.828  0.00  0.00     0.221 A 
HETATM   31  H   UNK N   1      28.955  18.572  -7.930  0.00  0.00     0.162 HD
HETATM   32  O   UNK N   1      27.360  20.523  -8.247  0.00  0.00    -0.273 OA
ENDBRANCH  25  26
ENDBRANCH  24  25
BRANCH  24  33
HETATM   33  C   UNK N   1      28.455  25.065  -9.589  0.00  0.00     0.004 C 
HETATM   34  C   UNK N   1      27.751  25.043 -10.722  0.00  0.00     0.080 C 
BRANCH  34  35
HETATM   35  C   UNK N   1      26.803  23.966 -11.077  0.00  0.00     0.282 C 
HETATM   36  O   UNK N   1      27.219  22.861 -11.394  0.00  0.00    -0.260 OA
BRANCH  35  37
HETATM   37  O   UNK N   1      25.466  24.194 -11.046  0.00  0.00    -0.319 OA
BRANCH  37  38
HETATM   38  C   UNK N   1      24.927  25.431 -10.757  0.00  0.00     0.174 C 
HETATM   39  C   UNK N   1      24.242  26.020 -11.984  0.00  0.00     0.034 C 
ENDBRANCH  37  38
ENDBRANCH  35  37
ENDBRANCH  34  35
ENDBRANCH  24  33
ENDBRANCH  22  24
ENDBRANCH   1  20
BRANCH   1  40
HETATM   40  C   UNK N   1      25.522  25.850  -6.050  0.00  0.00     0.053 C 
BRANCH  40  41
HETATM   41  C   UNK N   1      26.237  27.160  -6.049  0.00  0.00    -0.057 A 
HETATM   42  C   UNK N   1      26.086  28.000  -4.946  0.00  0.00     0.010 A 
HETATM   43  C   UNK N   1      26.848  29.162  -4.842  0.00  0.00     0.043 A 
HETATM   44  C   UNK N   1      27.771  29.483  -5.840  0.00  0.00     0.116 A 
HETATM   45  F   UNK N   1      28.540  30.590  -5.712  0.00  0.00    -0.206 F 
HETATM   46  C   UNK N   1      27.909  28.659  -6.962  0.00  0.00     0.043 A 
HETATM   47  C   UNK N   1      27.142  27.494  -7.068  0.00  0.00     0.010 A 
ENDBRANCH  40  41
ENDBRANCH   1  40
TORSDOF 16
ENDMDL
MODEL 6
REMARK VINA RESULT:      -6.6      9.521     13.887
REMARK  16 active torsions:
REMARK  status: ('A' for Active; 'I' for Inactive)
REMARK    1  A    between atoms: O_5  and  C_35 
REMARK    2  A    between atoms: O_5  and  C_42 
REMARK    3  A    between atoms: C_17  and  N_10 
REMARK       I    between atoms: N_10  and  C_22 
REMARK    4  A    between atoms: C_23  and  N_11 
REMARK       I    between atoms: N_11  and  C_34 
REMARK    5  A    between atoms: C_14  and  C_15 
REMARK    6  A    between atoms: C_15  and  C_17 
REMARK    7  A    between atoms: C_17  and  C_27 
REMARK    8  A    between atoms: C_20  and  C_21 
REMARK    9  A    between atoms: C_20  and  C_22 
REMARK   10  A    between atoms: C_20  and  C_24 
REMARK   11  A    between atoms: C_21  and  C_26 
REMARK   12  A    between atoms: C_23  and  C_25 
REMARK   13  A    between atoms: C_23  and  C_26 
REMARK   14  A    between atoms: C_24  and  C_28 
REMARK   15  A    between atoms: C_31  and  C_35 
REMARK   16  A    between atoms: C_34  and  C_38 
ROOT
HETATM    1  C   UNK N   1      34.684  15.311   9.841  0.00  0.00     0.089 C 
ENDROOT
BRANCH   1   2
HETATM    2  C   UNK N   1      34.254  14.763  11.223  0.00  0.00     0.095 C 
BRANCH   2   3
HETATM    3  C   UNK N   1      35.320  14.261  12.150  0.00  0.00     0.150 C 
HETATM    4  O   UNK N   1      36.054  15.081  12.680  0.00  0.00    -0.296 OA
BRANCH   3   5
HETATM    5  C   UNK N   1      35.549  12.793  12.410  0.00  0.00     0.158 C 
BRANCH   5   6
HETATM    6  N   UNK N   1      34.740  12.013  11.487  0.00  0.00    -0.344 N 
HETATM    7  C   UNK N   1      34.127  10.833  11.771  0.00  0.00     0.270 C 
HETATM    8  O   UNK N   1      33.983  10.459  12.921  0.00  0.00    -0.266 OA
HETATM    9  H   UNK N   1      34.626  12.371  10.578  0.00  0.00     0.163 HD
BRANCH   7  10
HETATM   10  C   UNK N   1      33.762   9.946  10.662  0.00  0.00     0.124 A 
HETATM   11  N   UNK N   1      34.628   9.128  10.027  0.00  0.00    -0.256 N 
HETATM   12  O   UNK N   1      33.993   8.615   9.017  0.00  0.00    -0.242 OA
ATOM     13  HN  UNK N   1      35.596   8.947  10.290  1.00  0.00     0.195 HD
HETATM   14  C   UNK N   1      32.762   9.067   8.959  0.00  0.00     0.075 A 
HETATM   15  C   UNK N   1      32.549   9.940  10.004  0.00  0.00     0.071 A 
HETATM   16  C   UNK N   1      31.786   8.732   7.891  0.00  0.00     0.079 C 
ENDBRANCH   7  10
ENDBRANCH   5   6
BRANCH   5  17
HETATM   17  C   UNK N   1      37.012  12.371  12.656  0.00  0.00     0.007 C 
HETATM   18  C   UNK N   1      37.665  11.652  11.487  0.00  0.00     0.012 C 
HETATM   19  C   UNK N   1      37.191  11.591  13.946  0.00  0.00     0.012 C 
ENDBRANCH   5  17
ENDBRANCH   3   5
ENDBRANCH   2   3
ENDBRANCH   1   2
BRANCH   1  20
HETATM   20  C   UNK N   1      34.814  16.814   9.770  0.00  0.00     0.223 C 
HETATM   21  O   UNK N   1      35.639  17.387  10.459  0.00  0.00    -0.273 OA
HETATM   22  N   UNK N   1      34.058  17.539   8.925  0.00  0.00    -0.353 N 
HETATM   23  H   UNK N   1      34.137  18.520   8.938  0.00  0.00     0.163 HD
BRANCH  22  24
HETATM   24  C   UNK N   1      33.143  16.931   8.005  0.00  0.00     0.108 C 
BRANCH  24  25
HETATM   25  C   UNK N   1      31.724  16.825   8.605  0.00  0.00     0.043 C 
BRANCH  25  26
HETATM   26  C   UNK N   1      30.700  17.938   8.291  0.00  0.00     0.081 A 
HETATM   27  C   UNK N   1      29.932  18.414   9.534  0.00  0.00     0.034 A 
HETATM   28  C   UNK N   1      28.433  18.226   9.231  0.00  0.00     0.123 A 
HETATM   29  N   UNK N   1      28.385  17.685   7.905  0.00  0.00    -0.361 N 
HETATM   30  C   UNK N   1      29.601  17.528   7.388  0.00  0.00     0.221 A 
HETATM   31  H   UNK N   1      27.552  17.456   7.433  0.00  0.00     0.162 HD
HETATM   32  O   UNK N   1      29.776  17.095   6.260  0.00  0.00    -0.273 OA
ENDBRANCH  25  26
ENDBRANCH  24  25
BRANCH  24  33
HETATM   33  C   UNK N   1      33.205  17.689   6.716  0.00  0.00     0.004 C 
HETATM   34  C   UNK N   1      33.685  17.177   5.582  0.00  0.00     0.080 C 
BRANCH  34  35
HETATM   35  C   UNK N   1      34.334  15.852   5.491  0.00  0.00     0.282 C 
HETATM   36  O   UNK N   1      35.491  15.709   5.860  0.00  0.00    -0.260 OA
BRANCH  35  37
HETATM   37  O   UNK N   1      33.650  14.787   5.005  0.00  0.00    -0.319 OA
BRANCH  37  38
HETATM   38  C   UNK N   1      32.336  14.870   4.592  0.00  0.00     0.174 C 
HETATM   39  C   UNK N   1      31.413  14.173   5.584  0.00  0.00     0.034 C 
ENDBRANCH  37  38
ENDBRANCH  35  37
ENDBRANCH  34  35
ENDBRANCH  24  33
ENDBRANCH  22  24
ENDBRANCH   1  20
BRANCH   1  40
HETATM   40  C   UNK N   1      35.907  14.624   9.209  0.00  0.00     0.053 C 
BRANCH  40  41
HETATM   41  C   UNK N   1      35.563  13.365   8.486  0.00  0.00    -0.057 A 
HETATM   42  C   UNK N   1      34.246  13.177   8.068  0.00  0.00     0.010 A 
HETATM   43  C   UNK N   1      33.916  12.085   7.265  0.00  0.00     0.043 A 
HETATM   44  C   UNK N   1      34.907  11.184   6.872  0.00  0.00     0.116 A 
HETATM   45  F   UNK N   1      34.589  10.151   6.057  0.00  0.00    -0.206 F 
HETATM   46  C   UNK N   1      36.225  11.352   7.309  0.00  0.00     0.043 A 
HETATM   47  C   UNK N   1      36.557  12.444   8.117  0.00  0.00     0.010 A 
ENDBRANCH  40  41
ENDBRANCH   1  40
TORSDOF 16
ENDMDL
MODEL 7
REMARK VINA RESULT:      -6.6      1.609      2.900
REMARK  16 active torsions:
REMARK  status: ('A' for Active; 'I' for Inactive)
REMARK    1  A    between atoms: O_5  and  C_35 
REMARK    2  A    between atoms: O_5  and  C_42 
REMARK    3  A    between atoms: C_17  and  N_10 
REMARK       I    between atoms: N_10  and  C_22 
REMARK    4  A    between atoms: C_23  and  N_11 
REMARK       I    between atoms: N_11  and  C_34 
REMARK    5  A    between atoms: C_14  and  C_15 
REMARK    6  A    between atoms: C_15  and  C_17 
REMARK    7  A    between atoms: C_17  and  C_27 
REMARK    8  A    between atoms: C_20  and  C_21 
REMARK    9  A    between atoms: C_20  and  C_22 
REMARK   10  A    between atoms: C_20  and  C_24 
REMARK   11  A    between atoms: C_21  and  C_26 
REMARK   12  A    between atoms: C_23  and  C_25 
REMARK   13  A    between atoms: C_23  and  C_26 
REMARK   14  A    between atoms: C_24  and  C_28 
REMARK   15  A    between atoms: C_31  and  C_35 
REMARK   16  A    between atoms: C_34  and  C_38 
ROOT
HETATM    1  C   UNK N   1      20.694  15.836   6.483  0.00  0.00     0.089 C 
ENDROOT
BRANCH   1   2
HETATM    2  C   UNK N   1      19.516  16.146   5.529  0.00  0.00     0.095 C 
BRANCH   2   3
HETATM    3  C   UNK N   1      19.572  15.603   4.133  0.00  0.00     0.150 C 
HETATM    4  O   UNK N   1      19.334  14.417   3.967  0.00  0.00    -0.296 OA
BRANCH   3   5
HETATM    5  C   UNK N   1      19.959  16.448   2.944  0.00  0.00     0.158 C 
BRANCH   5   6
HETATM    6  N   UNK N   1      20.937  17.439   3.361  0.00  0.00    -0.344 N 
HETATM    7  C   UNK N   1      20.817  18.786   3.209  0.00  0.00     0.270 C 
HETATM    8  O   UNK N   1      19.743  19.297   2.947  0.00  0.00    -0.266 OA
HETATM    9  H   UNK N   1      21.757  17.107   3.792  0.00  0.00     0.163 HD
BRANCH   7  10
HETATM   10  C   UNK N   1      22.033  19.606   3.229  0.00  0.00     0.124 A 
HETATM   11  N   UNK N   1      22.116  20.853   2.719  0.00  0.00    -0.256 N 
HETATM   12  O   UNK N   1      23.364  21.204   2.780  0.00  0.00    -0.242 OA
ATOM     13  HN  UNK N   1      21.346  21.413   2.356  1.00  0.00     0.195 HD
HETATM   14  C   UNK N   1      24.097  20.243   3.294  0.00  0.00     0.075 A 
HETATM   15  C   UNK N   1      23.287  19.173   3.607  0.00  0.00     0.071 A 
HETATM   16  C   UNK N   1      25.573  20.292   3.447  0.00  0.00     0.079 C 
ENDBRANCH   7  10
ENDBRANCH   5   6
BRANCH   5  17
HETATM   17  C   UNK N   1      20.187  15.689   1.621  0.00  0.00     0.007 C 
HETATM   18  C   UNK N   1      21.593  15.137   1.446  0.00  0.00     0.012 C 
HETATM   19  C   UNK N   1      19.756  16.486   0.402  0.00  0.00     0.012 C 
ENDBRANCH   5  17
ENDBRANCH   3   5
ENDBRANCH   2   3
ENDBRANCH   1   2
BRANCH   1  20
HETATM   20  C   UNK N   1      21.842  16.813   6.408  0.00  0.00     0.223 C 
HETATM   21  O   UNK N   1      21.644  18.002   6.583  0.00  0.00    -0.273 OA
HETATM   22  N   UNK N   1      23.102  16.392   6.188  0.00  0.00    -0.353 N 
HETATM   23  H   UNK N   1      23.819  17.060   6.099  0.00  0.00     0.163 HD
BRANCH  22  24
HETATM   24  C   UNK N   1      23.435  15.002   6.079  0.00  0.00     0.108 C 
BRANCH  24  25
HETATM   25  C   UNK N   1      23.506  14.550   4.605  0.00  0.00     0.043 C 
BRANCH  25  26
HETATM   26  C   UNK N   1      23.771  13.060   4.297  0.00  0.00     0.081 A 
HETATM   27  C   UNK N   1      24.819  12.854   3.191  0.00  0.00     0.034 A 
HETATM   28  C   UNK N   1      24.146  12.007   2.093  0.00  0.00     0.123 A 
HETATM   29  N   UNK N   1      22.818  11.763   2.570  0.00  0.00    -0.361 N 
HETATM   30  C   UNK N   1      22.606  12.324   3.759  0.00  0.00     0.221 A 
HETATM   31  H   UNK N   1      22.142  11.243   2.078  0.00  0.00     0.162 HD
HETATM   32  O   UNK N   1      21.540  12.219   4.345  0.00  0.00    -0.273 OA
ENDBRANCH  25  26
ENDBRANCH  24  25
BRANCH  24  33
HETATM   33  C   UNK N   1      24.695  14.764   6.852  0.00  0.00     0.004 C 
HETATM   34  C   UNK N   1      25.842  15.397   6.605  0.00  0.00     0.080 C 
BRANCH  34  35
HETATM   35  C   UNK N   1      26.046  16.308   5.458  0.00  0.00     0.282 C 
HETATM   36  O   UNK N   1      25.756  17.491   5.554  0.00  0.00    -0.260 OA
BRANCH  35  37
HETATM   37  O   UNK N   1      26.565  15.838   4.296  0.00  0.00    -0.319 OA
BRANCH  37  38
HETATM   38  C   UNK N   1      26.582  16.581   3.133  0.00  0.00     0.174 C 
HETATM   39  C   UNK N   1      26.063  15.758   1.960  0.00  0.00     0.034 C 
ENDBRANCH  37  38
ENDBRANCH  35  37
ENDBRANCH  34  35
ENDBRANCH  24  33
ENDBRANCH  22  24
ENDBRANCH   1  20
BRANCH   1  40
HETATM   40  C   UNK N   1      20.305  15.559   7.946  0.00  0.00     0.053 C 
BRANCH  40  41
HETATM   41  C   UNK N   1      20.887  14.291   8.478  0.00  0.00    -0.057 A 
HETATM   42  C   UNK N   1      21.153  13.255   7.583  0.00  0.00     0.010 A 
HETATM   43  C   UNK N   1      21.829  12.115   8.015  0.00  0.00     0.043 A 
HETATM   44  C   UNK N   1      22.247  12.013   9.343  0.00  0.00     0.116 A 
HETATM   45  F   UNK N   1      22.942  10.923   9.747  0.00  0.00    -0.206 F 
HETATM   46  C   UNK N   1      21.960  13.037  10.252  0.00  0.00     0.043 A 
HETATM   47  C   UNK N   1      21.280  14.180   9.821  0.00  0.00     0.010 A 
ENDBRANCH  40  41
ENDBRANCH   1  40
TORSDOF 16
ENDMDL
MODEL 8
REMARK VINA RESULT:      -6.5      2.269      4.831
REMARK  16 active torsions:
REMARK  status: ('A' for Active; 'I' for Inactive)
REMARK    1  A    between atoms: O_5  and  C_35 
REMARK    2  A    between atoms: O_5  and  C_42 
REMARK    3  A    between atoms: C_17  and  N_10 
REMARK       I    between atoms: N_10  and  C_22 
REMARK    4  A    between atoms: C_23  and  N_11 
REMARK       I    between atoms: N_11  and  C_34 
REMARK    5  A    between atoms: C_14  and  C_15 
REMARK    6  A    between atoms: C_15  and  C_17 
REMARK    7  A    between atoms: C_17  and  C_27 
REMARK    8  A    between atoms: C_20  and  C_21 
REMARK    9  A    between atoms: C_20  and  C_22 
REMARK   10  A    between atoms: C_20  and  C_24 
REMARK   11  A    between atoms: C_21  and  C_26 
REMARK   12  A    between atoms: C_23  and  C_25 
REMARK   13  A    between atoms: C_23  and  C_26 
REMARK   14  A    between atoms: C_24  and  C_28 
REMARK   15  A    between atoms: C_31  and  C_35 
REMARK   16  A    between atoms: C_34  and  C_38 
ROOT
HETATM    1  C   UNK N   1      21.086  15.526   6.283  0.00  0.00     0.089 C 
ENDROOT
BRANCH   1   2
HETATM    2  C   UNK N   1      20.275  15.441   4.968  0.00  0.00     0.095 C 
BRANCH   2   3
HETATM    3  C   UNK N   1      19.364  14.266   4.771  0.00  0.00     0.150 C 
HETATM    4  O   UNK N   1      18.191  14.388   5.087  0.00  0.00    -0.296 OA
BRANCH   3   5
HETATM    5  C   UNK N   1      19.850  12.936   4.251  0.00  0.00     0.158 C 
BRANCH   5   6
HETATM    6  N   UNK N   1      20.991  13.153   3.377  0.00  0.00    -0.344 N 
HETATM    7  C   UNK N   1      21.152  12.626   2.134  0.00  0.00     0.270 C 
HETATM    8  O   UNK N   1      20.215  12.133   1.533  0.00  0.00    -0.266 OA
HETATM    9  H   UNK N   1      21.711  13.734   3.715  0.00  0.00     0.163 HD
BRANCH   7  10
HETATM   10  C   UNK N   1      22.507  12.533   1.580  0.00  0.00     0.124 A 
HETATM   11  N   UNK N   1      22.972  13.306   0.576  0.00  0.00    -0.256 N 
HETATM   12  O   UNK N   1      24.143  12.846   0.255  0.00  0.00    -0.242 OA
ATOM     13  HN  UNK N   1      22.495  14.101   0.151  1.00  0.00     0.195 HD
HETATM   14  C   UNK N   1      24.457  11.807   0.993  0.00  0.00     0.075 A 
HETATM   15  C   UNK N   1      23.431  11.551   1.877  0.00  0.00     0.071 A 
HETATM   16  C   UNK N   1      25.696  11.004   0.842  0.00  0.00     0.079 C 
ENDBRANCH   7  10
ENDBRANCH   5   6
BRANCH   5  17
HETATM   17  C   UNK N   1      19.909  11.788   5.279  0.00  0.00     0.007 C 
HETATM   18  C   UNK N   1      21.311  11.424   5.736  0.00  0.00     0.012 C 
HETATM   19  C   UNK N   1      19.142  10.556   4.831  0.00  0.00     0.012 C 
ENDBRANCH   5  17
ENDBRANCH   3   5
ENDBRANCH   2   3
ENDBRANCH   1   2
BRANCH   1  20
HETATM   20  C   UNK N   1      21.355  16.929   6.769  0.00  0.00     0.223 C 
HETATM   21  O   UNK N   1      20.789  17.349   7.763  0.00  0.00    -0.273 OA
HETATM   22  N   UNK N   1      22.245  17.724   6.146  0.00  0.00    -0.353 N 
HETATM   23  H   UNK N   1      22.361  18.649   6.462  0.00  0.00     0.163 HD
BRANCH  22  24
HETATM   24  C   UNK N   1      23.031  17.269   5.037  0.00  0.00     0.108 C 
BRANCH  24  25
HETATM   25  C   UNK N   1      23.153  18.356   3.947  0.00  0.00     0.043 C 
BRANCH  25  26
HETATM   26  C   UNK N   1      21.946  19.284   3.685  0.00  0.00     0.081 A 
HETATM   27  C   UNK N   1      20.768  18.560   3.014  0.00  0.00     0.034 A 
HETATM   28  C   UNK N   1      20.460  19.324   1.710  0.00  0.00     0.123 A 
HETATM   29  N   UNK N   1      21.407  20.399   1.675  0.00  0.00    -0.361 N 
HETATM   30  C   UNK N   1      22.212  20.388   2.736  0.00  0.00     0.221 A 
HETATM   31  H   UNK N   1      21.458  21.065   0.953  0.00  0.00     0.162 HD
HETATM   32  O   UNK N   1      23.078  21.231   2.901  0.00  0.00    -0.273 OA
ENDBRANCH  25  26
ENDBRANCH  24  25
BRANCH  24  33
HETATM   33  C   UNK N   1      24.344  16.783   5.564  0.00  0.00     0.004 C 
HETATM   34  C   UNK N   1      24.966  15.697   5.104  0.00  0.00     0.080 C 
BRANCH  34  35
HETATM   35  C   UNK N   1      24.376  14.769   4.116  0.00  0.00     0.282 C 
HETATM   36  O   UNK N   1      23.746  13.791   4.493  0.00  0.00    -0.260 OA
BRANCH  35  37
HETATM   37  O   UNK N   1      24.520  15.001   2.788  0.00  0.00    -0.319 OA
BRANCH  37  38
HETATM   38  C   UNK N   1      25.662  15.557   2.248  0.00  0.00     0.174 C 
HETATM   39  C   UNK N   1      26.756  14.506   2.103  0.00  0.00     0.034 C 
ENDBRANCH  37  38
ENDBRANCH  35  37
ENDBRANCH  34  35
ENDBRANCH  24  33
ENDBRANCH  22  24
ENDBRANCH   1  20
BRANCH   1  40
HETATM   40  C   UNK N   1      20.580  14.635   7.431  0.00  0.00     0.053 C 
BRANCH  40  41
HETATM   41  C   UNK N   1      21.680  14.111   8.294  0.00  0.00    -0.057 A 
HETATM   42  C   UNK N   1      21.362  13.666   9.577  0.00  0.00     0.010 A 
HETATM   43  C   UNK N   1      22.331  13.037  10.359  0.00  0.00     0.043 A 
HETATM   44  C   UNK N   1      23.619  12.846   9.854  0.00  0.00     0.116 A 
HETATM   45  F   UNK N   1      24.543  12.196  10.599  0.00  0.00    -0.206 F 
HETATM   46  C   UNK N   1      23.950  13.313   8.577  0.00  0.00     0.043 A 
HETATM   47  C   UNK N   1      22.981  13.946   7.794  0.00  0.00     0.010 A 
ENDBRANCH  40  41
ENDBRANCH   1  40
TORSDOF 16
ENDMDL
MODEL 9
REMARK VINA RESULT:      -6.5      3.306      7.333
REMARK  16 active torsions:
REMARK  status: ('A' for Active; 'I' for Inactive)
REMARK    1  A    between atoms: O_5  and  C_35 
REMARK    2  A    between atoms: O_5  and  C_42 
REMARK    3  A    between atoms: C_17  and  N_10 
REMARK       I    between atoms: N_10  and  C_22 
REMARK    4  A    between atoms: C_23  and  N_11 
REMARK       I    between atoms: N_11  and  C_34 
REMARK    5  A    between atoms: C_14  and  C_15 
REMARK    6  A    between atoms: C_15  and  C_17 
REMARK    7  A    between atoms: C_17  and  C_27 
REMARK    8  A    between atoms: C_20  and  C_21 
REMARK    9  A    between atoms: C_20  and  C_22 
REMARK   10  A    between atoms: C_20  and  C_24 
REMARK   11  A    between atoms: C_21  and  C_26 
REMARK   12  A    between atoms: C_23  and  C_25 
REMARK   13  A    between atoms: C_23  and  C_26 
REMARK   14  A    between atoms: C_24  and  C_28 
REMARK   15  A    between atoms: C_31  and  C_35 
REMARK   16  A    between atoms: C_34  and  C_38 
ROOT
HETATM    1  C   UNK N   1      23.754  15.969   5.021  0.00  0.00     0.089 C 
ENDROOT
BRANCH   1   2
HETATM    2  C   UNK N   1      24.299  15.095   3.866  0.00  0.00     0.095 C 
BRANCH   2   3
HETATM    3  C   UNK N   1      25.641  15.435   3.291  0.00  0.00     0.150 C 
HETATM    4  O   UNK N   1      25.678  16.138   2.293  0.00  0.00    -0.296 OA
BRANCH   3   5
HETATM    5  C   UNK N   1      26.932  14.905   3.863  0.00  0.00     0.158 C 
BRANCH   5   6
HETATM    6  N   UNK N   1      27.191  15.553   5.138  0.00  0.00    -0.344 N 
HETATM    7  C   UNK N   1      27.773  16.771   5.306  0.00  0.00     0.270 C 
HETATM    8  O   UNK N   1      27.886  17.549   4.376  0.00  0.00    -0.266 OA
HETATM    9  H   UNK N   1      26.920  15.069   5.951  0.00  0.00     0.163 HD
BRANCH   7  10
HETATM   10  C   UNK N   1      28.392  17.082   6.599  0.00  0.00     0.124 A 
HETATM   11  N   UNK N   1      27.701  17.365   7.723  0.00  0.00    -0.256 N 
HETATM   12  O   UNK N   1      28.567  17.730   8.618  0.00  0.00    -0.242 OA
ATOM     13  HN  UNK N   1      26.691  17.303   7.847  1.00  0.00     0.195 HD
HETATM   14  C   UNK N   1      29.785  17.708   8.129  0.00  0.00     0.075 A 
HETATM   15  C   UNK N   1      29.738  17.294   6.815  0.00  0.00     0.071 A 
HETATM   16  C   UNK N   1      31.003  18.129   8.866  0.00  0.00     0.079 C 
ENDBRANCH   7  10
ENDBRANCH   5   6
BRANCH   5  17
HETATM   17  C   UNK N   1      27.148  13.383   3.746  0.00  0.00     0.007 C 
HETATM   18  C   UNK N   1      26.621  12.769   2.459  0.00  0.00     0.012 C 
HETATM   19  C   UNK N   1      26.647  12.621   4.960  0.00  0.00     0.012 C 
ENDBRANCH   5  17
ENDBRANCH   3   5
ENDBRANCH   2   3
ENDBRANCH   1   2
BRANCH   1  20
HETATM   20  C   UNK N   1      23.829  15.330   6.387  0.00  0.00     0.223 C 
HETATM   21  O   UNK N   1      24.911  15.050   6.870  0.00  0.00    -0.273 OA
HETATM   22  N   UNK N   1      22.716  15.095   7.107  0.00  0.00    -0.353 N 
HETATM   23  H   UNK N   1      22.798  14.635   7.973  0.00  0.00     0.163 HD
BRANCH  22  24
HETATM   24  C   UNK N   1      21.415  15.493   6.656  0.00  0.00     0.108 C 
BRANCH  24  25
HETATM   25  C   UNK N   1      20.509  14.272   6.391  0.00  0.00     0.043 C 
BRANCH  25  26
HETATM   26  C   UNK N   1      19.692  14.224   5.081  0.00  0.00     0.081 A 
HETATM   27  C   UNK N   1      20.574  14.164   3.825  0.00  0.00     0.034 A 
HETATM   28  C   UNK N   1      20.177  15.365   2.943  0.00  0.00     0.123 A 
HETATM   29  N   UNK N   1      19.141  16.035   3.671  0.00  0.00    -0.361 N 
HETATM   30  C   UNK N   1      18.868  15.427   4.824  0.00  0.00     0.221 A 
HETATM   31  H   UNK N   1      18.684  16.848   3.357  0.00  0.00     0.162 HD
HETATM   32  O   UNK N   1      18.004  15.833   5.583  0.00  0.00    -0.273 OA
ENDBRANCH  25  26
ENDBRANCH  24  25
BRANCH  24  33
HETATM   33  C   UNK N   1      20.856  16.464   7.648  0.00  0.00     0.004 C 
HETATM   34  C   UNK N   1      20.533  16.135   8.900  0.00  0.00     0.080 C 
BRANCH  34  35
HETATM   35  C   UNK N   1      20.561  14.751   9.418  0.00  0.00     0.282 C 
HETATM   36  O   UNK N   1      19.516  14.143   9.600  0.00  0.00    -0.260 OA
BRANCH  35  37
HETATM   37  O   UNK N   1      21.743  14.144   9.685  0.00  0.00    -0.319 OA
BRANCH  37  38
HETATM   38  C   UNK N   1      21.835  12.814  10.043  0.00  0.00     0.174 C 
HETATM   39  C   UNK N   1      22.776  12.066   9.106  0.00  0.00     0.034 C 
ENDBRANCH  37  38
ENDBRANCH  35  37
ENDBRANCH  34  35
ENDBRANCH  24  33
ENDBRANCH  22  24
ENDBRANCH   1  20
BRANCH   1  40
HETATM   40  C   UNK N   1      24.283  17.414   5.062  0.00  0.00     0.053 C 
BRANCH  40  41
HETATM   41  C   UNK N   1      23.488  18.353   4.217  0.00  0.00    -0.057 A 
HETATM   42  C   UNK N   1      22.106  18.185   4.155  0.00  0.00     0.010 A 
HETATM   43  C   UNK N   1      21.315  19.126   3.496  0.00  0.00     0.043 A 
HETATM   44  C   UNK N   1      21.908  20.242   2.903  0.00  0.00     0.116 A 
HETATM   45  F   UNK N   1      21.132  21.175   2.302  0.00  0.00    -0.206 F 
HETATM   46  C   UNK N   1      23.297  20.403   2.939  0.00  0.00     0.043 A 
HETATM   47  C   UNK N   1      24.091  19.459   3.597  0.00  0.00     0.010 A 
ENDBRANCH  40  41
ENDBRANCH   1  40
TORSDOF 16
ENDMDL
