REMARK  7 active torsions:
REMARK  status: ('A' for Active; 'I' for Inactive)
REMARK    1  A    between atoms: O_4  and  C_15 
REMARK    2  A    between atoms: O_4  and  C_18 
REMARK    3  A    between atoms: N_7  and  C_9 
REMARK    4  A    between atoms: N_7  and  C_11 
REMARK    5  A    between atoms: C_8  and  C_9 
REMARK    6  A    between atoms: C_11  and  C_12 
REMARK    7  A    between atoms: C_12  and  C_15 
ROOT
HETATM    1  N   UNK N   1       6.296   0.831   0.250  0.00  0.00    -0.419 N 
HETATM    2  H   UNK N   1       5.906   0.633   1.171  0.00  0.00     0.153 HD
ENDROOT
BRANCH   1   3
HETATM    3  C   UNK N   1       7.631   0.476  -0.212  0.00  0.00     0.148 C 
BRANCH   3   4
HETATM    4  C   UNK N   1       8.665   1.465   0.311  0.00  0.00     0.170 C 
HETATM    5  O   UNK N   1       9.940   1.019   0.002  0.00  0.00    -0.339 OA
HETATM    6  C   UNK N   1      10.995   1.870   0.001  0.00  0.00     0.102 A 
HETATM    7  C   UNK N   1      10.761   3.255   0.042  0.00  0.00     0.102 A 
HETATM    8  C   UNK N   1      12.303   1.383  -0.040  0.00  0.00     0.039 A 
HETATM    9  O   UNK N   1       9.489   3.712   0.041  0.00  0.00    -0.346 OA
HETATM   10  C   UNK N   1      11.835   4.147   0.069  0.00  0.00     0.039 A 
HETATM   11  C   UNK N   1       8.432   2.873  -0.261  0.00  0.00     0.209 C 
HETATM   12  C   UNK N   1      13.145   3.658   0.037  0.00  0.00     0.003 A 
HETATM   13  C   UNK N   1      13.378   2.278  -0.023  0.00  0.00     0.003 A 
ENDBRANCH   3   4
ENDBRANCH   1   3
BRANCH   1  14
HETATM   14  C   UNK N   1       5.619   1.519  -0.842  0.00  0.00     0.116 C 
BRANCH  14  15
HETATM   15  C   UNK N   1       5.377   2.976  -0.475  0.00  0.00     0.046 C 
BRANCH  15  16
HETATM   16  C   UNK N   1       4.419   3.070   0.695  0.00  0.00     0.177 C 
BRANCH  16  17
HETATM   17  O   UNK N   1       3.139   3.307   0.247  0.00  0.00    -0.351 OA
BRANCH  17  18
HETATM   18  C   UNK N   1       2.200   2.337   0.156  0.00  0.00     0.071 A 
HETATM   19  C   UNK N   1       0.850   2.708   0.008  0.00  0.00     0.076 A 
HETATM   20  C   UNK N   1      -0.098   1.692  -0.046  0.00  0.00     0.107 A 
HETATM   21  O   UNK N   1      -1.421   1.803  -0.152  0.00  0.00    -0.323 OA
HETATM   22  C   UNK N   1       0.230   0.397   0.020  0.00  0.00     0.105 A 
HETATM   23  C   UNK N   1      -1.974   0.518  -0.152  0.00  0.00     0.352 A 
HETATM   24  O   UNK N   1      -0.874  -0.342  -0.045  0.00  0.00    -0.323 OA
HETATM   25  C   UNK N   1       1.549  -0.030   0.148  0.00  0.00     0.042 A 
HETATM   26  C   UNK N   1       2.546   0.959   0.224  0.00  0.00     0.039 A 
ENDBRANCH  17  18
ENDBRANCH  16  17
ENDBRANCH  15  16
ENDBRANCH  14  15
ENDBRANCH   1  14
TORSDOF 7
