REMARK  3 active torsions:
REMARK  status: ('A' for Active; 'I' for Inactive)
REMARK    1  A    between atoms: S_3  and  O_4 
REMARK    2  A    between atoms: S_3  and  C_7 
REMARK    3  A    between atoms: O_4  and  C_10 
ROOT
HETATM    1  S   UNK N   1       1.215   0.574   0.464  0.00  0.00     0.303 S 
HETATM    2  O   UNK N   1       1.382   0.935   1.947  0.00  0.00    -0.193 OA
HETATM    3  O   UNK N   1      -0.309   0.701   0.316  0.00  0.00    -0.193 OA
ENDROOT
BRANCH   1   4
HETATM    4  O   UNK N   1       1.814   1.916  -0.400  0.00  0.00    -0.229 OA
BRANCH   4   5
HETATM    5  C   UNK N   1       3.105   2.321  -0.390  0.00  0.00     0.089 A 
HETATM    6  C   UNK N   1       4.123   1.529   0.164  0.00  0.00     0.040 A 
HETATM    7  C   UNK N   1       5.448   1.976   0.156  0.00  0.00     0.026 A 
HETATM    8  C   UNK N   1       5.761   3.222  -0.395  0.00  0.00     0.034 A 
HETATM    9 Cl   UNK N   1       7.418   3.786  -0.400  0.00  0.00    -0.084 Cl
HETATM   10  C   UNK N   1       4.751   4.017  -0.943  0.00  0.00     0.026 A 
HETATM   11  C   UNK N   1       3.429   3.564  -0.944  0.00  0.00     0.040 A 
ENDBRANCH   4   5
ENDBRANCH   1   4
BRANCH   1  12
HETATM   12  C   UNK N   1       1.720  -1.114   0.131  0.00  0.00     0.086 A 
HETATM   13  C   UNK N   1       2.999  -1.393  -0.362  0.00  0.00     0.027 A 
HETATM   14  C   UNK N   1       3.394  -2.719  -0.574  0.00  0.00     0.025 A 
HETATM   15  C   UNK N   1       2.511  -3.766  -0.290  0.00  0.00     0.034 A 
HETATM   16 Cl   UNK N   1       3.008  -5.425  -0.540  0.00  0.00    -0.084 Cl
HETATM   17  C   UNK N   1       1.233  -3.488   0.201  0.00  0.00     0.025 A 
HETATM   18  C   UNK N   1       0.839  -2.164   0.413  0.00  0.00     0.027 A 
ENDBRANCH   1  12
TORSDOF 3
