MODEL 1
REMARK VINA RESULT:      -6.6      0.000      0.000
REMARK  3 active torsions:
REMARK  status: ('A' for Active; 'I' for Inactive)
REMARK    1  A    between atoms: S_3  and  O_4 
REMARK    2  A    between atoms: S_3  and  C_7 
REMARK    3  A    between atoms: O_4  and  C_10 
ROOT
HETATM    1  S   UNK N   1      34.386  17.970   8.181  0.00  0.00     0.303 S 
HETATM    2  O   UNK N   1      35.244  19.199   8.517  0.00  0.00    -0.193 OA
HETATM    3  O   UNK N   1      32.982  18.592   8.220  0.00  0.00    -0.193 OA
ENDROOT
BRANCH   1   4
HETATM    4  O   UNK N   1      34.647  17.674   6.523  0.00  0.00    -0.229 OA
BRANCH   4   5
HETATM    5  C   UNK N   1      33.812  16.964   5.730  0.00  0.00     0.089 A 
HETATM    6  C   UNK N   1      33.752  15.562   5.788  0.00  0.00     0.040 A 
HETATM    7  C   UNK N   1      32.876  14.859   4.956  0.00  0.00     0.026 A 
HETATM    8  C   UNK N   1      32.063  15.551   4.053  0.00  0.00     0.034 A 
HETATM    9 Cl   UNK N   1      30.970  14.671   3.006  0.00  0.00    -0.084 Cl
HETATM   10  C   UNK N   1      32.122  16.945   3.987  0.00  0.00     0.026 A 
HETATM   11  C   UNK N   1      32.991  17.648   4.827  0.00  0.00     0.040 A 
ENDBRANCH   4   5
ENDBRANCH   1   4
BRANCH   1  12
HETATM   12  C   UNK N   1      34.525  16.700   9.440  0.00  0.00     0.086 A 
HETATM   13  C   UNK N   1      33.747  15.540   9.372  0.00  0.00     0.027 A 
HETATM   14  C   UNK N   1      33.899  14.537  10.337  0.00  0.00     0.025 A 
HETATM   15  C   UNK N   1      34.831  14.695  11.369  0.00  0.00     0.034 A 
HETATM   16 Cl   UNK N   1      35.034  13.437  12.568  0.00  0.00    -0.084 Cl
HETATM   17  C   UNK N   1      35.607  15.855  11.438  0.00  0.00     0.025 A 
HETATM   18  C   UNK N   1      35.455  16.855  10.474  0.00  0.00     0.027 A 
ENDBRANCH   1  12
TORSDOF 3
ENDMDL
MODEL 2
REMARK VINA RESULT:      -6.1     15.309     17.839
REMARK  3 active torsions:
REMARK  status: ('A' for Active; 'I' for Inactive)
REMARK    1  A    between atoms: S_3  and  O_4 
REMARK    2  A    between atoms: S_3  and  C_7 
REMARK    3  A    between atoms: O_4  and  C_10 
ROOT
HETATM    1  S   UNK N   1      26.310  24.298  -6.844  0.00  0.00     0.303 S 
HETATM    2  O   UNK N   1      25.151  23.298  -6.968  0.00  0.00    -0.193 OA
HETATM    3  O   UNK N   1      27.000  24.095  -8.202  0.00  0.00    -0.193 OA
ENDROOT
BRANCH   1   4
HETATM    4  O   UNK N   1      25.596  25.840  -6.985  0.00  0.00    -0.229 OA
BRANCH   4   5
HETATM    5  C   UNK N   1      25.943  26.917  -6.243  0.00  0.00     0.089 A 
HETATM    6  C   UNK N   1      25.227  27.282  -5.092  0.00  0.00     0.040 A 
HETATM    7  C   UNK N   1      25.613  28.399  -4.345  0.00  0.00     0.026 A 
HETATM    8  C   UNK N   1      26.710  29.165  -4.752  0.00  0.00     0.034 A 
HETATM    9 Cl   UNK N   1      27.191  30.568  -3.822  0.00  0.00    -0.084 Cl
HETATM   10  C   UNK N   1      27.423  28.810  -5.899  0.00  0.00     0.026 A 
HETATM   11  C   UNK N   1      27.042  27.686  -6.638  0.00  0.00     0.040 A 
ENDBRANCH   4   5
ENDBRANCH   1   4
BRANCH   1  12
HETATM   12  C   UNK N   1      27.432  23.852  -5.519  0.00  0.00     0.086 A 
HETATM   13  C   UNK N   1      28.642  23.205  -5.794  0.00  0.00     0.027 A 
HETATM   14  C   UNK N   1      29.527  22.905  -4.752  0.00  0.00     0.025 A 
HETATM   15  C   UNK N   1      29.205  23.254  -3.437  0.00  0.00     0.034 A 
HETATM   16 Cl   UNK N   1      30.318  22.892  -2.136  0.00  0.00    -0.084 Cl
HETATM   17  C   UNK N   1      27.997  23.898  -3.161  0.00  0.00     0.025 A 
HETATM   18  C   UNK N   1      27.113  24.199  -4.201  0.00  0.00     0.027 A 
ENDBRANCH   1  12
TORSDOF 3
ENDMDL
MODEL 3
REMARK VINA RESULT:      -6.0      2.996      3.501
REMARK  3 active torsions:
REMARK  status: ('A' for Active; 'I' for Inactive)
REMARK    1  A    between atoms: S_3  and  O_4 
REMARK    2  A    between atoms: S_3  and  C_7 
REMARK    3  A    between atoms: O_4  and  C_10 
ROOT
HETATM    1  S   UNK N   1      34.367  16.436   7.112  0.00  0.00     0.303 S 
HETATM    2  O   UNK N   1      35.286  15.862   6.024  0.00  0.00    -0.193 OA
HETATM    3  O   UNK N   1      34.601  17.941   6.910  0.00  0.00    -0.193 OA
ENDROOT
BRANCH   1   4
HETATM    4  O   UNK N   1      32.780  16.196   6.538  0.00  0.00    -0.229 OA
BRANCH   4   5
HETATM    5  C   UNK N   1      31.682  16.805   7.042  0.00  0.00     0.089 A 
HETATM    6  C   UNK N   1      31.703  17.452   8.288  0.00  0.00     0.040 A 
HETATM    7  C   UNK N   1      30.550  18.073   8.779  0.00  0.00     0.026 A 
HETATM    8  C   UNK N   1      29.368  18.041   8.034  0.00  0.00     0.034 A 
HETATM    9 Cl   UNK N   1      27.923  18.813   8.651  0.00  0.00    -0.084 Cl
HETATM   10  C   UNK N   1      29.340  17.394   6.796  0.00  0.00     0.026 A 
HETATM   11  C   UNK N   1      30.495  16.783   6.301  0.00  0.00     0.040 A 
ENDBRANCH   4   5
ENDBRANCH   1   4
BRANCH   1  12
HETATM   12  C   UNK N   1      34.901  15.953   8.754  0.00  0.00     0.086 A 
HETATM   13  C   UNK N   1      34.991  16.896   9.783  0.00  0.00     0.027 A 
HETATM   14  C   UNK N   1      35.366  16.495  11.070  0.00  0.00     0.025 A 
HETATM   15  C   UNK N   1      35.648  15.150  11.330  0.00  0.00     0.034 A 
HETATM   16 Cl   UNK N   1      36.102  14.644  12.942  0.00  0.00    -0.084 Cl
HETATM   17  C   UNK N   1      35.560  14.207  10.303  0.00  0.00     0.025 A 
HETATM   18  C   UNK N   1      35.185  14.608   9.018  0.00  0.00     0.027 A 
ENDBRANCH   1  12
TORSDOF 3
ENDMDL
MODEL 4
REMARK VINA RESULT:      -6.0      4.875      5.988
REMARK  3 active torsions:
REMARK  status: ('A' for Active; 'I' for Inactive)
REMARK    1  A    between atoms: S_3  and  O_4 
REMARK    2  A    between atoms: S_3  and  C_7 
REMARK    3  A    between atoms: O_4  and  C_10 
ROOT
HETATM    1  S   UNK N   1      30.273  15.613   5.132  0.00  0.00     0.303 S 
HETATM    2  O   UNK N   1      30.066  14.178   5.636  0.00  0.00    -0.193 OA
HETATM    3  O   UNK N   1      30.714  15.339   3.686  0.00  0.00    -0.193 OA
ENDROOT
BRANCH   1   4
HETATM    4  O   UNK N   1      28.706  16.262   4.955  0.00  0.00    -0.229 OA
BRANCH   4   5
HETATM    5  C   UNK N   1      28.356  17.524   5.295  0.00  0.00     0.089 A 
HETATM    6  C   UNK N   1      28.214  17.916   6.636  0.00  0.00     0.040 A 
HETATM    7  C   UNK N   1      27.853  19.229   6.953  0.00  0.00     0.026 A 
HETATM    8  C   UNK N   1      27.620  20.155   5.932  0.00  0.00     0.034 A 
HETATM    9 Cl   UNK N   1      27.162  21.797   6.327  0.00  0.00    -0.084 Cl
HETATM   10  C   UNK N   1      27.755  19.769   4.595  0.00  0.00     0.026 A 
HETATM   11  C   UNK N   1      28.126  18.459   4.280  0.00  0.00     0.040 A 
ENDBRANCH   4   5
ENDBRANCH   1   4
BRANCH   1  12
HETATM   12  C   UNK N   1      31.587  16.446   6.022  0.00  0.00     0.086 A 
HETATM   13  C   UNK N   1      32.704  16.947   5.344  0.00  0.00     0.027 A 
HETATM   14  C   UNK N   1      33.700  17.635   6.047  0.00  0.00     0.025 A 
HETATM   15  C   UNK N   1      33.577  17.825   7.427  0.00  0.00     0.034 A 
HETATM   16 Cl   UNK N   1      34.814  18.698   8.306  0.00  0.00    -0.084 Cl
HETATM   17  C   UNK N   1      32.463  17.325   8.105  0.00  0.00     0.025 A 
HETATM   18  C   UNK N   1      31.469  16.638   7.403  0.00  0.00     0.027 A 
ENDBRANCH   1  12
TORSDOF 3
ENDMDL
MODEL 5
REMARK VINA RESULT:      -6.0     12.504     14.807
REMARK  3 active torsions:
REMARK  status: ('A' for Active; 'I' for Inactive)
REMARK    1  A    between atoms: S_3  and  O_4 
REMARK    2  A    between atoms: S_3  and  C_7 
REMARK    3  A    between atoms: O_4  and  C_10 
ROOT
HETATM    1  S   UNK N   1      30.560  23.291  -2.922  0.00  0.00     0.303 S 
HETATM    2  O   UNK N   1      30.680  24.822  -2.945  0.00  0.00    -0.193 OA
HETATM    3  O   UNK N   1      30.359  23.050  -1.418  0.00  0.00    -0.193 OA
ENDROOT
BRANCH   1   4
HETATM    4  O   UNK N   1      29.031  22.946  -3.591  0.00  0.00    -0.229 OA
BRANCH   4   5
HETATM    5  C   UNK N   1      28.198  23.872  -4.121  0.00  0.00     0.089 A 
HETATM    6  C   UNK N   1      27.181  24.471  -3.361  0.00  0.00     0.040 A 
HETATM    7  C   UNK N   1      26.339  25.426  -3.938  0.00  0.00     0.026 A 
HETATM    8  C   UNK N   1      26.501  25.779  -5.281  0.00  0.00     0.034 A 
HETATM    9 Cl   UNK N   1      25.443  26.970  -6.007  0.00  0.00    -0.084 Cl
HETATM   10  C   UNK N   1      27.508  25.182  -6.044  0.00  0.00     0.026 A 
HETATM   11  C   UNK N   1      28.356  24.235  -5.462  0.00  0.00     0.040 A 
ENDBRANCH   4   5
ENDBRANCH   1   4
BRANCH   1  12
HETATM   12  C   UNK N   1      32.073  22.499  -3.469  0.00  0.00     0.086 A 
HETATM   13  C   UNK N   1      32.578  21.381  -2.796  0.00  0.00     0.027 A 
HETATM   14  C   UNK N   1      33.735  20.747  -3.261  0.00  0.00     0.025 A 
HETATM   15  C   UNK N   1      34.386  21.229  -4.402  0.00  0.00     0.034 A 
HETATM   16 Cl   UNK N   1      35.825  20.428  -4.994  0.00  0.00    -0.084 Cl
HETATM   17  C   UNK N   1      33.884  22.346  -5.073  0.00  0.00     0.025 A 
HETATM   18  C   UNK N   1      32.728  22.979  -4.608  0.00  0.00     0.027 A 
ENDBRANCH   1  12
TORSDOF 3
ENDMDL
MODEL 6
REMARK VINA RESULT:      -6.0      5.195      7.464
REMARK  3 active torsions:
REMARK  status: ('A' for Active; 'I' for Inactive)
REMARK    1  A    between atoms: S_3  and  O_4 
REMARK    2  A    between atoms: S_3  and  C_7 
REMARK    3  A    between atoms: O_4  and  C_10 
ROOT
HETATM    1  S   UNK N   1      29.138  16.637   4.873  0.00  0.00     0.303 S 
HETATM    2  O   UNK N   1      29.633  16.675   3.420  0.00  0.00    -0.193 OA
HETATM    3  O   UNK N   1      28.056  15.552   4.770  0.00  0.00    -0.193 OA
ENDROOT
BRANCH   1   4
HETATM    4  O   UNK N   1      30.383  15.879   5.757  0.00  0.00    -0.229 OA
BRANCH   4   5
HETATM    5  C   UNK N   1      31.396  16.532   6.370  0.00  0.00     0.089 A 
HETATM    6  C   UNK N   1      31.322  16.907   7.721  0.00  0.00     0.040 A 
HETATM    7  C   UNK N   1      32.389  17.580   8.326  0.00  0.00     0.026 A 
HETATM    8  C   UNK N   1      33.530  17.892   7.582  0.00  0.00     0.034 A 
HETATM    9 Cl   UNK N   1      34.863  18.739   8.336  0.00  0.00    -0.084 Cl
HETATM   10  C   UNK N   1      33.607  17.526   6.235  0.00  0.00     0.026 A 
HETATM   11  C   UNK N   1      32.545  16.844   5.635  0.00  0.00     0.040 A 
ENDBRANCH   4   5
ENDBRANCH   1   4
BRANCH   1  12
HETATM   12  C   UNK N   1      28.394  18.194   5.361  0.00  0.00     0.086 A 
HETATM   13  C   UNK N   1      27.898  19.081   4.400  0.00  0.00     0.027 A 
HETATM   14  C   UNK N   1      27.280  20.272   4.799  0.00  0.00     0.025 A 
HETATM   15  C   UNK N   1      27.155  20.573   6.159  0.00  0.00     0.034 A 
HETATM   16 Cl   UNK N   1      26.368  22.054   6.661  0.00  0.00    -0.084 Cl
HETATM   17  C   UNK N   1      27.651  19.688   7.119  0.00  0.00     0.025 A 
HETATM   18  C   UNK N   1      28.268  18.500   6.721  0.00  0.00     0.027 A 
ENDBRANCH   1  12
TORSDOF 3
ENDMDL
MODEL 7
REMARK VINA RESULT:      -6.0      2.851      3.235
REMARK  3 active torsions:
REMARK  status: ('A' for Active; 'I' for Inactive)
REMARK    1  A    between atoms: S_3  and  O_4 
REMARK    2  A    between atoms: S_3  and  C_7 
REMARK    3  A    between atoms: O_4  and  C_10 
ROOT
HETATM    1  S   UNK N   1      34.335  18.049   8.301  0.00  0.00     0.303 S 
HETATM    2  O   UNK N   1      34.425  17.933   6.773  0.00  0.00    -0.193 OA
HETATM    3  O   UNK N   1      35.356  19.169   8.557  0.00  0.00    -0.193 OA
ENDROOT
BRANCH   1   4
HETATM    4  O   UNK N   1      32.835  18.797   8.613  0.00  0.00    -0.229 OA
BRANCH   4   5
HETATM    5  C   UNK N   1      31.632  18.268   8.290  0.00  0.00     0.089 A 
HETATM    6  C   UNK N   1      30.453  18.663   8.941  0.00  0.00     0.040 A 
HETATM    7  C   UNK N   1      29.226  18.098   8.581  0.00  0.00     0.026 A 
HETATM    8  C   UNK N   1      29.171  17.128   7.576  0.00  0.00     0.034 A 
HETATM    9 Cl   UNK N   1      27.636  16.415   7.129  0.00  0.00    -0.084 Cl
HETATM   10  C   UNK N   1      30.342  16.727   6.928  0.00  0.00     0.026 A 
HETATM   11  C   UNK N   1      31.567  17.300   7.282  0.00  0.00     0.040 A 
ENDBRANCH   4   5
ENDBRANCH   1   4
BRANCH   1  12
HETATM   12  C   UNK N   1      34.869  16.542   9.113  0.00  0.00     0.086 A 
HETATM   13  C   UNK N   1      34.897  15.328   8.419  0.00  0.00     0.027 A 
HETATM   14  C   UNK N   1      35.359  14.169   9.053  0.00  0.00     0.025 A 
HETATM   15  C   UNK N   1      35.797  14.225  10.381  0.00  0.00     0.034 A 
HETATM   16 Cl   UNK N   1      36.389  12.781  11.171  0.00  0.00    -0.084 Cl
HETATM   17  C   UNK N   1      35.768  15.437  11.075  0.00  0.00     0.025 A 
HETATM   18  C   UNK N   1      35.307  16.594  10.441  0.00  0.00     0.027 A 
ENDBRANCH   1  12
TORSDOF 3
ENDMDL
MODEL 8
REMARK VINA RESULT:      -5.9      5.582      9.583
REMARK  3 active torsions:
REMARK  status: ('A' for Active; 'I' for Inactive)
REMARK    1  A    between atoms: S_3  and  O_4 
REMARK    2  A    between atoms: S_3  and  C_7 
REMARK    3  A    between atoms: O_4  and  C_10 
ROOT
HETATM    1  S   UNK N   1      35.748  13.777  13.273  0.00  0.00     0.303 S 
HETATM    2  O   UNK N   1      36.635  14.606  14.212  0.00  0.00    -0.193 OA
HETATM    3  O   UNK N   1      36.712  12.636  12.913  0.00  0.00    -0.193 OA
ENDROOT
BRANCH   1   4
HETATM    4  O   UNK N   1      34.598  13.025  14.282  0.00  0.00    -0.229 OA
BRANCH   4   5
HETATM    5  C   UNK N   1      34.846  12.592  15.539  0.00  0.00     0.089 A 
HETATM    6  C   UNK N   1      34.800  13.459  16.642  0.00  0.00     0.040 A 
HETATM    7  C   UNK N   1      35.060  12.979  17.929  0.00  0.00     0.026 A 
HETATM    8  C   UNK N   1      35.379  11.632  18.120  0.00  0.00     0.034 A 
HETATM    9 Cl   UNK N   1      35.712  11.030  19.730  0.00  0.00    -0.084 Cl
HETATM   10  C   UNK N   1      35.432  10.765  17.026  0.00  0.00     0.026 A 
HETATM   11  C   UNK N   1      35.162  11.244  15.741  0.00  0.00     0.040 A 
ENDBRANCH   4   5
ENDBRANCH   1   4
BRANCH   1  12
HETATM   12  C   UNK N   1      35.309  14.691  11.794  0.00  0.00     0.086 A 
HETATM   13  C   UNK N   1      34.474  14.125  10.825  0.00  0.00     0.027 A 
HETATM   14  C   UNK N   1      34.104  14.869   9.699  0.00  0.00     0.025 A 
HETATM   15  C   UNK N   1      34.567  16.179   9.542  0.00  0.00     0.034 A 
HETATM   16 Cl   UNK N   1      34.094  17.116   8.142  0.00  0.00    -0.084 Cl
HETATM   17  C   UNK N   1      35.403  16.745  10.509  0.00  0.00     0.025 A 
HETATM   18  C   UNK N   1      35.771  16.002  11.634  0.00  0.00     0.027 A 
ENDBRANCH   1  12
TORSDOF 3
ENDMDL
MODEL 9
REMARK VINA RESULT:      -5.8     15.977     18.312
REMARK  3 active torsions:
REMARK  status: ('A' for Active; 'I' for Inactive)
REMARK    1  A    between atoms: S_3  and  O_4 
REMARK    2  A    between atoms: S_3  and  C_7 
REMARK    3  A    between atoms: O_4  and  C_10 
ROOT
HETATM    1  S   UNK N   1      25.748  23.532  -7.571  0.00  0.00     0.303 S 
HETATM    2  O   UNK N   1      24.637  23.599  -8.629  0.00  0.00    -0.193 OA
HETATM    3  O   UNK N   1      25.074  22.641  -6.516  0.00  0.00    -0.193 OA
ENDROOT
BRANCH   1   4
HETATM    4  O   UNK N   1      26.949  22.522  -8.237  0.00  0.00    -0.229 OA
BRANCH   4   5
HETATM    5  C   UNK N   1      27.969  21.977  -7.535  0.00  0.00     0.089 A 
HETATM    6  C   UNK N   1      28.545  22.635  -6.438  0.00  0.00     0.040 A 
HETATM    7  C   UNK N   1      29.597  22.043  -5.732  0.00  0.00     0.026 A 
HETATM    8  C   UNK N   1      30.086  20.794  -6.126  0.00  0.00     0.034 A 
HETATM    9 Cl   UNK N   1      31.407  20.054  -5.248  0.00  0.00    -0.084 Cl
HETATM   10  C   UNK N   1      29.521  20.137  -7.222  0.00  0.00     0.026 A 
HETATM   11  C   UNK N   1      28.463  20.726  -7.919  0.00  0.00     0.040 A 
ENDBRANCH   4   5
ENDBRANCH   1   4
BRANCH   1  12
HETATM   12  C   UNK N   1      26.097  25.146  -6.872  0.00  0.00     0.086 A 
HETATM   13  C   UNK N   1      26.973  26.028  -7.514  0.00  0.00     0.027 A 
HETATM   14  C   UNK N   1      27.200  27.301  -6.980  0.00  0.00     0.025 A 
HETATM   15  C   UNK N   1      26.549  27.694  -5.806  0.00  0.00     0.034 A 
HETATM   16 Cl   UNK N   1      26.820  29.291  -5.144  0.00  0.00    -0.084 Cl
HETATM   17  C   UNK N   1      25.675  26.813  -5.164  0.00  0.00     0.025 A 
HETATM   18  C   UNK N   1      25.448  25.542  -5.697  0.00  0.00     0.027 A 
ENDBRANCH   1  12
TORSDOF 3
ENDMDL
