MODEL 1
REMARK VINA RESULT:      -7.1      0.000      0.000
REMARK  4 active torsions:
REMARK  status: ('A' for Active; 'I' for Inactive)
REMARK    1  A    between atoms: O_2  and  C_13 
REMARK    2  A    between atoms: C_4  and  C_5 
REMARK    3  A    between atoms: C_4  and  C_13 
REMARK    4  A    between atoms: C_6  and  C_12 
ROOT
HETATM    1  F   UNK N   1      37.215  14.735  16.201  0.00  0.00    -0.205 F 
HETATM    2  C   UNK N   1      35.590  13.919  13.018  0.00  0.00    -0.041 A 
HETATM    3  C   UNK N   1      35.604  13.003  15.693  0.00  0.00     0.013 A 
HETATM    4  C   UNK N   1      36.402  14.547  13.978  0.00  0.00     0.051 A 
HETATM    5  C   UNK N   1      34.796  12.841  13.410  0.00  0.00     0.009 A 
HETATM    6  C   UNK N   1      36.416  14.099  15.308  0.00  0.00     0.128 A 
HETATM    7  C   UNK N   1      34.802  12.391  14.721  0.00  0.00     0.016 A 
ENDROOT
BRANCH   2   8
HETATM    8  C   UNK N   1      35.567  14.392  11.582  0.00  0.00     0.112 C 
HETATM    9  C   UNK N   1      35.095  13.446  10.487  0.00  0.00     0.026 C 
BRANCH   8  10
HETATM   10  C   UNK N   1      35.997  15.786  11.176  0.00  0.00     0.148 C 
HETATM   11  O   UNK N   1      35.221  16.728  11.246  0.00  0.00    -0.649 OA
BRANCH  10  12
HETATM   12  O   UNK N   1      37.248  16.001  10.731  0.00  0.00    -0.776 OA
HETATM   13  H   UNK N   1      37.441  16.766  10.226  0.00  0.00     0.167 HD
ENDBRANCH  10  12
ENDBRANCH   8  10
ENDBRANCH   2   8
BRANCH   3  14
HETATM   14  C   UNK N   1      35.556  12.463  17.081  0.00  0.00    -0.023 A 
HETATM   15  C   UNK N   1      35.235  13.270  18.183  0.00  0.00     0.012 A 
HETATM   16  C   UNK N   1      35.200  12.728  19.473  0.00  0.00     0.001 A 
HETATM   17  C   UNK N   1      35.485  11.375  19.674  0.00  0.00     0.000 A 
HETATM   18  C   UNK N   1      35.806  10.562  18.587  0.00  0.00     0.001 A 
HETATM   19  C   UNK N   1      35.841  11.102  17.302  0.00  0.00     0.012 A 
ENDBRANCH   3  14
TORSDOF 4
ENDMDL
MODEL 2
REMARK VINA RESULT:      -6.9      1.467      2.308
REMARK  4 active torsions:
REMARK  status: ('A' for Active; 'I' for Inactive)
REMARK    1  A    between atoms: O_2  and  C_13 
REMARK    2  A    between atoms: C_4  and  C_5 
REMARK    3  A    between atoms: C_4  and  C_13 
REMARK    4  A    between atoms: C_6  and  C_12 
ROOT
HETATM    1  F   UNK N   1      33.879  11.017  15.005  0.00  0.00    -0.205 F 
HETATM    2  C   UNK N   1      35.618  13.637  13.122  0.00  0.00    -0.041 A 
HETATM    3  C   UNK N   1      35.513  12.632  15.762  0.00  0.00     0.013 A 
HETATM    4  C   UNK N   1      34.770  12.562  13.437  0.00  0.00     0.051 A 
HETATM    5  C   UNK N   1      36.402  14.196  14.132  0.00  0.00     0.009 A 
HETATM    6  C   UNK N   1      34.711  12.056  14.746  0.00  0.00     0.128 A 
HETATM    7  C   UNK N   1      36.351  13.703  15.427  0.00  0.00     0.016 A 
ENDROOT
BRANCH   2   8
HETATM    8  C   UNK N   1      35.690  14.191  11.717  0.00  0.00     0.112 C 
HETATM    9  C   UNK N   1      36.784  13.709  10.775  0.00  0.00     0.026 C 
BRANCH   8  10
HETATM   10  C   UNK N   1      34.709  15.219  11.195  0.00  0.00     0.148 C 
HETATM   11  O   UNK N   1      35.098  16.294  10.760  0.00  0.00    -0.649 OA
BRANCH  10  12
HETATM   12  O   UNK N   1      33.390  14.957  11.204  0.00  0.00    -0.776 OA
HETATM   13  H   UNK N   1      32.775  15.643  11.037  0.00  0.00     0.167 HD
ENDBRANCH  10  12
ENDBRANCH   8  10
ENDBRANCH   2   8
BRANCH   3  14
HETATM   14  C   UNK N   1      35.514  12.159  17.176  0.00  0.00    -0.023 A 
HETATM   15  C   UNK N   1      35.851  10.840  17.519  0.00  0.00     0.012 A 
HETATM   16  C   UNK N   1      35.842  10.431  18.857  0.00  0.00     0.001 A 
HETATM   17  C   UNK N   1      35.494  11.334  19.865  0.00  0.00     0.000 A 
HETATM   18  C   UNK N   1      35.157  12.648  19.537  0.00  0.00     0.001 A 
HETATM   19  C   UNK N   1      35.167  13.056  18.204  0.00  0.00     0.012 A 
ENDBRANCH   3  14
TORSDOF 4
ENDMDL
MODEL 3
REMARK VINA RESULT:      -6.5      3.245      5.064
REMARK  4 active torsions:
REMARK  status: ('A' for Active; 'I' for Inactive)
REMARK    1  A    between atoms: O_2  and  C_13 
REMARK    2  A    between atoms: C_4  and  C_5 
REMARK    3  A    between atoms: C_4  and  C_13 
REMARK    4  A    between atoms: C_6  and  C_12 
ROOT
HETATM    1  F   UNK N   1      34.284  12.633  10.490  0.00  0.00    -0.205 F 
HETATM    2  C   UNK N   1      34.337  16.221   9.742  0.00  0.00    -0.041 A 
HETATM    3  C   UNK N   1      35.530  14.412  11.557  0.00  0.00     0.013 A 
HETATM    4  C   UNK N   1      34.026  14.852   9.685  0.00  0.00     0.051 A 
HETATM    5  C   UNK N   1      35.241  16.667  10.707  0.00  0.00     0.009 A 
HETATM    6  C   UNK N   1      34.613  13.946  10.582  0.00  0.00     0.128 A 
HETATM    7  C   UNK N   1      35.827  15.780  11.598  0.00  0.00     0.016 A 
ENDROOT
BRANCH   2   8
HETATM    8  C   UNK N   1      33.711  17.207   8.782  0.00  0.00     0.112 C 
HETATM    9  C   UNK N   1      32.196  17.268   8.650  0.00  0.00     0.026 C 
BRANCH   8  10
HETATM   10  C   UNK N   1      34.533  18.151   7.931  0.00  0.00     0.148 C 
HETATM   11  O   UNK N   1      34.584  18.018   6.716  0.00  0.00    -0.649 OA
BRANCH  10  12
HETATM   12  O   UNK N   1      35.221  19.152   8.509  0.00  0.00    -0.776 OA
HETATM   13  H   UNK N   1      34.873  19.585   9.263  0.00  0.00     0.167 HD
ENDBRANCH  10  12
ENDBRANCH   8  10
ENDBRANCH   2   8
BRANCH   3  14
HETATM   14  C   UNK N   1      36.200  13.521  12.547  0.00  0.00    -0.023 A 
HETATM   15  C   UNK N   1      36.994  12.433  12.152  0.00  0.00     0.012 A 
HETATM   16  C   UNK N   1      37.608  11.618  13.110  0.00  0.00     0.001 A 
HETATM   17  C   UNK N   1      37.434  11.882  14.471  0.00  0.00     0.000 A 
HETATM   18  C   UNK N   1      36.647  12.960  14.877  0.00  0.00     0.001 A 
HETATM   19  C   UNK N   1      36.036  13.772  13.923  0.00  0.00     0.012 A 
ENDBRANCH   3  14
TORSDOF 4
ENDMDL
MODEL 4
REMARK VINA RESULT:      -6.5     24.896     26.359
REMARK  4 active torsions:
REMARK  status: ('A' for Active; 'I' for Inactive)
REMARK    1  A    between atoms: O_2  and  C_13 
REMARK    2  A    between atoms: C_4  and  C_5 
REMARK    3  A    between atoms: C_4  and  C_13 
REMARK    4  A    between atoms: C_6  and  C_12 
ROOT
HETATM    1  F   UNK N   1      27.433  25.314  -3.766  0.00  0.00    -0.205 F 
HETATM    2  C   UNK N   1      26.083  23.711  -6.774  0.00  0.00    -0.041 A 
HETATM    3  C   UNK N   1      26.509  26.317  -5.765  0.00  0.00     0.013 A 
HETATM    4  C   UNK N   1      26.659  23.894  -5.505  0.00  0.00     0.051 A 
HETATM    5  C   UNK N   1      25.728  24.834  -7.521  0.00  0.00     0.009 A 
HETATM    6  C   UNK N   1      26.874  25.184  -4.996  0.00  0.00     0.128 A 
HETATM    7  C   UNK N   1      25.937  26.114  -7.027  0.00  0.00     0.016 A 
ENDROOT
BRANCH   2   8
HETATM    8  C   UNK N   1      25.846  22.326  -7.333  0.00  0.00     0.112 C 
HETATM    9  C   UNK N   1      27.007  21.554  -7.943  0.00  0.00     0.026 C 
BRANCH   8  10
HETATM   10  C   UNK N   1      24.486  21.662  -7.315  0.00  0.00     0.148 C 
HETATM   11  O   UNK N   1      24.246  20.743  -6.544  0.00  0.00    -0.649 OA
BRANCH  10  12
HETATM   12  O   UNK N   1      23.521  22.080  -8.153  0.00  0.00    -0.776 OA
HETATM   13  H   UNK N   1      22.658  21.722  -8.090  0.00  0.00     0.167 HD
ENDBRANCH  10  12
ENDBRANCH   8  10
ENDBRANCH   2   8
BRANCH   3  14
HETATM   14  C   UNK N   1      26.702  27.722  -5.303  0.00  0.00    -0.023 A 
HETATM   15  C   UNK N   1      26.007  28.244  -4.202  0.00  0.00     0.012 A 
HETATM   16  C   UNK N   1      26.212  29.568  -3.796  0.00  0.00     0.001 A 
HETATM   17  C   UNK N   1      27.115  30.381  -4.486  0.00  0.00     0.000 A 
HETATM   18  C   UNK N   1      27.812  29.874  -5.583  0.00  0.00     0.001 A 
HETATM   19  C   UNK N   1      27.607  28.555  -5.987  0.00  0.00     0.012 A 
ENDBRANCH   3  14
TORSDOF 4
ENDMDL
MODEL 5
REMARK VINA RESULT:      -6.4     14.912     17.645
REMARK  4 active torsions:
REMARK  status: ('A' for Active; 'I' for Inactive)
REMARK    1  A    between atoms: O_2  and  C_13 
REMARK    2  A    between atoms: C_4  and  C_5 
REMARK    3  A    between atoms: C_4  and  C_13 
REMARK    4  A    between atoms: C_6  and  C_12 
ROOT
HETATM    1  F   UNK N   1      25.838  20.983   2.659  0.00  0.00    -0.205 F 
HETATM    2  C   UNK N   1      22.391  19.782   2.995  0.00  0.00    -0.041 A 
HETATM    3  C   UNK N   1      24.940  19.258   4.098  0.00  0.00     0.013 A 
HETATM    4  C   UNK N   1      23.513  20.510   2.563  0.00  0.00     0.051 A 
HETATM    5  C   UNK N   1      22.559  18.802   3.973  0.00  0.00     0.009 A 
HETATM    6  C   UNK N   1      24.783  20.256   3.105  0.00  0.00     0.128 A 
HETATM    7  C   UNK N   1      23.810  18.544   4.515  0.00  0.00     0.016 A 
ENDROOT
BRANCH   2   8
HETATM    8  C   UNK N   1      21.018  20.046   2.419  0.00  0.00     0.112 C 
HETATM    9  C   UNK N   1      19.782  19.614   3.195  0.00  0.00     0.026 C 
BRANCH   8  10
HETATM   10  C   UNK N   1      20.812  20.731   1.085  0.00  0.00     0.148 C 
HETATM   11  O   UNK N   1      20.743  21.950   1.009  0.00  0.00    -0.649 OA
BRANCH  10  12
HETATM   12  O   UNK N   1      20.702  19.999  -0.038  0.00  0.00    -0.776 OA
HETATM   13  H   UNK N   1      21.460  19.821  -0.557  0.00  0.00     0.167 HD
ENDBRANCH  10  12
ENDBRANCH   8  10
ENDBRANCH   2   8
BRANCH   3  14
HETATM   14  C   UNK N   1      26.250  18.923   4.727  0.00  0.00    -0.023 A 
HETATM   15  C   UNK N   1      27.041  17.855   4.275  0.00  0.00     0.012 A 
HETATM   16  C   UNK N   1      28.265  17.570   4.890  0.00  0.00     0.001 A 
HETATM   17  C   UNK N   1      28.711  18.348   5.961  0.00  0.00     0.000 A 
HETATM   18  C   UNK N   1      27.934  19.412   6.420  0.00  0.00     0.001 A 
HETATM   19  C   UNK N   1      26.714  19.697   5.807  0.00  0.00     0.012 A 
ENDBRANCH   3  14
TORSDOF 4
ENDMDL
MODEL 6
REMARK VINA RESULT:      -6.4     25.596     26.861
REMARK  4 active torsions:
REMARK  status: ('A' for Active; 'I' for Inactive)
REMARK    1  A    between atoms: O_2  and  C_13 
REMARK    2  A    between atoms: C_4  and  C_5 
REMARK    3  A    between atoms: C_4  and  C_13 
REMARK    4  A    between atoms: C_6  and  C_12 
ROOT
HETATM    1  F   UNK N   1      25.986  26.608  -8.590  0.00  0.00    -0.205 F 
HETATM    2  C   UNK N   1      25.593  23.263  -7.143  0.00  0.00    -0.041 A 
HETATM    3  C   UNK N   1      26.164  25.895  -6.285  0.00  0.00     0.013 A 
HETATM    4  C   UNK N   1      25.654  24.314  -8.074  0.00  0.00     0.051 A 
HETATM    5  C   UNK N   1      25.819  23.543  -5.796  0.00  0.00     0.009 A 
HETATM    6  C   UNK N   1      25.937  25.624  -7.657  0.00  0.00     0.128 A 
HETATM    7  C   UNK N   1      26.099  24.834  -5.373  0.00  0.00     0.016 A 
ENDROOT
BRANCH   2   8
HETATM    8  C   UNK N   1      25.289  21.847  -7.580  0.00  0.00     0.112 C 
HETATM    9  C   UNK N   1      24.338  20.994  -6.753  0.00  0.00     0.026 C 
BRANCH   8  10
HETATM   10  C   UNK N   1      25.897  21.229  -8.821  0.00  0.00     0.148 C 
HETATM   11  O   UNK N   1      27.077  20.910  -8.850  0.00  0.00    -0.649 OA
BRANCH  10  12
HETATM   12  O   UNK N   1      25.137  21.025  -9.912  0.00  0.00    -0.776 OA
HETATM   13  H   UNK N   1      24.493  21.658 -10.160  0.00  0.00     0.167 HD
ENDBRANCH  10  12
ENDBRANCH   8  10
ENDBRANCH   2   8
BRANCH   3  14
HETATM   14  C   UNK N   1      26.470  27.254  -5.755  0.00  0.00    -0.023 A 
HETATM   15  C   UNK N   1      27.449  28.076  -6.335  0.00  0.00     0.012 A 
HETATM   16  C   UNK N   1      27.710  29.347  -5.811  0.00  0.00     0.001 A 
HETATM   17  C   UNK N   1      26.996  29.809  -4.702  0.00  0.00     0.000 A 
HETATM   18  C   UNK N   1      26.021  29.002  -4.116  0.00  0.00     0.001 A 
HETATM   19  C   UNK N   1      25.761  27.735  -4.638  0.00  0.00     0.012 A 
ENDBRANCH   3  14
TORSDOF 4
ENDMDL
MODEL 7
REMARK VINA RESULT:      -6.2      9.194     13.046
REMARK  4 active torsions:
REMARK  status: ('A' for Active; 'I' for Inactive)
REMARK    1  A    between atoms: O_2  and  C_13 
REMARK    2  A    between atoms: C_4  and  C_5 
REMARK    3  A    between atoms: C_4  and  C_13 
REMARK    4  A    between atoms: C_6  and  C_12 
ROOT
HETATM    1  F   UNK N   1      28.109  18.087   7.538  0.00  0.00    -0.205 F 
HETATM    2  C   UNK N   1      31.473  17.026   6.540  0.00  0.00    -0.041 A 
HETATM    3  C   UNK N   1      29.096  17.966   5.332  0.00  0.00     0.013 A 
HETATM    4  C   UNK N   1      30.352  17.334   7.329  0.00  0.00     0.051 A 
HETATM    5  C   UNK N   1      31.390  17.192   5.157  0.00  0.00     0.009 A 
HETATM    6  C   UNK N   1      29.167  17.802   6.738  0.00  0.00     0.128 A 
HETATM    7  C   UNK N   1      30.224  17.653   4.564  0.00  0.00     0.016 A 
ENDROOT
BRANCH   2   8
HETATM    8  C   UNK N   1      32.754  16.522   7.164  0.00  0.00     0.112 C 
HETATM    9  C   UNK N   1      32.691  15.474   8.267  0.00  0.00     0.026 C 
BRANCH   8  10
HETATM   10  C   UNK N   1      34.119  17.018   6.738  0.00  0.00     0.148 C 
HETATM   11  O   UNK N   1      34.867  16.309   6.080  0.00  0.00    -0.649 OA
BRANCH  10  12
HETATM   12  O   UNK N   1      34.524  18.254   7.081  0.00  0.00    -0.776 OA
HETATM   13  H   UNK N   1      35.354  18.573   6.788  0.00  0.00     0.167 HD
ENDBRANCH  10  12
ENDBRANCH   8  10
ENDBRANCH   2   8
BRANCH   3  14
HETATM   14  C   UNK N   1      27.880  18.455   4.622  0.00  0.00    -0.023 A 
HETATM   15  C   UNK N   1      26.879  17.581   4.171  0.00  0.00     0.012 A 
HETATM   16  C   UNK N   1      25.750  18.076   3.508  0.00  0.00     0.001 A 
HETATM   17  C   UNK N   1      25.611  19.450   3.289  0.00  0.00     0.000 A 
HETATM   18  C   UNK N   1      26.599  20.329   3.732  0.00  0.00     0.001 A 
HETATM   19  C   UNK N   1      27.723  19.835   4.393  0.00  0.00     0.012 A 
ENDBRANCH   3  14
TORSDOF 4
ENDMDL
MODEL 8
REMARK VINA RESULT:      -6.1     21.132     23.804
REMARK  4 active torsions:
REMARK  status: ('A' for Active; 'I' for Inactive)
REMARK    1  A    between atoms: O_2  and  C_13 
REMARK    2  A    between atoms: C_4  and  C_5 
REMARK    3  A    between atoms: C_4  and  C_13 
REMARK    4  A    between atoms: C_6  and  C_12 
ROOT
HETATM    1  F   UNK N   1      30.438  25.494  -5.473  0.00  0.00    -0.205 F 
HETATM    2  C   UNK N   1      27.084  26.384  -4.290  0.00  0.00    -0.041 A 
HETATM    3  C   UNK N   1      28.819  24.152  -4.275  0.00  0.00     0.013 A 
HETATM    4  C   UNK N   1      28.353  26.469  -4.887  0.00  0.00     0.051 A 
HETATM    5  C   UNK N   1      26.700  25.183  -3.694  0.00  0.00     0.009 A 
HETATM    6  C   UNK N   1      29.222  25.366  -4.885  0.00  0.00     0.128 A 
HETATM    7  C   UNK N   1      27.550  24.087  -3.685  0.00  0.00     0.016 A 
ENDROOT
BRANCH   2   8
HETATM    8  C   UNK N   1      26.140  27.565  -4.287  0.00  0.00     0.112 C 
HETATM    9  C   UNK N   1      24.905  27.541  -5.176  0.00  0.00     0.026 C 
BRANCH   8  10
HETATM   10  C   UNK N   1      26.369  28.789  -3.426  0.00  0.00     0.148 C 
HETATM   11  O   UNK N   1      26.994  28.711  -2.378  0.00  0.00    -0.649 OA
BRANCH  10  12
HETATM   12  O   UNK N   1      25.883  29.982  -3.811  0.00  0.00    -0.776 OA
HETATM   13  H   UNK N   1      25.263  30.033  -4.511  0.00  0.00     0.167 HD
ENDBRANCH  10  12
ENDBRANCH   8  10
ENDBRANCH   2   8
BRANCH   3  14
HETATM   14  C   UNK N   1      29.676  22.933  -4.226  0.00  0.00    -0.023 A 
HETATM   15  C   UNK N   1      30.438  22.604  -3.094  0.00  0.00     0.012 A 
HETATM   16  C   UNK N   1      31.232  21.452  -3.083  0.00  0.00     0.001 A 
HETATM   17  C   UNK N   1      31.272  20.616  -4.203  0.00  0.00     0.000 A 
HETATM   18  C   UNK N   1      30.519  20.932  -5.335  0.00  0.00     0.001 A 
HETATM   19  C   UNK N   1      29.728  22.081  -5.345  0.00  0.00     0.012 A 
ENDBRANCH   3  14
TORSDOF 4
ENDMDL
MODEL 9
REMARK VINA RESULT:      -5.9     15.100     16.975
REMARK  4 active torsions:
REMARK  status: ('A' for Active; 'I' for Inactive)
REMARK    1  A    between atoms: O_2  and  C_13 
REMARK    2  A    between atoms: C_4  and  C_5 
REMARK    3  A    between atoms: C_4  and  C_13 
REMARK    4  A    between atoms: C_6  and  C_12 
ROOT
HETATM    1  F   UNK N   1      21.156  12.851  10.119  0.00  0.00    -0.205 F 
HETATM    2  C   UNK N   1      19.864  15.875   8.499  0.00  0.00    -0.041 A 
HETATM    3  C   UNK N   1      21.145  13.460   7.777  0.00  0.00     0.013 A 
HETATM    4  C   UNK N   1      20.207  14.934   9.484  0.00  0.00     0.051 A 
HETATM    5  C   UNK N   1      20.166  15.596   7.166  0.00  0.00     0.009 A 
HETATM    6  C   UNK N   1      20.843  13.732   9.135  0.00  0.00     0.128 A 
HETATM    7  C   UNK N   1      20.795  14.412   6.811  0.00  0.00     0.016 A 
ENDROOT
BRANCH   2   8
HETATM    8  C   UNK N   1      19.179  17.173   8.863  0.00  0.00     0.112 C 
HETATM    9  C   UNK N   1      17.698  17.168   9.212  0.00  0.00     0.026 C 
BRANCH   8  10
HETATM   10  C   UNK N   1      19.909  18.499   8.895  0.00  0.00     0.148 C 
HETATM   11  O   UNK N   1      20.525  18.900   7.918  0.00  0.00    -0.649 OA
BRANCH  10  12
HETATM   12  O   UNK N   1      19.886  19.253  10.009  0.00  0.00    -0.776 OA
HETATM   13  H   UNK N   1      20.407  19.011  10.749  0.00  0.00     0.167 HD
ENDBRANCH  10  12
ENDBRANCH   8  10
ENDBRANCH   2   8
BRANCH   3  14
HETATM   14  C   UNK N   1      21.817  12.212   7.318  0.00  0.00    -0.023 A 
HETATM   15  C   UNK N   1      21.320  11.449   6.250  0.00  0.00     0.012 A 
HETATM   16  C   UNK N   1      21.978  10.282   5.845  0.00  0.00     0.001 A 
HETATM   17  C   UNK N   1      23.138   9.865   6.504  0.00  0.00     0.000 A 
HETATM   18  C   UNK N   1      23.642  10.615   7.567  0.00  0.00     0.001 A 
HETATM   19  C   UNK N   1      22.987  11.778   7.970  0.00  0.00     0.012 A 
ENDBRANCH   3  14
TORSDOF 4
ENDMDL
