MODEL 1
REMARK VINA RESULT:      -4.5      0.000      0.000
REMARK  9 active torsions:
REMARK  status: ('A' for Active; 'I' for Inactive)
REMARK    1  A    between atoms: O_1  and  C_10 
REMARK    2  A    between atoms: C_3  and  C_4 
REMARK    3  A    between atoms: C_3  and  C_6 
REMARK    4  A    between atoms: C_3  and  C_10 
REMARK    5  A    between atoms: C_4  and  C_5 
REMARK    6  A    between atoms: C_5  and  C_7 
REMARK    7  A    between atoms: C_6  and  C_9 
REMARK    8  A    between atoms: C_7  and  C_8 
REMARK    9  A    between atoms: C_8  and  C_11 
ROOT
HETATM    1  C   UNK N   1      36.182  13.094  15.822  0.00  0.00     0.083 C 
ENDROOT
BRANCH   1   2
HETATM    2  C   UNK N   1      36.522  11.616  15.593  0.00  0.00     0.015 C 
BRANCH   2   3
HETATM    3  C   UNK N   1      35.497  10.708  16.244  0.00  0.00     0.001 C 
BRANCH   3   4
HETATM    4  C   UNK N   1      34.882   9.777  15.223  0.00  0.00     0.000 C 
BRANCH   4   5
HETATM    5  C   UNK N   1      33.772  10.524  14.514  0.00  0.00    -0.000 C 
BRANCH   5   6
HETATM    6  C   UNK N   1      33.968  10.454  13.016  0.00  0.00    -0.005 C 
HETATM    7  C   UNK N   1      34.777   9.219  12.681  0.00  0.00     0.005 C 
ENDBRANCH   5   6
ENDBRANCH   4   5
ENDBRANCH   3   4
ENDBRANCH   2   3
ENDBRANCH   1   2
BRANCH   1   8
HETATM    8  C   UNK N   1      34.936  13.248  16.694  0.00  0.00     0.015 C 
BRANCH   8   9
HETATM    9  C   UNK N   1      35.274  13.966  17.990  0.00  0.00    -0.004 C 
HETATM   10  C   UNK N   1      35.151  13.009  19.156  0.00  0.00     0.005 C 
ENDBRANCH   8   9
ENDBRANCH   1   8
BRANCH   1  11
HETATM   11  C   UNK N   1      35.976  13.831  14.525  0.00  0.00     0.143 C 
HETATM   12  O   UNK N   1      34.972  13.651  13.851  0.00  0.00    -0.650 OA
BRANCH  11  13
HETATM   13  O   UNK N   1      36.919  14.688  14.090  0.00  0.00    -0.776 OA
HETATM   14  H   UNK N   1      37.781  14.696  14.460  0.00  0.00     0.167 HD
ENDBRANCH  11  13
ENDBRANCH   1  11
TORSDOF 9
ENDMDL
MODEL 2
REMARK VINA RESULT:      -4.5      9.259     10.991
REMARK  9 active torsions:
REMARK  status: ('A' for Active; 'I' for Inactive)
REMARK    1  A    between atoms: O_1  and  C_10 
REMARK    2  A    between atoms: C_3  and  C_4 
REMARK    3  A    between atoms: C_3  and  C_6 
REMARK    4  A    between atoms: C_3  and  C_10 
REMARK    5  A    between atoms: C_4  and  C_5 
REMARK    6  A    between atoms: C_5  and  C_7 
REMARK    7  A    between atoms: C_6  and  C_9 
REMARK    8  A    between atoms: C_7  and  C_8 
REMARK    9  A    between atoms: C_8  and  C_11 
ROOT
HETATM    1  C   UNK N   1      33.314  17.914   7.543  0.00  0.00     0.083 C 
ENDROOT
BRANCH   1   2
HETATM    2  C   UNK N   1      32.197  17.037   8.123  0.00  0.00     0.015 C 
BRANCH   2   3
HETATM    3  C   UNK N   1      30.979  17.865   8.483  0.00  0.00     0.001 C 
BRANCH   3   4
HETATM    4  C   UNK N   1      29.883  17.677   7.457  0.00  0.00     0.000 C 
BRANCH   4   5
HETATM    5  C   UNK N   1      30.090  16.334   6.789  0.00  0.00    -0.000 C 
BRANCH   5   6
HETATM    6  C   UNK N   1      29.613  16.385   5.355  0.00  0.00    -0.005 C 
HETATM    7  C   UNK N   1      29.386  17.830   4.961  0.00  0.00     0.005 C 
ENDBRANCH   5   6
ENDBRANCH   4   5
ENDBRANCH   3   4
ENDBRANCH   2   3
ENDBRANCH   1   2
BRANCH   1   8
HETATM    8  C   UNK N   1      33.927  17.279   6.295  0.00  0.00     0.015 C 
BRANCH   8   9
HETATM    9  C   UNK N   1      33.143  17.671   5.054  0.00  0.00    -0.004 C 
HETATM   10  C   UNK N   1      33.108  16.512   4.080  0.00  0.00     0.005 C 
ENDBRANCH   8   9
ENDBRANCH   1   8
BRANCH   1  11
HETATM   11  C   UNK N   1      34.400  18.180   8.551  0.00  0.00     0.143 C 
HETATM   12  O   UNK N   1      35.215  19.074   8.378  0.00  0.00    -0.650 OA
BRANCH  11  13
HETATM   13  O   UNK N   1      34.489  17.410   9.653  0.00  0.00    -0.776 OA
HETATM   14  H   UNK N   1      34.464  16.474   9.599  0.00  0.00     0.167 HD
ENDBRANCH  11  13
ENDBRANCH   1  11
TORSDOF 9
ENDMDL
MODEL 3
REMARK VINA RESULT:      -4.5     25.076     26.632
REMARK  9 active torsions:
REMARK  status: ('A' for Active; 'I' for Inactive)
REMARK    1  A    between atoms: O_1  and  C_10 
REMARK    2  A    between atoms: C_3  and  C_4 
REMARK    3  A    between atoms: C_3  and  C_6 
REMARK    4  A    between atoms: C_3  and  C_10 
REMARK    5  A    between atoms: C_4  and  C_5 
REMARK    6  A    between atoms: C_5  and  C_7 
REMARK    7  A    between atoms: C_6  and  C_9 
REMARK    8  A    between atoms: C_7  and  C_8 
REMARK    9  A    between atoms: C_8  and  C_11 
ROOT
HETATM    1  C   UNK N   1      25.805  28.055  -5.178  0.00  0.00     0.083 C 
ENDROOT
BRANCH   1   2
HETATM    2  C   UNK N   1      24.847  26.902  -5.500  0.00  0.00     0.015 C 
BRANCH   2   3
HETATM    3  C   UNK N   1      25.588  25.720  -6.095  0.00  0.00     0.001 C 
BRANCH   3   4
HETATM    4  C   UNK N   1      25.572  24.545  -5.144  0.00  0.00     0.000 C 
BRANCH   4   5
HETATM    5  C   UNK N   1      27.005  24.199  -4.800  0.00  0.00    -0.000 C 
BRANCH   5   6
HETATM    6  C   UNK N   1      27.200  24.204  -3.300  0.00  0.00    -0.005 C 
HETATM    7  C   UNK N   1      28.562  23.625  -2.977  0.00  0.00     0.005 C 
ENDBRANCH   5   6
ENDBRANCH   4   5
ENDBRANCH   3   4
ENDBRANCH   2   3
ENDBRANCH   1   2
BRANCH   1   8
HETATM    8  C   UNK N   1      27.211  27.772  -5.706  0.00  0.00     0.015 C 
BRANCH   8   9
HETATM    9  C   UNK N   1      27.810  29.020  -6.334  0.00  0.00    -0.004 C 
HETATM   10  C   UNK N   1      28.530  28.656  -7.615  0.00  0.00     0.005 C 
ENDBRANCH   8   9
ENDBRANCH   1   8
BRANCH   1  11
HETATM   11  C   UNK N   1      25.875  28.332  -3.699  0.00  0.00     0.143 C 
HETATM   12  O   UNK N   1      25.765  27.428  -2.883  0.00  0.00    -0.650 OA
BRANCH  11  13
HETATM   13  O   UNK N   1      26.040  29.597  -3.267  0.00  0.00    -0.776 OA
HETATM   14  H   UNK N   1      25.470  30.287  -3.545  0.00  0.00     0.167 HD
ENDBRANCH  11  13
ENDBRANCH   1  11
TORSDOF 9
ENDMDL
MODEL 4
REMARK VINA RESULT:      -4.5      9.141     10.631
REMARK  9 active torsions:
REMARK  status: ('A' for Active; 'I' for Inactive)
REMARK    1  A    between atoms: O_1  and  C_10 
REMARK    2  A    between atoms: C_3  and  C_4 
REMARK    3  A    between atoms: C_3  and  C_6 
REMARK    4  A    between atoms: C_3  and  C_10 
REMARK    5  A    between atoms: C_4  and  C_5 
REMARK    6  A    between atoms: C_5  and  C_7 
REMARK    7  A    between atoms: C_6  and  C_9 
REMARK    8  A    between atoms: C_7  and  C_8 
REMARK    9  A    between atoms: C_8  and  C_11 
ROOT
HETATM    1  C   UNK N   1      33.665  17.259   8.133  0.00  0.00     0.083 C 
ENDROOT
BRANCH   1   2
HETATM    2  C   UNK N   1      34.086  16.814   6.727  0.00  0.00     0.015 C 
BRANCH   2   3
HETATM    3  C   UNK N   1      33.446  17.682   5.661  0.00  0.00     0.001 C 
BRANCH   3   4
HETATM    4  C   UNK N   1      33.086  16.859   4.445  0.00  0.00     0.000 C 
BRANCH   4   5
HETATM    5  C   UNK N   1      31.676  17.221   4.032  0.00  0.00    -0.000 C 
BRANCH   5   6
HETATM    6  C   UNK N   1      30.685  16.725   5.062  0.00  0.00    -0.005 C 
HETATM    7  C   UNK N   1      29.581  17.750   5.219  0.00  0.00     0.005 C 
ENDBRANCH   5   6
ENDBRANCH   4   5
ENDBRANCH   3   4
ENDBRANCH   2   3
ENDBRANCH   1   2
BRANCH   1   8
HETATM    8  C   UNK N   1      32.452  18.186   8.082  0.00  0.00     0.015 C 
BRANCH   8   9
HETATM    9  C   UNK N   1      31.232  17.508   8.684  0.00  0.00    -0.004 C 
HETATM   10  C   UNK N   1      30.209  18.549   9.085  0.00  0.00     0.005 C 
ENDBRANCH   8   9
ENDBRANCH   1   8
BRANCH   1  11
HETATM   11  C   UNK N   1      34.788  17.948   8.864  0.00  0.00     0.143 C 
HETATM   12  O   UNK N   1      35.298  17.443   9.854  0.00  0.00    -0.650 OA
BRANCH  11  13
HETATM   13  O   UNK N   1      35.225  19.147   8.434  0.00  0.00    -0.776 OA
HETATM   14  H   UNK N   1      36.106  19.269   8.139  0.00  0.00     0.167 HD
ENDBRANCH  11  13
ENDBRANCH   1  11
TORSDOF 9
ENDMDL
MODEL 5
REMARK VINA RESULT:      -4.4     12.612     14.497
REMARK  9 active torsions:
REMARK  status: ('A' for Active; 'I' for Inactive)
REMARK    1  A    between atoms: O_1  and  C_10 
REMARK    2  A    between atoms: C_3  and  C_4 
REMARK    3  A    between atoms: C_3  and  C_6 
REMARK    4  A    between atoms: C_3  and  C_10 
REMARK    5  A    between atoms: C_4  and  C_5 
REMARK    6  A    between atoms: C_5  and  C_7 
REMARK    7  A    between atoms: C_6  and  C_9 
REMARK    8  A    between atoms: C_7  and  C_8 
REMARK    9  A    between atoms: C_8  and  C_11 
ROOT
HETATM    1  C   UNK N   1      22.939  11.595  10.552  0.00  0.00     0.083 C 
ENDROOT
BRANCH   1   2
HETATM    2  C   UNK N   1      23.757  11.884   9.288  0.00  0.00     0.015 C 
BRANCH   2   3
HETATM    3  C   UNK N   1      23.599  10.775   8.265  0.00  0.00     0.001 C 
BRANCH   3   4
HETATM    4  C   UNK N   1      23.343  11.348   6.890  0.00  0.00     0.000 C 
BRANCH   4   5
HETATM    5  C   UNK N   1      21.877  11.714   6.798  0.00  0.00    -0.000 C 
BRANCH   5   6
HETATM    6  C   UNK N   1      21.720  13.107   6.230  0.00  0.00    -0.005 C 
HETATM    7  C   UNK N   1      20.273  13.319   5.837  0.00  0.00     0.005 C 
ENDBRANCH   5   6
ENDBRANCH   4   5
ENDBRANCH   3   4
ENDBRANCH   2   3
ENDBRANCH   1   2
BRANCH   1   8
HETATM    8  C   UNK N   1      21.612  12.353  10.540  0.00  0.00     0.015 C 
BRANCH   8   9
HETATM    9  C   UNK N   1      21.777  13.713   9.881  0.00  0.00    -0.004 C 
HETATM   10  C   UNK N   1      20.419  14.289   9.543  0.00  0.00     0.005 C 
ENDBRANCH   8   9
ENDBRANCH   1   8
BRANCH   1  11
HETATM   11  C   UNK N   1      23.699  11.941  11.805  0.00  0.00     0.143 C 
HETATM   12  O   UNK N   1      23.160  11.901  12.901  0.00  0.00    -0.650 OA
BRANCH  11  13
HETATM   13  O   UNK N   1      24.989  12.321  11.717  0.00  0.00    -0.776 OA
HETATM   14  H   UNK N   1      25.251  13.040  11.175  0.00  0.00     0.167 HD
ENDBRANCH  11  13
ENDBRANCH   1  11
TORSDOF 9
ENDMDL
MODEL 6
REMARK VINA RESULT:      -4.4      1.282      2.265
REMARK  9 active torsions:
REMARK  status: ('A' for Active; 'I' for Inactive)
REMARK    1  A    between atoms: O_1  and  C_10 
REMARK    2  A    between atoms: C_3  and  C_4 
REMARK    3  A    between atoms: C_3  and  C_6 
REMARK    4  A    between atoms: C_3  and  C_10 
REMARK    5  A    between atoms: C_4  and  C_5 
REMARK    6  A    between atoms: C_5  and  C_7 
REMARK    7  A    between atoms: C_6  and  C_9 
REMARK    8  A    between atoms: C_7  and  C_8 
REMARK    9  A    between atoms: C_8  and  C_11 
ROOT
HETATM    1  C   UNK N   1      36.213  13.200  15.808  0.00  0.00     0.083 C 
ENDROOT
BRANCH   1   2
HETATM    2  C   UNK N   1      35.832  12.234  14.680  0.00  0.00     0.015 C 
BRANCH   2   3
HETATM    3  C   UNK N   1      34.362  11.865  14.746  0.00  0.00     0.001 C 
BRANCH   3   4
HETATM    4  C   UNK N   1      34.191  10.365  14.830  0.00  0.00     0.000 C 
BRANCH   4   5
HETATM    5  C   UNK N   1      34.490   9.936  16.251  0.00  0.00    -0.000 C 
BRANCH   5   6
HETATM    6  C   UNK N   1      35.603   8.912  16.265  0.00  0.00    -0.005 C 
HETATM    7  C   UNK N   1      36.769   9.462  17.059  0.00  0.00     0.005 C 
ENDBRANCH   5   6
ENDBRANCH   4   5
ENDBRANCH   3   4
ENDBRANCH   2   3
ENDBRANCH   1   2
BRANCH   1   8
HETATM    8  C   UNK N   1      34.984  13.638  16.604  0.00  0.00     0.015 C 
BRANCH   8   9
HETATM    9  C   UNK N   1      35.323  13.780  18.079  0.00  0.00    -0.004 C 
HETATM   10  C   UNK N   1      35.228  12.431  18.760  0.00  0.00     0.005 C 
ENDBRANCH   8   9
ENDBRANCH   1   8
BRANCH   1  11
HETATM   11  C   UNK N   1      36.929  14.418  15.287  0.00  0.00     0.143 C 
HETATM   12  O   UNK N   1      37.626  15.103  16.022  0.00  0.00    -0.650 OA
BRANCH  11  13
HETATM   13  O   UNK N   1      36.786  14.773  13.995  0.00  0.00    -0.776 OA
HETATM   14  H   UNK N   1      36.748  15.673  13.737  0.00  0.00     0.167 HD
ENDBRANCH  11  13
ENDBRANCH   1  11
TORSDOF 9
ENDMDL
MODEL 7
REMARK VINA RESULT:      -4.4     11.146     12.712
REMARK  9 active torsions:
REMARK  status: ('A' for Active; 'I' for Inactive)
REMARK    1  A    between atoms: O_1  and  C_10 
REMARK    2  A    between atoms: C_3  and  C_4 
REMARK    3  A    between atoms: C_3  and  C_6 
REMARK    4  A    between atoms: C_3  and  C_10 
REMARK    5  A    between atoms: C_4  and  C_5 
REMARK    6  A    between atoms: C_5  and  C_7 
REMARK    7  A    between atoms: C_6  and  C_9 
REMARK    8  A    between atoms: C_7  and  C_8 
REMARK    9  A    between atoms: C_8  and  C_11 
ROOT
HETATM    1  C   UNK N   1      29.643  18.017   8.055  0.00  0.00     0.083 C 
ENDROOT
BRANCH   1   2
HETATM    2  C   UNK N   1      28.706  17.419   6.998  0.00  0.00     0.015 C 
BRANCH   2   3
HETATM    3  C   UNK N   1      29.024  17.953   5.615  0.00  0.00     0.001 C 
BRANCH   3   4
HETATM    4  C   UNK N   1      27.760  18.377   4.903  0.00  0.00     0.000 C 
BRANCH   4   5
HETATM    5  C   UNK N   1      27.913  19.828   4.495  0.00  0.00    -0.000 C 
BRANCH   5   6
HETATM    6  C   UNK N   1      26.852  20.674   5.163  0.00  0.00    -0.005 C 
HETATM    7  C   UNK N   1      27.458  21.366   6.366  0.00  0.00     0.005 C 
ENDBRANCH   5   6
ENDBRANCH   4   5
ENDBRANCH   3   4
ENDBRANCH   2   3
ENDBRANCH   1   2
BRANCH   1   8
HETATM    8  C   UNK N   1      30.779  17.055   8.399  0.00  0.00     0.015 C 
BRANCH   8   9
HETATM    9  C   UNK N   1      32.128  17.722   8.190  0.00  0.00    -0.004 C 
HETATM   10  C   UNK N   1      32.676  17.357   6.826  0.00  0.00     0.005 C 
ENDBRANCH   8   9
ENDBRANCH   1   8
BRANCH   1  11
HETATM   11  C   UNK N   1      28.905  18.388   9.314  0.00  0.00     0.143 C 
HETATM   12  O   UNK N   1      29.505  18.781  10.304  0.00  0.00    -0.650 OA
BRANCH  11  13
HETATM   13  O   UNK N   1      27.564  18.268   9.360  0.00  0.00    -0.776 OA
HETATM   14  H   UNK N   1      27.141  17.446   9.201  0.00  0.00     0.167 HD
ENDBRANCH  11  13
ENDBRANCH   1  11
TORSDOF 9
ENDMDL
MODEL 8
REMARK VINA RESULT:      -4.3      1.179      2.452
REMARK  9 active torsions:
REMARK  status: ('A' for Active; 'I' for Inactive)
REMARK    1  A    between atoms: O_1  and  C_10 
REMARK    2  A    between atoms: C_3  and  C_4 
REMARK    3  A    between atoms: C_3  and  C_6 
REMARK    4  A    between atoms: C_3  and  C_10 
REMARK    5  A    between atoms: C_4  and  C_5 
REMARK    6  A    between atoms: C_5  and  C_7 
REMARK    7  A    between atoms: C_6  and  C_9 
REMARK    8  A    between atoms: C_7  and  C_8 
REMARK    9  A    between atoms: C_8  and  C_11 
ROOT
HETATM    1  C   UNK N   1      35.537  12.474  14.796  0.00  0.00     0.083 C 
ENDROOT
BRANCH   1   2
HETATM    2  C   UNK N   1      34.092  11.964  14.867  0.00  0.00     0.015 C 
BRANCH   2   3
HETATM    3  C   UNK N   1      34.043  10.449  14.862  0.00  0.00     0.001 C 
BRANCH   3   4
HETATM    4  C   UNK N   1      35.427   9.869  14.674  0.00  0.00     0.000 C 
BRANCH   4   5
HETATM    5  C   UNK N   1      35.717   8.955  15.846  0.00  0.00    -0.000 C 
BRANCH   5   6
HETATM    6  C   UNK N   1      35.085   9.503  17.106  0.00  0.00    -0.005 C 
HETATM    7  C   UNK N   1      36.180   9.904  18.073  0.00  0.00     0.005 C 
ENDBRANCH   5   6
ENDBRANCH   4   5
ENDBRANCH   3   4
ENDBRANCH   2   3
ENDBRANCH   1   2
BRANCH   1   8
HETATM    8  C   UNK N   1      35.953  13.150  16.101  0.00  0.00     0.015 C 
BRANCH   8   9
HETATM    9  C   UNK N   1      34.763  13.288  17.037  0.00  0.00    -0.004 C 
HETATM   10  C   UNK N   1      35.246  13.522  18.452  0.00  0.00     0.005 C 
ENDBRANCH   8   9
ENDBRANCH   1   8
BRANCH   1  11
HETATM   11  C   UNK N   1      35.739  13.432  13.652  0.00  0.00     0.143 C 
HETATM   12  O   UNK N   1      34.815  13.730  12.908  0.00  0.00    -0.650 OA
BRANCH  11  13
HETATM   13  O   UNK N   1      36.960  13.957  13.431  0.00  0.00    -0.776 OA
HETATM   14  H   UNK N   1      37.071  14.861  13.209  0.00  0.00     0.167 HD
ENDBRANCH  11  13
ENDBRANCH   1  11
TORSDOF 9
ENDMDL
MODEL 9
REMARK VINA RESULT:      -4.2     12.259     13.774
REMARK  9 active torsions:
REMARK  status: ('A' for Active; 'I' for Inactive)
REMARK    1  A    between atoms: O_1  and  C_10 
REMARK    2  A    between atoms: C_3  and  C_4 
REMARK    3  A    between atoms: C_3  and  C_6 
REMARK    4  A    between atoms: C_3  and  C_10 
REMARK    5  A    between atoms: C_4  and  C_5 
REMARK    6  A    between atoms: C_5  and  C_7 
REMARK    7  A    between atoms: C_6  and  C_9 
REMARK    8  A    between atoms: C_7  and  C_8 
REMARK    9  A    between atoms: C_8  and  C_11 
ROOT
HETATM    1  C   UNK N   1      29.037  18.398   7.634  0.00  0.00     0.083 C 
ENDROOT
BRANCH   1   2
HETATM    2  C   UNK N   1      27.846  18.783   6.749  0.00  0.00     0.015 C 
BRANCH   2   3
HETATM    3  C   UNK N   1      27.575  20.274   6.809  0.00  0.00     0.001 C 
BRANCH   3   4
HETATM    4  C   UNK N   1      27.452  20.852   5.417  0.00  0.00     0.000 C 
BRANCH   4   5
HETATM    5  C   UNK N   1      26.342  20.114   4.698  0.00  0.00    -0.000 C 
BRANCH   5   6
HETATM    6  C   UNK N   1      26.346  20.467   3.228  0.00  0.00    -0.005 C 
HETATM    7  C   UNK N   1      24.918  20.488   2.722  0.00  0.00     0.005 C 
ENDBRANCH   5   6
ENDBRANCH   4   5
ENDBRANCH   3   4
ENDBRANCH   2   3
ENDBRANCH   1   2
BRANCH   1   8
HETATM    8  C   UNK N   1      29.613  17.042   7.231  0.00  0.00     0.015 C 
BRANCH   8   9
HETATM    9  C   UNK N   1      31.132  17.074   7.260  0.00  0.00    -0.004 C 
HETATM   10  C   UNK N   1      31.672  17.129   5.847  0.00  0.00     0.005 C 
ENDBRANCH   8   9
ENDBRANCH   1   8
BRANCH   1  11
HETATM   11  C   UNK N   1      28.665  18.368   9.094  0.00  0.00     0.143 C 
HETATM   12  O   UNK N   1      29.481  18.655   9.958  0.00  0.00    -0.650 OA
BRANCH  11  13
HETATM   13  O   UNK N   1      27.421  18.000   9.456  0.00  0.00    -0.776 OA
HETATM   14  H   UNK N   1      27.262  17.536  10.255  0.00  0.00     0.167 HD
ENDBRANCH  11  13
ENDBRANCH   1  11
TORSDOF 9
ENDMDL
