MODEL 1
REMARK VINA RESULT:      -6.4      0.000      0.000
REMARK  3 active torsions:
REMARK  status: ('A' for Active; 'I' for Inactive)
REMARK    1  A    between atoms: C_7  and  C_18 
REMARK    2  A    between atoms: C_8  and  C_10 
REMARK    3  A    between atoms: C_18  and  O_19 
ROOT
HETATM    1  C   UNK N   1      28.097  26.529  -6.231  0.00  0.00     0.310 C 
HETATM    2  N   UNK N   1      27.529  27.365  -5.180  0.00  0.00     0.094 N 
HETATM    3  C   UNK N   1      26.212  27.944  -5.451  0.00  0.00     0.223 C 
HETATM    4  C   UNK N   1      25.885  28.622  -4.138  0.00  0.00     0.038 C 
HETATM    5  C   UNK N   1      26.573  27.749  -3.088  0.00  0.00     0.038 C 
HETATM    6  C   UNK N   1      27.347  26.708  -3.891  0.00  0.00     0.229 C 
HETATM    7  C   UNK N   1      26.457  25.451  -4.012  0.00  0.00     0.051 C 
HETATM    8  C   UNK N   1      25.446  25.448  -5.208  0.00  0.00     0.029 C 
HETATM    9  C   UNK N   1      25.100  26.884  -5.665  0.00  0.00     0.045 C 
ENDROOT
BRANCH   8  10
HETATM   10  C   UNK N   1      25.755  24.549  -6.402  0.00  0.00    -0.052 A 
HETATM   11  C   UNK N   1      26.017  23.186  -6.211  0.00  0.00     0.009 A 
HETATM   12  C   UNK N   1      26.251  22.345  -7.304  0.00  0.00     0.026 A 
HETATM   13  C   UNK N   1      26.213  22.854  -8.603  0.00  0.00     0.055 A 
HETATM   14  C   UNK N   1      25.933  24.213  -8.811  0.00  0.00     0.056 A 
HETATM   15 Cl   UNK N   1      26.505  21.769  -9.954  0.00  0.00    -0.083 Cl
HETATM   16  C   UNK N   1      25.701  25.047  -7.715  0.00  0.00     0.033 A 
HETATM   17 Cl   UNK N   1      25.860  24.900 -10.425  0.00  0.00    -0.083 Cl
ENDBRANCH   8  10
BRANCH   7  18
HETATM   18  C   UNK N   1      27.252  24.173  -3.767  0.00  0.00     0.174 C 
BRANCH  18  19
HETATM   19  O   UNK N   1      27.144  23.776  -2.433  0.00  0.00    -0.395 OA
HETATM   20  C   UNK N   1      28.388  23.232  -2.115  0.00  0.00     0.201 C 
ENDBRANCH  18  19
ENDBRANCH   7  18
TORSDOF 3
ENDMDL
MODEL 2
REMARK VINA RESULT:      -6.1      1.100      1.781
REMARK  3 active torsions:
REMARK  status: ('A' for Active; 'I' for Inactive)
REMARK    1  A    between atoms: C_7  and  C_18 
REMARK    2  A    between atoms: C_8  and  C_10 
REMARK    3  A    between atoms: C_18  and  O_19 
ROOT
HETATM    1  C   UNK N   1      28.167  26.541  -6.130  0.00  0.00     0.310 C 
HETATM    2  N   UNK N   1      27.394  27.301  -5.155  0.00  0.00     0.094 N 
HETATM    3  C   UNK N   1      26.032  27.669  -5.549  0.00  0.00     0.223 C 
HETATM    4  C   UNK N   1      25.498  28.313  -4.288  0.00  0.00     0.038 C 
HETATM    5  C   UNK N   1      26.217  27.573  -3.160  0.00  0.00     0.038 C 
HETATM    6  C   UNK N   1      27.203  26.647  -3.866  0.00  0.00     0.229 C 
HETATM    7  C   UNK N   1      26.523  25.268  -4.021  0.00  0.00     0.051 C 
HETATM    8  C   UNK N   1      25.630  25.091  -5.294  0.00  0.00     0.029 C 
HETATM    9  C   UNK N   1      25.114  26.449  -5.822  0.00  0.00     0.045 C 
ENDROOT
BRANCH   8  10
HETATM   10  C   UNK N   1      26.170  24.227  -6.431  0.00  0.00    -0.052 A 
HETATM   11  C   UNK N   1      25.738  24.438  -7.747  0.00  0.00     0.009 A 
HETATM   12  C   UNK N   1      26.264  23.684  -8.800  0.00  0.00     0.026 A 
HETATM   13  C   UNK N   1      27.241  22.718  -8.553  0.00  0.00     0.055 A 
HETATM   14  C   UNK N   1      27.698  22.508  -7.243  0.00  0.00     0.056 A 
HETATM   15 Cl   UNK N   1      27.886  21.793  -9.900  0.00  0.00    -0.083 Cl
HETATM   16  C   UNK N   1      27.167  23.264  -6.196  0.00  0.00     0.033 A 
HETATM   17 Cl   UNK N   1      28.935  21.315  -6.881  0.00  0.00    -0.083 Cl
ENDBRANCH   8  10
BRANCH   7  18
HETATM   18  C   UNK N   1      27.477  24.129  -3.673  0.00  0.00     0.174 C 
BRANCH  18  19
HETATM   19  O   UNK N   1      27.267  23.697  -2.362  0.00  0.00    -0.395 OA
HETATM   20  C   UNK N   1      28.476  23.120  -1.973  0.00  0.00     0.201 C 
ENDBRANCH  18  19
ENDBRANCH   7  18
TORSDOF 3
ENDMDL
MODEL 3
REMARK VINA RESULT:      -6.1     15.795     17.682
REMARK  3 active torsions:
REMARK  status: ('A' for Active; 'I' for Inactive)
REMARK    1  A    between atoms: C_7  and  C_18 
REMARK    2  A    between atoms: C_8  and  C_10 
REMARK    3  A    between atoms: C_18  and  O_19 
ROOT
HETATM    1  C   UNK N   1      32.429  14.333   7.526  0.00  0.00     0.310 C 
HETATM    2  N   UNK N   1      33.734  14.251   6.880  0.00  0.00     0.094 N 
HETATM    3  C   UNK N   1      33.825  14.804   5.527  0.00  0.00     0.223 C 
HETATM    4  C   UNK N   1      35.303  14.670   5.227  0.00  0.00     0.038 C 
HETATM    5  C   UNK N   1      35.974  14.828   6.591  0.00  0.00     0.038 C 
HETATM    6  C   UNK N   1      34.822  14.915   7.588  0.00  0.00     0.229 C 
HETATM    7  C   UNK N   1      34.518  16.411   7.825  0.00  0.00     0.051 C 
HETATM    8  C   UNK N   1      33.531  17.073   6.806  0.00  0.00     0.029 C 
HETATM    9  C   UNK N   1      33.517  16.322   5.456  0.00  0.00     0.045 C 
ENDROOT
BRANCH   8  10
HETATM   10  C   UNK N   1      32.113  17.378   7.282  0.00  0.00    -0.052 A 
HETATM   11  C   UNK N   1      31.901  18.025   8.506  0.00  0.00     0.009 A 
HETATM   12  C   UNK N   1      30.608  18.353   8.925  0.00  0.00     0.026 A 
HETATM   13  C   UNK N   1      29.510  18.050   8.119  0.00  0.00     0.055 A 
HETATM   14  C   UNK N   1      29.707  17.420   6.881  0.00  0.00     0.056 A 
HETATM   15 Cl   UNK N   1      27.899  18.482   8.673  0.00  0.00    -0.083 Cl
HETATM   16  C   UNK N   1      31.001  17.094   6.470  0.00  0.00     0.033 A 
HETATM   17 Cl   UNK N   1      28.361  17.030   5.823  0.00  0.00    -0.083 Cl
ENDBRANCH   8  10
BRANCH   7  18
HETATM   18  C   UNK N   1      34.302  16.713   9.305  0.00  0.00     0.174 C 
BRANCH  18  19
HETATM   19  O   UNK N   1      35.451  17.274   9.865  0.00  0.00    -0.395 OA
HETATM   20  C   UNK N   1      35.742  16.476  10.970  0.00  0.00     0.201 C 
ENDBRANCH  18  19
ENDBRANCH   7  18
TORSDOF 3
ENDMDL
MODEL 4
REMARK VINA RESULT:      -6.1      3.443      4.716
REMARK  3 active torsions:
REMARK  status: ('A' for Active; 'I' for Inactive)
REMARK    1  A    between atoms: C_7  and  C_18 
REMARK    2  A    between atoms: C_8  and  C_10 
REMARK    3  A    between atoms: C_18  and  O_19 
ROOT
HETATM    1  C   UNK N   1      26.941  24.307  -3.413  0.00  0.00     0.310 C 
HETATM    2  N   UNK N   1      26.328  25.461  -4.061  0.00  0.00     0.094 N 
HETATM    3  C   UNK N   1      27.246  26.464  -4.605  0.00  0.00     0.223 C 
HETATM    4  C   UNK N   1      26.298  27.423  -5.295  0.00  0.00     0.038 C 
HETATM    5  C   UNK N   1      25.145  26.533  -5.761  0.00  0.00     0.038 C 
HETATM    6  C   UNK N   1      25.461  25.153  -5.192  0.00  0.00     0.229 C 
HETATM    7  C   UNK N   1      26.208  24.354  -6.283  0.00  0.00     0.051 C 
HETATM    8  C   UNK N   1      27.760  24.558  -6.330  0.00  0.00     0.029 C 
HETATM    9  C   UNK N   1      28.175  25.916  -5.719  0.00  0.00     0.045 C 
ENDROOT
BRANCH   8  10
HETATM   10  C   UNK N   1      28.645  23.427  -5.813  0.00  0.00    -0.052 A 
HETATM   11  C   UNK N   1      28.812  22.258  -6.567  0.00  0.00     0.009 A 
HETATM   12  C   UNK N   1      29.659  21.239  -6.123  0.00  0.00     0.026 A 
HETATM   13  C   UNK N   1      30.363  21.381  -4.927  0.00  0.00     0.055 A 
HETATM   14  C   UNK N   1      30.221  22.554  -4.170  0.00  0.00     0.056 A 
HETATM   15 Cl   UNK N   1      31.425  20.083  -4.402  0.00  0.00    -0.083 Cl
HETATM   16  C   UNK N   1      29.372  23.567  -4.618  0.00  0.00     0.033 A 
HETATM   17 Cl   UNK N   1      31.094  22.787  -2.664  0.00  0.00    -0.083 Cl
ENDBRANCH   8  10
BRANCH   7  18
HETATM   18  C   UNK N   1      25.688  22.924  -6.389  0.00  0.00     0.174 C 
BRANCH  18  19
HETATM   19  O   UNK N   1      24.836  22.792  -7.486  0.00  0.00    -0.395 OA
HETATM   20  C   UNK N   1      25.098  21.521  -7.997  0.00  0.00     0.201 C 
ENDBRANCH  18  19
ENDBRANCH   7  18
TORSDOF 3
ENDMDL
MODEL 5
REMARK VINA RESULT:      -6.0     23.555     26.530
REMARK  3 active torsions:
REMARK  status: ('A' for Active; 'I' for Inactive)
REMARK    1  A    between atoms: C_7  and  C_18 
REMARK    2  A    between atoms: C_8  and  C_10 
REMARK    3  A    between atoms: C_18  and  O_19 
ROOT
HETATM    1  C   UNK N   1      37.173  10.667  14.090  0.00  0.00     0.310 C 
HETATM    2  N   UNK N   1      36.617  10.509  12.752  0.00  0.00     0.094 N 
HETATM    3  C   UNK N   1      35.467   9.611  12.627  0.00  0.00     0.223 C 
HETATM    4  C   UNK N   1      35.083   9.784  11.173  0.00  0.00     0.038 C 
HETATM    5  C   UNK N   1      35.462  11.232  10.859  0.00  0.00     0.038 C 
HETATM    6  C   UNK N   1      36.151  11.739  12.123  0.00  0.00     0.229 C 
HETATM    7  C   UNK N   1      35.084  12.452  12.984  0.00  0.00     0.051 C 
HETATM    8  C   UNK N   1      34.262  11.530  13.946  0.00  0.00     0.029 C 
HETATM    9  C   UNK N   1      34.232  10.068  13.446  0.00  0.00     0.045 C 
ENDROOT
BRANCH   8  10
HETATM   10  C   UNK N   1      34.575  11.596  15.439  0.00  0.00    -0.052 A 
HETATM   11  C   UNK N   1      34.747  10.419  16.178  0.00  0.00     0.009 A 
HETATM   12  C   UNK N   1      35.082  10.472  17.535  0.00  0.00     0.026 A 
HETATM   13  C   UNK N   1      35.263  11.703  18.167  0.00  0.00     0.055 A 
HETATM   14  C   UNK N   1      35.112  12.890  17.435  0.00  0.00     0.056 A 
HETATM   15 Cl   UNK N   1      35.689  11.732  19.871  0.00  0.00    -0.083 Cl
HETATM   16  C   UNK N   1      34.777  12.830  16.081  0.00  0.00     0.033 A 
HETATM   17 Cl   UNK N   1      35.342  14.464  18.179  0.00  0.00    -0.083 Cl
ENDBRANCH   8  10
BRANCH   7  18
HETATM   18  C   UNK N   1      35.610  13.766  13.555  0.00  0.00     0.174 C 
BRANCH  18  19
HETATM   19  O   UNK N   1      36.523  14.352  12.678  0.00  0.00    -0.395 OA
HETATM   20  C   UNK N   1      35.810  15.364  12.036  0.00  0.00     0.201 C 
ENDBRANCH  18  19
ENDBRANCH   7  18
TORSDOF 3
ENDMDL
MODEL 6
REMARK VINA RESULT:      -5.9     24.837     27.560
REMARK  3 active torsions:
REMARK  status: ('A' for Active; 'I' for Inactive)
REMARK    1  A    between atoms: C_7  and  C_18 
REMARK    2  A    between atoms: C_8  and  C_10 
REMARK    3  A    between atoms: C_18  and  O_19 
ROOT
HETATM    1  C   UNK N   1      37.299  11.048  14.723  0.00  0.00     0.310 C 
HETATM    2  N   UNK N   1      36.696  11.738  13.589  0.00  0.00     0.094 N 
HETATM    3  C   UNK N   1      35.396  11.237  13.140  0.00  0.00     0.223 C 
HETATM    4  C   UNK N   1      35.021  12.237  12.067  0.00  0.00     0.038 C 
HETATM    5  C   UNK N   1      35.658  13.544  12.540  0.00  0.00     0.038 C 
HETATM    6  C   UNK N   1      36.455  13.163  13.784  0.00  0.00     0.229 C 
HETATM    7  C   UNK N   1      35.559  13.427  15.015  0.00  0.00     0.051 C 
HETATM    8  C   UNK N   1      34.599  12.259  15.419  0.00  0.00     0.029 C 
HETATM    9  C   UNK N   1      34.285  11.338  14.217  0.00  0.00     0.045 C 
ENDROOT
BRANCH   8  10
HETATM   10  C   UNK N   1      34.949  11.444  16.661  0.00  0.00    -0.052 A 
HETATM   11  C   UNK N   1      35.232  12.087  17.873  0.00  0.00     0.009 A 
HETATM   12  C   UNK N   1      35.505  11.346  19.027  0.00  0.00     0.026 A 
HETATM   13  C   UNK N   1      35.484   9.951  18.988  0.00  0.00     0.055 A 
HETATM   14  C   UNK N   1      35.183   9.292  17.786  0.00  0.00     0.056 A 
HETATM   15 Cl   UNK N   1      35.824   9.051  20.458  0.00  0.00    -0.083 Cl
HETATM   16  C   UNK N   1      34.913  10.038  16.637  0.00  0.00     0.033 A 
HETATM   17 Cl   UNK N   1      35.130   7.540  17.687  0.00  0.00    -0.083 Cl
ENDBRANCH   8  10
BRANCH   7  18
HETATM   18  C   UNK N   1      36.333  14.115  16.136  0.00  0.00     0.174 C 
BRANCH  18  19
HETATM   19  O   UNK N   1      37.507  14.687  15.643  0.00  0.00    -0.395 OA
HETATM   20  C   UNK N   1      37.481  16.008  16.088  0.00  0.00     0.201 C 
ENDBRANCH  18  19
ENDBRANCH   7  18
TORSDOF 3
ENDMDL
MODEL 7
REMARK VINA RESULT:      -5.6      2.578      3.530
REMARK  3 active torsions:
REMARK  status: ('A' for Active; 'I' for Inactive)
REMARK    1  A    between atoms: C_7  and  C_18 
REMARK    2  A    between atoms: C_8  and  C_10 
REMARK    3  A    between atoms: C_18  and  O_19 
ROOT
HETATM    1  C   UNK N   1      27.906  25.880  -7.198  0.00  0.00     0.310 C 
HETATM    2  N   UNK N   1      26.840  26.695  -6.628  0.00  0.00     0.094 N 
HETATM    3  C   UNK N   1      25.597  25.997  -6.292  0.00  0.00     0.223 C 
HETATM    4  C   UNK N   1      24.788  27.089  -5.626  0.00  0.00     0.038 C 
HETATM    5  C   UNK N   1      25.839  27.971  -4.953  0.00  0.00     0.038 C 
HETATM    6  C   UNK N   1      27.179  27.388  -5.391  0.00  0.00     0.229 C 
HETATM    7  C   UNK N   1      27.643  26.403  -4.294  0.00  0.00     0.051 C 
HETATM    8  C   UNK N   1      27.100  24.940  -4.422  0.00  0.00     0.029 C 
HETATM    9  C   UNK N   1      25.777  24.891  -5.220  0.00  0.00     0.045 C 
ENDROOT
BRANCH   8  10
HETATM   10  C   UNK N   1      28.067  23.857  -4.892  0.00  0.00    -0.052 A 
HETATM   11  C   UNK N   1      29.135  23.460  -4.076  0.00  0.00     0.009 A 
HETATM   12  C   UNK N   1      29.996  22.434  -4.478  0.00  0.00     0.026 A 
HETATM   13  C   UNK N   1      29.792  21.782  -5.695  0.00  0.00     0.055 A 
HETATM   14  C   UNK N   1      28.716  22.156  -6.514  0.00  0.00     0.056 A 
HETATM   15 Cl   UNK N   1      30.889  20.493  -6.166  0.00  0.00    -0.083 Cl
HETATM   16  C   UNK N   1      27.861  23.182  -6.107  0.00  0.00     0.033 A 
HETATM   17 Cl   UNK N   1      28.409  21.358  -8.048  0.00  0.00    -0.083 Cl
ENDBRANCH   8  10
BRANCH   7  18
HETATM   18  C   UNK N   1      29.126  26.572  -3.977  0.00  0.00     0.174 C 
BRANCH  18  19
HETATM   19  O   UNK N   1      29.449  27.924  -3.849  0.00  0.00    -0.395 OA
HETATM   20  C   UNK N   1      30.612  27.947  -3.080  0.00  0.00     0.201 C 
ENDBRANCH  18  19
ENDBRANCH   7  18
TORSDOF 3
ENDMDL
MODEL 8
REMARK VINA RESULT:      -5.5      1.986      2.446
REMARK  3 active torsions:
REMARK  status: ('A' for Active; 'I' for Inactive)
REMARK    1  A    between atoms: C_7  and  C_18 
REMARK    2  A    between atoms: C_8  and  C_10 
REMARK    3  A    between atoms: C_18  and  O_19 
ROOT
HETATM    1  C   UNK N   1      27.520  26.321  -7.281  0.00  0.00     0.310 C 
HETATM    2  N   UNK N   1      26.860  27.150  -6.280  0.00  0.00     0.094 N 
HETATM    3  C   UNK N   1      25.486  26.782  -5.933  0.00  0.00     0.223 C 
HETATM    4  C   UNK N   1      25.171  27.745  -4.808  0.00  0.00     0.038 C 
HETATM    5  C   UNK N   1      26.520  27.967  -4.122  0.00  0.00     0.038 C 
HETATM    6  C   UNK N   1      27.527  27.212  -4.985  0.00  0.00     0.229 C 
HETATM    7  C   UNK N   1      27.710  25.806  -4.370  0.00  0.00     0.051 C 
HETATM    8  C   UNK N   1      26.680  24.723  -4.835  0.00  0.00     0.029 C 
HETATM    9  C   UNK N   1      25.360  25.363  -5.320  0.00  0.00     0.045 C 
ENDROOT
BRANCH   8  10
HETATM   10  C   UNK N   1      27.163  23.649  -5.807  0.00  0.00    -0.052 A 
HETATM   11  C   UNK N   1      28.475  23.165  -5.732  0.00  0.00     0.009 A 
HETATM   12  C   UNK N   1      28.909  22.147  -6.587  0.00  0.00     0.026 A 
HETATM   13  C   UNK N   1      28.031  21.588  -7.518  0.00  0.00     0.055 A 
HETATM   14  C   UNK N   1      26.708  22.049  -7.591  0.00  0.00     0.056 A 
HETATM   15 Cl   UNK N   1      28.608  20.306  -8.571  0.00  0.00    -0.083 Cl
HETATM   16  C   UNK N   1      26.282  23.067  -6.736  0.00  0.00     0.033 A 
HETATM   17 Cl   UNK N   1      25.561  21.371  -8.735  0.00  0.00    -0.083 Cl
ENDBRANCH   8  10
BRANCH   7  18
HETATM   18  C   UNK N   1      29.180  25.399  -4.326  0.00  0.00     0.174 C 
BRANCH  18  19
HETATM   19  O   UNK N   1      30.002  26.504  -4.553  0.00  0.00    -0.395 OA
HETATM   20  C   UNK N   1      30.891  26.521  -3.478  0.00  0.00     0.201 C 
ENDBRANCH  18  19
ENDBRANCH   7  18
TORSDOF 3
ENDMDL
MODEL 9
REMARK VINA RESULT:      -5.4     15.057     16.825
REMARK  3 active torsions:
REMARK  status: ('A' for Active; 'I' for Inactive)
REMARK    1  A    between atoms: C_7  and  C_18 
REMARK    2  A    between atoms: C_8  and  C_10 
REMARK    3  A    between atoms: C_18  and  O_19 
ROOT
HETATM    1  C   UNK N   1      31.539  14.225   5.708  0.00  0.00     0.310 C 
HETATM    2  N   UNK N   1      32.542  14.199   4.650  0.00  0.00     0.094 N 
HETATM    3  C   UNK N   1      32.360  15.157   3.557  0.00  0.00     0.223 C 
HETATM    4  C   UNK N   1      33.613  14.945   2.735  0.00  0.00     0.038 C 
HETATM    5  C   UNK N   1      34.671  14.551   3.765  0.00  0.00     0.038 C 
HETATM    6  C   UNK N   1      33.912  14.445   5.085  0.00  0.00     0.229 C 
HETATM    7  C   UNK N   1      34.045  15.801   5.813  0.00  0.00     0.051 C 
HETATM    8  C   UNK N   1      32.984  16.885   5.428  0.00  0.00     0.029 C 
HETATM    9  C   UNK N   1      32.403  16.638   4.017  0.00  0.00     0.045 C 
ENDROOT
BRANCH   8  10
HETATM   10  C   UNK N   1      31.877  17.191   6.433  0.00  0.00    -0.052 A 
HETATM   11  C   UNK N   1      32.196  17.562   7.746  0.00  0.00     0.009 A 
HETATM   12  C   UNK N   1      31.189  17.892   8.659  0.00  0.00     0.026 A 
HETATM   13  C   UNK N   1      29.850  17.868   8.267  0.00  0.00     0.055 A 
HETATM   14  C   UNK N   1      29.515  17.517   6.950  0.00  0.00     0.056 A 
HETATM   15 Cl   UNK N   1      28.611  18.294   9.437  0.00  0.00    -0.083 Cl
HETATM   16  C   UNK N   1      30.526  17.187   6.045  0.00  0.00     0.033 A 
HETATM   17 Cl   UNK N   1      27.847  17.485   6.404  0.00  0.00    -0.083 Cl
ENDBRANCH   8  10
BRANCH   7  18
HETATM   18  C   UNK N   1      34.346  15.615   7.297  0.00  0.00     0.174 C 
BRANCH  18  19
HETATM   19  O   UNK N   1      34.465  14.259   7.608  0.00  0.00    -0.395 OA
HETATM   20  C   UNK N   1      33.791  14.104   8.818  0.00  0.00     0.201 C 
ENDBRANCH  18  19
ENDBRANCH   7  18
TORSDOF 3
ENDMDL
