MODEL 1
REMARK VINA RESULT:      -7.9      0.000      0.000
REMARK  13 active torsions:
REMARK  status: ('A' for Active; 'I' for Inactive)
REMARK    1  A    between atoms: O_1  and  C_9 
REMARK    2  A    between atoms: O_1  and  C_15 
REMARK    3  A    between atoms: O_2  and  C_8 
REMARK    4  A    between atoms: O_2  and  C_26 
REMARK    5  A    between atoms: O_3  and  C_18 
REMARK    6  A    between atoms: O_3  and  C_25 
REMARK    7  A    between atoms: O_5  and  C_33 
REMARK    8  A    between atoms: C_7  and  C_13 
REMARK    9  A    between atoms: C_13  and  C_16 
REMARK   10  A    between atoms: C_14  and  C_17 
REMARK   11  A    between atoms: C_15  and  C_23 
REMARK   12  A    between atoms: C_25  and  C_27 
REMARK   13  A    between atoms: C_26  and  C_33 
ROOT
HETATM    1  C   UNK N   1      33.174  17.718   7.327  0.00  0.00     0.047 A 
HETATM    2  C   UNK N   1      31.751  17.544   7.556  0.00  0.00     0.086 A 
HETATM    3  C   UNK N   1      31.460  17.086   5.146  0.00  0.00     0.071 A 
HETATM    4  C   UNK N   1      30.931  17.225   6.438  0.00  0.00     0.074 A 
HETATM    5  C   UNK N   1      33.636  17.568   6.015  0.00  0.00     0.021 A 
HETATM    6  C   UNK N   1      32.823  17.266   4.959  0.00  0.00     0.038 A 
ENDROOT
BRANCH   1   7
HETATM    7  C   UNK N   1      34.288  18.025   8.306  0.00  0.00     0.184 C 
HETATM    8  O   UNK N   1      34.938  19.046   8.315  0.00  0.00    -0.287 OA
BRANCH   7   9
HETATM    9  C   UNK N   1      34.508  17.000   9.346  0.00  0.00     0.056 C 
HETATM   10  C   UNK N   1      34.830  15.713   9.285  0.00  0.00     0.015 C 
BRANCH  10  11
HETATM   11  C   UNK N   1      35.055  15.042  10.586  0.00  0.00    -0.036 A 
HETATM   12  C   UNK N   1      34.680  13.711  10.775  0.00  0.00     0.014 A 
HETATM   13  C   UNK N   1      35.010  13.059  11.970  0.00  0.00     0.037 A 
HETATM   14  C   UNK N   1      35.712  13.734  12.988  0.00  0.00     0.069 A 
HETATM   15  C   UNK N   1      36.057  15.070  12.809  0.00  0.00     0.037 A 
HETATM   16  C   UNK N   1      35.741  15.716  11.618  0.00  0.00     0.014 A 
BRANCH  14  17
HETATM   17  O   UNK N   1      36.092  13.116  14.133  0.00  0.00    -0.347 OA
BRANCH  17  18
HETATM   18  C   UNK N   1      35.229  12.444  14.971  0.00  0.00     0.203 C 
BRANCH  18  19
HETATM   19  C   UNK N   1      35.087  13.158  16.279  0.00  0.00     0.001 C 
HETATM   20  C   UNK N   1      35.269  12.538  17.450  0.00  0.00    -0.089 C 
HETATM   21  C   UNK N   1      35.117  13.315  18.710  0.00  0.00     0.042 C 
HETATM   22  C   UNK N   1      35.616  11.085  17.529  0.00  0.00     0.042 C 
ENDBRANCH  18  19
ENDBRANCH  17  18
ENDBRANCH  14  17
ENDBRANCH  10  11
ENDBRANCH   7   9
ENDBRANCH   1   7
BRANCH   2  23
HETATM   23  O   UNK N   1      31.110  17.660   8.749  0.00  0.00    -0.340 OA
BRANCH  23  24
HETATM   24  C   UNK N   1      30.257  18.661   9.146  0.00  0.00     0.285 C 
BRANCH  24  25
HETATM   25  C   UNK N   1      28.859  18.164   9.326  0.00  0.00     0.164 C 
HETATM   26  O   UNK N   1      28.667  17.119   9.928  0.00  0.00    -0.648 OA
BRANCH  25  27
HETATM   27  O   UNK N   1      27.812  18.851   8.832  0.00  0.00    -0.775 OA
HETATM   28  H   UNK N   1      27.668  18.907   7.908  0.00  0.00     0.167 HD
ENDBRANCH  25  27
ENDBRANCH  24  25
ENDBRANCH  23  24
ENDBRANCH   2  23
BRANCH   3  29
HETATM   29  O   UNK N   1      30.678  16.783   4.075  0.00  0.00    -0.347 OA
BRANCH  29  30
HETATM   30  C   UNK N   1      29.376  16.363   4.290  0.00  0.00     0.203 C 
BRANCH  30  31
HETATM   31  C   UNK N   1      28.327  17.270   3.747  0.00  0.00     0.001 C 
HETATM   32  C   UNK N   1      27.235  17.545   4.478  0.00  0.00    -0.089 C 
HETATM   33  C   UNK N   1      26.192  18.452   3.932  0.00  0.00     0.042 C 
HETATM   34  C   UNK N   1      27.035  16.960   5.846  0.00  0.00     0.042 C 
ENDBRANCH  30  31
ENDBRANCH  29  30
ENDBRANCH   3  29
TORSDOF 13
ENDMDL
MODEL 2
REMARK VINA RESULT:      -7.9      1.674      3.528
REMARK  13 active torsions:
REMARK  status: ('A' for Active; 'I' for Inactive)
REMARK    1  A    between atoms: O_1  and  C_9 
REMARK    2  A    between atoms: O_1  and  C_15 
REMARK    3  A    between atoms: O_2  and  C_8 
REMARK    4  A    between atoms: O_2  and  C_26 
REMARK    5  A    between atoms: O_3  and  C_18 
REMARK    6  A    between atoms: O_3  and  C_25 
REMARK    7  A    between atoms: O_5  and  C_33 
REMARK    8  A    between atoms: C_7  and  C_13 
REMARK    9  A    between atoms: C_13  and  C_16 
REMARK   10  A    between atoms: C_14  and  C_17 
REMARK   11  A    between atoms: C_15  and  C_23 
REMARK   12  A    between atoms: C_25  and  C_27 
REMARK   13  A    between atoms: C_26  and  C_33 
ROOT
HETATM    1  C   UNK N   1      32.813  17.553   7.610  0.00  0.00     0.047 A 
HETATM    2  C   UNK N   1      32.471  17.242   6.234  0.00  0.00     0.086 A 
HETATM    3  C   UNK N   1      30.082  17.274   6.862  0.00  0.00     0.071 A 
HETATM    4  C   UNK N   1      31.094  17.114   5.902  0.00  0.00     0.074 A 
HETATM    5  C   UNK N   1      31.757  17.697   8.517  0.00  0.00     0.021 A 
HETATM    6  C   UNK N   1      30.442  17.563   8.170  0.00  0.00     0.038 A 
ENDROOT
BRANCH   1   7
HETATM    7  C   UNK N   1      34.166  17.778   8.251  0.00  0.00     0.184 C 
HETATM    8  O   UNK N   1      34.901  18.709   8.007  0.00  0.00    -0.287 OA
BRANCH   7   9
HETATM    9  C   UNK N   1      34.535  16.799   9.293  0.00  0.00     0.056 C 
HETATM   10  C   UNK N   1      34.804  15.500   9.250  0.00  0.00     0.015 C 
BRANCH  10  11
HETATM   11  C   UNK N   1      35.235  14.886  10.526  0.00  0.00    -0.036 A 
HETATM   12  C   UNK N   1      35.801  15.666  11.536  0.00  0.00     0.014 A 
HETATM   13  C   UNK N   1      36.091  15.090  12.780  0.00  0.00     0.037 A 
HETATM   14  C   UNK N   1      35.823  13.727  13.021  0.00  0.00     0.069 A 
HETATM   15  C   UNK N   1      35.288  12.946  12.002  0.00  0.00     0.037 A 
HETATM   16  C   UNK N   1      34.989  13.519  10.771  0.00  0.00     0.014 A 
BRANCH  14  17
HETATM   17  O   UNK N   1      36.043  13.152  14.229  0.00  0.00    -0.347 OA
BRANCH  17  18
HETATM   18  C   UNK N   1      35.232  13.334  15.328  0.00  0.00     0.203 C 
BRANCH  18  19
HETATM   19  C   UNK N   1      35.320  12.163  16.257  0.00  0.00     0.001 C 
HETATM   20  C   UNK N   1      35.268  12.304  17.586  0.00  0.00    -0.089 C 
HETATM   21  C   UNK N   1      35.355  11.093  18.446  0.00  0.00     0.042 C 
HETATM   22  C   UNK N   1      35.130  13.647  18.232  0.00  0.00     0.042 C 
ENDBRANCH  18  19
ENDBRANCH  17  18
ENDBRANCH  14  17
ENDBRANCH  10  11
ENDBRANCH   7   9
ENDBRANCH   1   7
BRANCH   2  23
HETATM   23  O   UNK N   1      33.348  17.052   5.212  0.00  0.00    -0.340 OA
BRANCH  23  24
HETATM   24  C   UNK N   1      33.548  15.905   4.484  0.00  0.00     0.285 C 
BRANCH  24  25
HETATM   25  C   UNK N   1      33.230  16.099   3.036  0.00  0.00     0.164 C 
HETATM   26  O   UNK N   1      33.731  15.355   2.208  0.00  0.00    -0.648 OA
BRANCH  25  27
HETATM   27  O   UNK N   1      32.404  17.084   2.636  0.00  0.00    -0.775 OA
HETATM   28  H   UNK N   1      32.654  17.983   2.721  0.00  0.00     0.167 HD
ENDBRANCH  25  27
ENDBRANCH  24  25
ENDBRANCH  23  24
ENDBRANCH   2  23
BRANCH   3  29
HETATM   29  O   UNK N   1      28.764  17.150   6.548  0.00  0.00    -0.347 OA
BRANCH  29  30
HETATM   30  C   UNK N   1      28.184  18.082   5.702  0.00  0.00     0.203 C 
BRANCH  30  31
HETATM   31  C   UNK N   1      27.833  19.378   6.346  0.00  0.00     0.001 C 
HETATM   32  C   UNK N   1      27.299  20.367   5.612  0.00  0.00    -0.089 C 
HETATM   33  C   UNK N   1      26.950  21.659   6.261  0.00  0.00     0.042 C 
HETATM   34  C   UNK N   1      27.040  20.207   4.143  0.00  0.00     0.042 C 
ENDBRANCH  30  31
ENDBRANCH  29  30
ENDBRANCH   3  29
TORSDOF 13
ENDMDL
MODEL 3
REMARK VINA RESULT:      -7.9      5.470     10.578
REMARK  13 active torsions:
REMARK  status: ('A' for Active; 'I' for Inactive)
REMARK    1  A    between atoms: O_1  and  C_9 
REMARK    2  A    between atoms: O_1  and  C_15 
REMARK    3  A    between atoms: O_2  and  C_8 
REMARK    4  A    between atoms: O_2  and  C_26 
REMARK    5  A    between atoms: O_3  and  C_18 
REMARK    6  A    between atoms: O_3  and  C_25 
REMARK    7  A    between atoms: O_5  and  C_33 
REMARK    8  A    between atoms: C_7  and  C_13 
REMARK    9  A    between atoms: C_13  and  C_16 
REMARK   10  A    between atoms: C_14  and  C_17 
REMARK   11  A    between atoms: C_15  and  C_23 
REMARK   12  A    between atoms: C_25  and  C_27 
REMARK   13  A    between atoms: C_26  and  C_33 
ROOT
HETATM    1  C   UNK N   1      23.114  18.941   3.692  0.00  0.00     0.047 A 
HETATM    2  C   UNK N   1      21.696  19.220   3.551  0.00  0.00     0.086 A 
HETATM    3  C   UNK N   1      21.209  16.914   4.289  0.00  0.00     0.071 A 
HETATM    4  C   UNK N   1      20.778  18.180   3.864  0.00  0.00     0.074 A 
HETATM    5  C   UNK N   1      23.476  17.658   4.118  0.00  0.00     0.021 A 
HETATM    6  C   UNK N   1      22.571  16.677   4.406  0.00  0.00     0.038 A 
ENDROOT
BRANCH   1   7
HETATM    7  C   UNK N   1      24.311  19.841   3.467  0.00  0.00     0.184 C 
HETATM    8  O   UNK N   1      24.313  20.825   2.762  0.00  0.00    -0.287 OA
BRANCH   7   9
HETATM    9  C   UNK N   1      25.516  19.485   4.244  0.00  0.00     0.056 C 
HETATM   10  C   UNK N   1      26.764  19.935   4.221  0.00  0.00     0.015 C 
BRANCH  10  11
HETATM   11  C   UNK N   1      27.672  19.375   5.247  0.00  0.00    -0.036 A 
HETATM   12  C   UNK N   1      27.532  19.726   6.591  0.00  0.00     0.014 A 
HETATM   13  C   UNK N   1      28.320  19.094   7.561  0.00  0.00     0.037 A 
HETATM   14  C   UNK N   1      29.262  18.111   7.194  0.00  0.00     0.069 A 
HETATM   15  C   UNK N   1      29.421  17.787   5.851  0.00  0.00     0.037 A 
HETATM   16  C   UNK N   1      28.630  18.404   4.888  0.00  0.00     0.014 A 
BRANCH  14  17
HETATM   17  O   UNK N   1      30.002  17.444   8.113  0.00  0.00    -0.347 OA
BRANCH  17  18
HETATM   18  C   UNK N   1      31.119  16.696   7.809  0.00  0.00     0.203 C 
BRANCH  18  19
HETATM   19  C   UNK N   1      32.358  17.342   8.344  0.00  0.00     0.001 C 
HETATM   20  C   UNK N   1      33.356  17.735   7.545  0.00  0.00    -0.089 C 
HETATM   21  C   UNK N   1      34.555  18.376   8.148  0.00  0.00     0.042 C 
HETATM   22  C   UNK N   1      33.302  17.545   6.062  0.00  0.00     0.042 C 
ENDBRANCH  18  19
ENDBRANCH  17  18
ENDBRANCH  14  17
ENDBRANCH  10  11
ENDBRANCH   7   9
ENDBRANCH   1   7
BRANCH   2  23
HETATM   23  O   UNK N   1      21.146  20.394   3.140  0.00  0.00    -0.340 OA
BRANCH  23  24
HETATM   24  C   UNK N   1      20.174  20.573   2.186  0.00  0.00     0.285 C 
BRANCH  24  25
HETATM   25  C   UNK N   1      20.711  21.236   0.959  0.00  0.00     0.164 C 
HETATM   26  O   UNK N   1      21.323  20.572   0.138  0.00  0.00    -0.648 OA
BRANCH  25  27
HETATM   27  O   UNK N   1      20.532  22.554   0.751  0.00  0.00    -0.775 OA
HETATM   28  H   UNK N   1      20.084  23.083   1.382  0.00  0.00     0.167 HD
ENDBRANCH  25  27
ENDBRANCH  24  25
ENDBRANCH  23  24
ENDBRANCH   2  23
BRANCH   3  29
HETATM   29  O   UNK N   1      20.333  15.916   4.588  0.00  0.00    -0.347 OA
BRANCH  29  30
HETATM   30  C   UNK N   1      19.471  15.462   3.603  0.00  0.00     0.203 C 
BRANCH  30  31
HETATM   31  C   UNK N   1      19.983  14.315   2.803  0.00  0.00     0.001 C 
HETATM   32  C   UNK N   1      20.393  14.510   1.540  0.00  0.00    -0.089 C 
HETATM   33  C   UNK N   1      20.904  13.362   0.746  0.00  0.00     0.042 C 
HETATM   34  C   UNK N   1      20.352  15.867   0.899  0.00  0.00     0.042 C 
ENDBRANCH  30  31
ENDBRANCH  29  30
ENDBRANCH   3  29
TORSDOF 13
ENDMDL
MODEL 4
REMARK VINA RESULT:      -7.8      1.654      2.588
REMARK  13 active torsions:
REMARK  status: ('A' for Active; 'I' for Inactive)
REMARK    1  A    between atoms: O_1  and  C_9 
REMARK    2  A    between atoms: O_1  and  C_15 
REMARK    3  A    between atoms: O_2  and  C_8 
REMARK    4  A    between atoms: O_2  and  C_26 
REMARK    5  A    between atoms: O_3  and  C_18 
REMARK    6  A    between atoms: O_3  and  C_25 
REMARK    7  A    between atoms: O_5  and  C_33 
REMARK    8  A    between atoms: C_7  and  C_13 
REMARK    9  A    between atoms: C_13  and  C_16 
REMARK   10  A    between atoms: C_14  and  C_17 
REMARK   11  A    between atoms: C_15  and  C_23 
REMARK   12  A    between atoms: C_25  and  C_27 
REMARK   13  A    between atoms: C_26  and  C_33 
ROOT
HETATM    1  C   UNK N   1      33.293  17.682   7.257  0.00  0.00     0.047 A 
HETATM    2  C   UNK N   1      31.867  17.464   7.421  0.00  0.00     0.086 A 
HETATM    3  C   UNK N   1      31.706  16.963   5.007  0.00  0.00     0.071 A 
HETATM    4  C   UNK N   1      31.111  17.103   6.271  0.00  0.00     0.074 A 
HETATM    5  C   UNK N   1      33.821  17.529   5.970  0.00  0.00     0.021 A 
HETATM    6  C   UNK N   1      33.070  17.186   4.882  0.00  0.00     0.038 A 
ENDROOT
BRANCH   1   7
HETATM    7  C   UNK N   1      34.348  18.039   8.281  0.00  0.00     0.184 C 
HETATM    8  O   UNK N   1      34.924  19.103   8.339  0.00  0.00    -0.287 OA
BRANCH   7   9
HETATM    9  C   UNK N   1      34.605  17.004   9.304  0.00  0.00     0.056 C 
HETATM   10  C   UNK N   1      34.435  15.687   9.310  0.00  0.00     0.015 C 
BRANCH  10  11
HETATM   11  C   UNK N   1      34.913  14.981  10.520  0.00  0.00    -0.036 A 
HETATM   12  C   UNK N   1      34.918  13.586  10.576  0.00  0.00     0.014 A 
HETATM   13  C   UNK N   1      35.486  12.936  11.679  0.00  0.00     0.037 A 
HETATM   14  C   UNK N   1      36.046  13.676  12.740  0.00  0.00     0.069 A 
HETATM   15  C   UNK N   1      36.011  15.066  12.696  0.00  0.00     0.037 A 
HETATM   16  C   UNK N   1      35.460  15.713  11.595  0.00  0.00     0.014 A 
BRANCH  14  17
HETATM   17  O   UNK N   1      36.650  13.078  13.796  0.00  0.00    -0.347 OA
BRANCH  17  18
HETATM   18  C   UNK N   1      36.423  13.421  15.111  0.00  0.00     0.203 C 
BRANCH  18  19
HETATM   19  C   UNK N   1      36.082  12.215  15.929  0.00  0.00     0.001 C 
HETATM   20  C   UNK N   1      35.490  12.310  17.124  0.00  0.00    -0.089 C 
HETATM   21  C   UNK N   1      35.176  11.066  17.877  0.00  0.00     0.042 C 
HETATM   22  C   UNK N   1      35.138  13.634  17.727  0.00  0.00     0.042 C 
ENDBRANCH  18  19
ENDBRANCH  17  18
ENDBRANCH  14  17
ENDBRANCH  10  11
ENDBRANCH   7   9
ENDBRANCH   1   7
BRANCH   2  23
HETATM   23  O   UNK N   1      31.167  17.576   8.581  0.00  0.00    -0.340 OA
BRANCH  23  24
HETATM   24  C   UNK N   1      29.891  17.134   8.833  0.00  0.00     0.285 C 
BRANCH  24  25
HETATM   25  C   UNK N   1      29.083  18.151   9.573  0.00  0.00     0.164 C 
HETATM   26  O   UNK N   1      29.649  18.955  10.297  0.00  0.00    -0.648 OA
BRANCH  25  27
HETATM   27  O   UNK N   1      27.743  18.189   9.453  0.00  0.00    -0.775 OA
HETATM   28  H   UNK N   1      27.341  18.471   8.655  0.00  0.00     0.167 HD
ENDBRANCH  25  27
ENDBRANCH  24  25
ENDBRANCH  23  24
ENDBRANCH   2  23
BRANCH   3  29
HETATM   29  O   UNK N   1      30.985  16.620   3.905  0.00  0.00    -0.347 OA
BRANCH  29  30
HETATM   30  C   UNK N   1      30.725  15.281   3.662  0.00  0.00     0.203 C 
BRANCH  30  31
HETATM   31  C   UNK N   1      31.868  14.514   3.093  0.00  0.00     0.001 C 
HETATM   32  C   UNK N   1      32.482  13.579   3.835  0.00  0.00    -0.089 C 
HETATM   33  C   UNK N   1      33.622  12.816   3.262  0.00  0.00     0.042 C 
HETATM   34  C   UNK N   1      32.047  13.277   5.240  0.00  0.00     0.042 C 
ENDBRANCH  30  31
ENDBRANCH  29  30
ENDBRANCH   3  29
TORSDOF 13
ENDMDL
MODEL 5
REMARK VINA RESULT:      -7.3      5.758     10.431
REMARK  13 active torsions:
REMARK  status: ('A' for Active; 'I' for Inactive)
REMARK    1  A    between atoms: O_1  and  C_9 
REMARK    2  A    between atoms: O_1  and  C_15 
REMARK    3  A    between atoms: O_2  and  C_8 
REMARK    4  A    between atoms: O_2  and  C_26 
REMARK    5  A    between atoms: O_3  and  C_18 
REMARK    6  A    between atoms: O_3  and  C_25 
REMARK    7  A    between atoms: O_5  and  C_33 
REMARK    8  A    between atoms: C_7  and  C_13 
REMARK    9  A    between atoms: C_13  and  C_16 
REMARK   10  A    between atoms: C_14  and  C_17 
REMARK   11  A    between atoms: C_15  and  C_23 
REMARK   12  A    between atoms: C_25  and  C_27 
REMARK   13  A    between atoms: C_26  and  C_33 
ROOT
HETATM    1  C   UNK N   1      23.286  18.386   4.316  0.00  0.00     0.047 A 
HETATM    2  C   UNK N   1      21.842  18.507   4.405  0.00  0.00     0.086 A 
HETATM    3  C   UNK N   1      21.696  16.060   4.707  0.00  0.00     0.071 A 
HETATM    4  C   UNK N   1      21.085  17.319   4.604  0.00  0.00     0.074 A 
HETATM    5  C   UNK N   1      23.830  17.102   4.423  0.00  0.00     0.021 A 
HETATM    6  C   UNK N   1      23.077  15.977   4.610  0.00  0.00     0.038 A 
ENDROOT
BRANCH   1   7
HETATM    7  C   UNK N   1      24.344  19.455   4.140  0.00  0.00     0.184 C 
HETATM    8  O   UNK N   1      24.166  20.520   3.592  0.00  0.00    -0.287 OA
BRANCH   7   9
HETATM    9  C   UNK N   1      25.649  19.152   4.761  0.00  0.00     0.056 C 
HETATM   10  C   UNK N   1      26.457  19.860   5.541  0.00  0.00     0.015 C 
BRANCH  10  11
HETATM   11  C   UNK N   1      27.655  19.149   6.044  0.00  0.00    -0.036 A 
HETATM   12  C   UNK N   1      28.004  19.207   7.394  0.00  0.00     0.014 A 
HETATM   13  C   UNK N   1      29.068  18.431   7.871  0.00  0.00     0.037 A 
HETATM   14  C   UNK N   1      29.797  17.597   7.000  0.00  0.00     0.069 A 
HETATM   15  C   UNK N   1      29.467  17.566   5.649  0.00  0.00     0.037 A 
HETATM   16  C   UNK N   1      28.402  18.325   5.176  0.00  0.00     0.014 A 
BRANCH  14  17
HETATM   17  O   UNK N   1      30.798  16.795   7.440  0.00  0.00    -0.347 OA
BRANCH  17  18
HETATM   18  C   UNK N   1      32.135  17.024   7.195  0.00  0.00     0.203 C 
BRANCH  18  19
HETATM   19  C   UNK N   1      32.686  16.009   6.243  0.00  0.00     0.001 C 
HETATM   20  C   UNK N   1      33.049  16.327   4.996  0.00  0.00    -0.089 C 
HETATM   21  C   UNK N   1      33.594  15.265   4.108  0.00  0.00     0.042 C 
HETATM   22  C   UNK N   1      32.916  17.720   4.467  0.00  0.00     0.042 C 
ENDBRANCH  18  19
ENDBRANCH  17  18
ENDBRANCH  14  17
ENDBRANCH  10  11
ENDBRANCH   7   9
ENDBRANCH   1   7
BRANCH   2  23
HETATM   23  O   UNK N   1      21.125  19.658   4.311  0.00  0.00    -0.340 OA
BRANCH  23  24
HETATM   24  C   UNK N   1      20.378  20.094   3.244  0.00  0.00     0.285 C 
BRANCH  24  25
HETATM   25  C   UNK N   1      21.196  20.884   2.274  0.00  0.00     0.164 C 
HETATM   26  O   UNK N   1      21.215  20.556   1.098  0.00  0.00    -0.648 OA
BRANCH  25  27
HETATM   27  O   UNK N   1      21.913  21.949   2.681  0.00  0.00    -0.775 OA
HETATM   28  H   UNK N   1      21.770  22.328   3.526  0.00  0.00     0.167 HD
ENDBRANCH  25  27
ENDBRANCH  24  25
ENDBRANCH  23  24
ENDBRANCH   2  23
BRANCH   3  29
HETATM   29  O   UNK N   1      20.974  14.921   4.896  0.00  0.00    -0.347 OA
BRANCH  29  30
HETATM   30  C   UNK N   1      20.063  14.868   5.938  0.00  0.00     0.203 C 
BRANCH  30  31
HETATM   31  C   UNK N   1      20.563  14.206   7.174  0.00  0.00     0.001 C 
HETATM   32  C   UNK N   1      20.708  14.917   8.304  0.00  0.00    -0.089 C 
HETATM   33  C   UNK N   1      21.207  14.251   9.536  0.00  0.00     0.042 C 
HETATM   34  C   UNK N   1      20.376  16.380   8.361  0.00  0.00     0.042 C 
ENDBRANCH  30  31
ENDBRANCH  29  30
ENDBRANCH   3  29
TORSDOF 13
ENDMDL
MODEL 6
REMARK VINA RESULT:      -7.3     14.268     18.130
REMARK  13 active torsions:
REMARK  status: ('A' for Active; 'I' for Inactive)
REMARK    1  A    between atoms: O_1  and  C_9 
REMARK    2  A    between atoms: O_1  and  C_15 
REMARK    3  A    between atoms: O_2  and  C_8 
REMARK    4  A    between atoms: O_2  and  C_26 
REMARK    5  A    between atoms: O_3  and  C_18 
REMARK    6  A    between atoms: O_3  and  C_25 
REMARK    7  A    between atoms: O_5  and  C_33 
REMARK    8  A    between atoms: C_7  and  C_13 
REMARK    9  A    between atoms: C_13  and  C_16 
REMARK   10  A    between atoms: C_14  and  C_17 
REMARK   11  A    between atoms: C_15  and  C_23 
REMARK   12  A    between atoms: C_25  and  C_27 
REMARK   13  A    between atoms: C_26  and  C_33 
ROOT
HETATM    1  C   UNK N   1      26.114  24.575  -5.252  0.00  0.00     0.047 A 
HETATM    2  C   UNK N   1      26.915  24.828  -4.069  0.00  0.00     0.086 A 
HETATM    3  C   UNK N   1      25.927  27.087  -3.929  0.00  0.00     0.071 A 
HETATM    4  C   UNK N   1      26.789  26.096  -3.436  0.00  0.00     0.074 A 
HETATM    5  C   UNK N   1      25.277  25.607  -5.693  0.00  0.00     0.021 A 
HETATM    6  C   UNK N   1      25.180  26.818  -5.067  0.00  0.00     0.038 A 
ENDROOT
BRANCH   1   7
HETATM    7  C   UNK N   1      26.009  23.334  -6.111  0.00  0.00     0.184 C 
HETATM    8  O   UNK N   1      24.973  22.872  -6.537  0.00  0.00    -0.287 OA
BRANCH   7   9
HETATM    9  C   UNK N   1      27.300  22.721  -6.487  0.00  0.00     0.056 C 
HETATM   10  C   UNK N   1      28.351  23.181  -7.154  0.00  0.00     0.015 C 
BRANCH  10  11
HETATM   11  C   UNK N   1      29.512  22.266  -7.239  0.00  0.00    -0.036 A 
HETATM   12  C   UNK N   1      30.760  22.735  -7.652  0.00  0.00     0.014 A 
HETATM   13  C   UNK N   1      31.872  21.885  -7.609  0.00  0.00     0.037 A 
HETATM   14  C   UNK N   1      31.743  20.554  -7.160  0.00  0.00     0.069 A 
HETATM   15  C   UNK N   1      30.492  20.081  -6.779  0.00  0.00     0.037 A 
HETATM   16  C   UNK N   1      29.390  20.928  -6.809  0.00  0.00     0.014 A 
BRANCH  14  17
HETATM   17  O   UNK N   1      32.809  19.722  -7.057  0.00  0.00    -0.347 OA
BRANCH  17  18
HETATM   18  C   UNK N   1      33.929  19.993  -6.302  0.00  0.00     0.203 C 
BRANCH  18  19
HETATM   19  C   UNK N   1      33.601  20.006  -4.842  0.00  0.00     0.001 C 
HETATM   20  C   UNK N   1      33.602  21.134  -4.123  0.00  0.00    -0.089 C 
HETATM   21  C   UNK N   1      33.259  21.069  -2.677  0.00  0.00     0.042 C 
HETATM   22  C   UNK N   1      33.943  22.457  -4.732  0.00  0.00     0.042 C 
ENDBRANCH  18  19
ENDBRANCH  17  18
ENDBRANCH  14  17
ENDBRANCH  10  11
ENDBRANCH   7   9
ENDBRANCH   1   7
BRANCH   2  23
HETATM   23  O   UNK N   1      27.794  23.963  -3.495  0.00  0.00    -0.340 OA
BRANCH  23  24
HETATM   24  C   UNK N   1      29.162  24.076  -3.437  0.00  0.00     0.285 C 
BRANCH  24  25
HETATM   25  C   UNK N   1      29.788  22.918  -2.731  0.00  0.00     0.164 C 
HETATM   26  O   UNK N   1      29.826  21.829  -3.283  0.00  0.00    -0.648 OA
BRANCH  25  27
HETATM   27  O   UNK N   1      30.308  23.059  -1.497  0.00  0.00    -0.775 OA
HETATM   28  H   UNK N   1      30.623  23.891  -1.202  0.00  0.00     0.167 HD
ENDBRANCH  25  27
ENDBRANCH  24  25
ENDBRANCH  23  24
ENDBRANCH   2  23
BRANCH   3  29
HETATM   29  O   UNK N   1      25.805  28.302  -3.327  0.00  0.00    -0.347 OA
BRANCH  29  30
HETATM   30  C   UNK N   1      26.849  29.207  -3.421  0.00  0.00     0.203 C 
BRANCH  30  31
HETATM   31  C   UNK N   1      27.181  29.639  -4.807  0.00  0.00     0.001 C 
HETATM   32  C   UNK N   1      28.352  29.284  -5.357  0.00  0.00    -0.089 C 
HETATM   33  C   UNK N   1      28.678  29.717  -6.742  0.00  0.00     0.042 C 
HETATM   34  C   UNK N   1      29.354  28.453  -4.610  0.00  0.00     0.042 C 
ENDBRANCH  30  31
ENDBRANCH  29  30
ENDBRANCH   3  29
TORSDOF 13
ENDMDL
MODEL 7
REMARK VINA RESULT:      -7.3      2.437      4.157
REMARK  13 active torsions:
REMARK  status: ('A' for Active; 'I' for Inactive)
REMARK    1  A    between atoms: O_1  and  C_9 
REMARK    2  A    between atoms: O_1  and  C_15 
REMARK    3  A    between atoms: O_2  and  C_8 
REMARK    4  A    between atoms: O_2  and  C_26 
REMARK    5  A    between atoms: O_3  and  C_18 
REMARK    6  A    between atoms: O_3  and  C_25 
REMARK    7  A    between atoms: O_5  and  C_33 
REMARK    8  A    between atoms: C_7  and  C_13 
REMARK    9  A    between atoms: C_13  and  C_16 
REMARK   10  A    between atoms: C_14  and  C_17 
REMARK   11  A    between atoms: C_15  and  C_23 
REMARK   12  A    between atoms: C_25  and  C_27 
REMARK   13  A    between atoms: C_26  and  C_33 
ROOT
HETATM    1  C   UNK N   1      32.986  17.729   7.693  0.00  0.00     0.047 A 
HETATM    2  C   UNK N   1      32.702  17.328   6.326  0.00  0.00     0.086 A 
HETATM    3  C   UNK N   1      30.291  17.367   6.857  0.00  0.00     0.071 A 
HETATM    4  C   UNK N   1      31.341  17.161   5.949  0.00  0.00     0.074 A 
HETATM    5  C   UNK N   1      31.893  17.914   8.547  0.00  0.00     0.021 A 
HETATM    6  C   UNK N   1      30.595  17.742   8.158  0.00  0.00     0.038 A 
ENDROOT
BRANCH   1   7
HETATM    7  C   UNK N   1      34.310  18.011   8.371  0.00  0.00     0.184 C 
HETATM    8  O   UNK N   1      34.937  19.041   8.261  0.00  0.00    -0.287 OA
BRANCH   7   9
HETATM    9  C   UNK N   1      34.789  16.946   9.275  0.00  0.00     0.056 C 
HETATM   10  C   UNK N   1      34.742  15.622   9.207  0.00  0.00     0.015 C 
BRANCH  10  11
HETATM   11  C   UNK N   1      35.435  14.894  10.295  0.00  0.00    -0.036 A 
HETATM   12  C   UNK N   1      34.851  14.771  11.556  0.00  0.00     0.014 A 
HETATM   13  C   UNK N   1      35.466  13.978  12.533  0.00  0.00     0.037 A 
HETATM   14  C   UNK N   1      36.674  13.306  12.259  0.00  0.00     0.069 A 
HETATM   15  C   UNK N   1      37.270  13.456  11.010  0.00  0.00     0.037 A 
HETATM   16  C   UNK N   1      36.654  14.233  10.035  0.00  0.00     0.014 A 
BRANCH  14  17
HETATM   17  O   UNK N   1      37.267  12.490  13.164  0.00  0.00    -0.347 OA
BRANCH  17  18
HETATM   18  C   UNK N   1      37.520  11.153  12.948  0.00  0.00     0.203 C 
BRANCH  18  19
HETATM   19  C   UNK N   1      36.248  10.363  12.934  0.00  0.00     0.001 C 
HETATM   20  C   UNK N   1      35.807   9.747  11.831  0.00  0.00    -0.089 C 
HETATM   21  C   UNK N   1      34.537   8.975  11.894  0.00  0.00     0.042 C 
HETATM   22  C   UNK N   1      36.552   9.818  10.536  0.00  0.00     0.042 C 
ENDBRANCH  18  19
ENDBRANCH  17  18
ENDBRANCH  14  17
ENDBRANCH  10  11
ENDBRANCH   7   9
ENDBRANCH   1   7
BRANCH   2  23
HETATM   23  O   UNK N   1      33.621  17.087   5.354  0.00  0.00    -0.340 OA
BRANCH  23  24
HETATM   24  C   UNK N   1      33.868  15.897   4.713  0.00  0.00     0.285 C 
BRANCH  24  25
HETATM   25  C   UNK N   1      34.756  15.003   5.516  0.00  0.00     0.164 C 
HETATM   26  O   UNK N   1      35.850  15.409   5.875  0.00  0.00    -0.648 OA
BRANCH  25  27
HETATM   27  O   UNK N   1      34.366  13.757   5.845  0.00  0.00    -0.775 OA
HETATM   28  H   UNK N   1      34.842  13.257   6.479  0.00  0.00     0.167 HD
ENDBRANCH  25  27
ENDBRANCH  24  25
ENDBRANCH  23  24
ENDBRANCH   2  23
BRANCH   3  29
HETATM   29  O   UNK N   1      28.987  17.207   6.500  0.00  0.00    -0.347 OA
BRANCH  29  30
HETATM   30  C   UNK N   1      28.412  18.116   5.627  0.00  0.00     0.203 C 
BRANCH  30  31
HETATM   31  C   UNK N   1      27.937  19.377   6.260  0.00  0.00     0.001 C 
HETATM   32  C   UNK N   1      27.326  20.311   5.515  0.00  0.00    -0.089 C 
HETATM   33  C   UNK N   1      26.853  21.568   6.153  0.00  0.00     0.042 C 
HETATM   34  C   UNK N   1      27.102  20.123   4.043  0.00  0.00     0.042 C 
ENDBRANCH  30  31
ENDBRANCH  29  30
ENDBRANCH   3  29
TORSDOF 13
ENDMDL
MODEL 8
REMARK VINA RESULT:      -7.2      2.124      3.657
REMARK  13 active torsions:
REMARK  status: ('A' for Active; 'I' for Inactive)
REMARK    1  A    between atoms: O_1  and  C_9 
REMARK    2  A    between atoms: O_1  and  C_15 
REMARK    3  A    between atoms: O_2  and  C_8 
REMARK    4  A    between atoms: O_2  and  C_26 
REMARK    5  A    between atoms: O_3  and  C_18 
REMARK    6  A    between atoms: O_3  and  C_25 
REMARK    7  A    between atoms: O_5  and  C_33 
REMARK    8  A    between atoms: C_7  and  C_13 
REMARK    9  A    between atoms: C_13  and  C_16 
REMARK   10  A    between atoms: C_14  and  C_17 
REMARK   11  A    between atoms: C_15  and  C_23 
REMARK   12  A    between atoms: C_25  and  C_27 
REMARK   13  A    between atoms: C_26  and  C_33 
ROOT
HETATM    1  C   UNK N   1      32.773  17.550   7.624  0.00  0.00     0.047 A 
HETATM    2  C   UNK N   1      32.464  17.253   6.236  0.00  0.00     0.086 A 
HETATM    3  C   UNK N   1      30.060  17.315   6.799  0.00  0.00     0.071 A 
HETATM    4  C   UNK N   1      31.095  17.148   5.865  0.00  0.00     0.074 A 
HETATM    5  C   UNK N   1      31.694  17.702   8.502  0.00  0.00     0.021 A 
HETATM    6  C   UNK N   1      30.388  17.590   8.119  0.00  0.00     0.038 A 
ENDROOT
BRANCH   1   7
HETATM    7  C   UNK N   1      34.111  17.750   8.303  0.00  0.00     0.184 C 
HETATM    8  O   UNK N   1      34.853  18.687   8.107  0.00  0.00    -0.287 OA
BRANCH   7   9
HETATM    9  C   UNK N   1      34.454  16.737   9.321  0.00  0.00     0.056 C 
HETATM   10  C   UNK N   1      35.365  15.772   9.356  0.00  0.00     0.015 C 
BRANCH  10  11
HETATM   11  C   UNK N   1      35.456  15.014  10.625  0.00  0.00    -0.036 A 
HETATM   12  C   UNK N   1      36.055  15.580  11.751  0.00  0.00     0.014 A 
HETATM   13  C   UNK N   1      36.023  14.896  12.973  0.00  0.00     0.037 A 
HETATM   14  C   UNK N   1      35.398  13.637  13.077  0.00  0.00     0.069 A 
HETATM   15  C   UNK N   1      34.829  13.063  11.945  0.00  0.00     0.037 A 
HETATM   16  C   UNK N   1      34.849  13.746  10.734  0.00  0.00     0.014 A 
BRANCH  14  17
HETATM   17  O   UNK N   1      35.304  12.974  14.256  0.00  0.00    -0.347 OA
BRANCH  17  18
HETATM   18  C   UNK N   1      36.312  12.921  15.194  0.00  0.00     0.203 C 
BRANCH  18  19
HETATM   19  C   UNK N   1      36.382  11.568  15.829  0.00  0.00     0.001 C 
HETATM   20  C   UNK N   1      37.218  10.620  15.393  0.00  0.00    -0.089 C 
HETATM   21  C   UNK N   1      37.237   9.300  16.078  0.00  0.00     0.042 C 
HETATM   22  C   UNK N   1      38.133  10.849  14.231  0.00  0.00     0.042 C 
ENDBRANCH  18  19
ENDBRANCH  17  18
ENDBRANCH  14  17
ENDBRANCH  10  11
ENDBRANCH   7   9
ENDBRANCH   1   7
BRANCH   2  23
HETATM   23  O   UNK N   1      33.367  17.058   5.238  0.00  0.00    -0.340 OA
BRANCH  23  24
HETATM   24  C   UNK N   1      33.787  15.861   4.713  0.00  0.00     0.285 C 
BRANCH  24  25
HETATM   25  C   UNK N   1      34.658  15.107   5.666  0.00  0.00     0.164 C 
HETATM   26  O   UNK N   1      34.175  14.208   6.336  0.00  0.00    -0.648 OA
BRANCH  25  27
HETATM   27  O   UNK N   1      35.963  15.410   5.798  0.00  0.00    -0.775 OA
HETATM   28  H   UNK N   1      36.263  16.292   5.695  0.00  0.00     0.167 HD
ENDBRANCH  25  27
ENDBRANCH  24  25
ENDBRANCH  23  24
ENDBRANCH   2  23
BRANCH   3  29
HETATM   29  O   UNK N   1      28.749  17.213   6.447  0.00  0.00    -0.347 OA
BRANCH  29  30
HETATM   30  C   UNK N   1      28.202  18.168   5.605  0.00  0.00     0.203 C 
BRANCH  30  31
HETATM   31  C   UNK N   1      27.789  19.431   6.276  0.00  0.00     0.001 C 
HETATM   32  C   UNK N   1      27.220  20.414   5.561  0.00  0.00    -0.089 C 
HETATM   33  C   UNK N   1      26.809  21.673   6.236  0.00  0.00     0.042 C 
HETATM   34  C   UNK N   1      26.984  20.279   4.085  0.00  0.00     0.042 C 
ENDBRANCH  30  31
ENDBRANCH  29  30
ENDBRANCH   3  29
TORSDOF 13
ENDMDL
MODEL 9
REMARK VINA RESULT:      -7.1      2.420     10.350
REMARK  13 active torsions:
REMARK  status: ('A' for Active; 'I' for Inactive)
REMARK    1  A    between atoms: O_1  and  C_9 
REMARK    2  A    between atoms: O_1  and  C_15 
REMARK    3  A    between atoms: O_2  and  C_8 
REMARK    4  A    between atoms: O_2  and  C_26 
REMARK    5  A    between atoms: O_3  and  C_18 
REMARK    6  A    between atoms: O_3  and  C_25 
REMARK    7  A    between atoms: O_5  and  C_33 
REMARK    8  A    between atoms: C_7  and  C_13 
REMARK    9  A    between atoms: C_13  and  C_16 
REMARK   10  A    between atoms: C_14  and  C_17 
REMARK   11  A    between atoms: C_15  and  C_23 
REMARK   12  A    between atoms: C_25  and  C_27 
REMARK   13  A    between atoms: C_26  and  C_33 
ROOT
HETATM    1  C   UNK N   1      35.002  16.685   9.293  0.00  0.00     0.047 A 
HETATM    2  C   UNK N   1      35.305  15.335   8.853  0.00  0.00     0.086 A 
HETATM    3  C   UNK N   1      36.031  14.791  11.151  0.00  0.00     0.071 A 
HETATM    4  C   UNK N   1      35.814  14.419   9.815  0.00  0.00     0.074 A 
HETATM    5  C   UNK N   1      35.244  16.991  10.637  0.00  0.00     0.021 A 
HETATM    6  C   UNK N   1      35.738  16.091  11.538  0.00  0.00     0.038 A 
ENDROOT
BRANCH   1   7
HETATM    7  C   UNK N   1      34.429  17.856   8.523  0.00  0.00     0.184 C 
HETATM    8  O   UNK N   1      34.989  18.917   8.360  0.00  0.00    -0.287 OA
BRANCH   7   9
HETATM    9  C   UNK N   1      33.120  17.606   7.886  0.00  0.00     0.056 C 
HETATM   10  C   UNK N   1      32.071  16.875   8.246  0.00  0.00     0.015 C 
BRANCH  10  11
HETATM   11  C   UNK N   1      30.888  16.965   7.360  0.00  0.00    -0.036 A 
HETATM   12  C   UNK N   1      29.647  17.356   7.866  0.00  0.00     0.014 A 
HETATM   13  C   UNK N   1      28.571  17.551   6.992  0.00  0.00     0.037 A 
HETATM   14  C   UNK N   1      28.723  17.348   5.605  0.00  0.00     0.069 A 
HETATM   15  C   UNK N   1      29.953  16.927   5.109  0.00  0.00     0.037 A 
HETATM   16  C   UNK N   1      31.026  16.746   5.974  0.00  0.00     0.014 A 
BRANCH  14  17
HETATM   17  O   UNK N   1      27.716  17.579   4.728  0.00  0.00    -0.347 OA
BRANCH  17  18
HETATM   18  C   UNK N   1      27.616  18.710   3.948  0.00  0.00     0.203 C 
BRANCH  18  19
HETATM   19  C   UNK N   1      27.940  19.938   4.741  0.00  0.00     0.001 C 
HETATM   20  C   UNK N   1      27.005  20.617   5.414  0.00  0.00    -0.089 C 
HETATM   21  C   UNK N   1      27.404  21.824   6.186  0.00  0.00     0.042 C 
HETATM   22  C   UNK N   1      25.568  20.198   5.409  0.00  0.00     0.042 C 
ENDBRANCH  18  19
ENDBRANCH  17  18
ENDBRANCH  14  17
ENDBRANCH  10  11
ENDBRANCH   7   9
ENDBRANCH   1   7
BRANCH   2  23
HETATM   23  O   UNK N   1      35.153  14.850   7.592  0.00  0.00    -0.340 OA
BRANCH  23  24
HETATM   24  C   UNK N   1      35.900  13.876   6.976  0.00  0.00     0.285 C 
BRANCH  24  25
HETATM   25  C   UNK N   1      36.367  14.303   5.622  0.00  0.00     0.164 C 
HETATM   26  O   UNK N   1      37.423  14.905   5.515  0.00  0.00    -0.648 OA
BRANCH  25  27
HETATM   27  O   UNK N   1      35.637  14.035   4.522  0.00  0.00    -0.775 OA
HETATM   28  H   UNK N   1      35.182  14.719   4.071  0.00  0.00     0.167 HD
ENDBRANCH  25  27
ENDBRANCH  24  25
ENDBRANCH  23  24
ENDBRANCH   2  23
BRANCH   3  29
HETATM   29  O   UNK N   1      36.519  13.917  12.072  0.00  0.00    -0.347 OA
BRANCH  29  30
HETATM   30  C   UNK N   1      35.798  13.691  13.233  0.00  0.00     0.203 C 
BRANCH  30  31
HETATM   31  C   UNK N   1      34.977  12.449  13.227  0.00  0.00     0.001 C 
HETATM   32  C   UNK N   1      34.494  11.959  14.380  0.00  0.00    -0.089 C 
HETATM   33  C   UNK N   1      33.674  10.719  14.368  0.00  0.00     0.042 C 
HETATM   34  C   UNK N   1      34.760  12.634  15.695  0.00  0.00     0.042 C 
ENDBRANCH  30  31
ENDBRANCH  29  30
ENDBRANCH   3  29
TORSDOF 13
ENDMDL
