MODEL 1
REMARK VINA RESULT:      -6.4      0.000      0.000
REMARK  9 active torsions:
REMARK  status: ('A' for Active; 'I' for Inactive)
REMARK    1  A    between atoms: C_7  and  O_1 
REMARK    2  A    between atoms: O_2  and  C_13 
REMARK    3  A    between atoms: O_3  and  C_14 
REMARK    4  A    between atoms: O_4  and  C_17 
REMARK    5  A    between atoms: O_5  and  C_20 
REMARK    6  A    between atoms: O_6  and  C_18 
REMARK    7  A    between atoms: C_7  and  C_8 
REMARK    8  A    between atoms: C_7  and  C_9 
REMARK    9  A    between atoms: C_8  and  C_10 
ROOT
HETATM    1  C   UNK N   1      28.936  17.306   8.491  0.00  0.00     0.155 C 
ENDROOT
BRANCH   1   2
HETATM    2  O   UNK N   1      27.927  17.289   9.463  0.00  0.00    -0.391 OA
HETATM    3  H   UNK N   1      27.296  18.015   9.586  0.00  0.00     0.210 HD
ENDBRANCH   1   2
BRANCH   1   4
HETATM    4  C   UNK N   1      30.203  18.020   8.991  0.00  0.00     0.075 C 
BRANCH   4   5
HETATM    5  C   UNK N   1      31.450  17.530   8.340  0.00  0.00    -0.053 A 
HETATM    6  C   UNK N   1      32.598  18.323   8.340  0.00  0.00     0.046 A 
HETATM    7  C   UNK N   1      33.751  17.886   7.684  0.00  0.00     0.099 A 
HETATM    8  C   UNK N   1      33.761  16.646   7.024  0.00  0.00     0.101 A 
HETATM    9  C   UNK N   1      32.609  15.843   7.050  0.00  0.00     0.040 A 
HETATM   10  C   UNK N   1      31.462  16.281   7.709  0.00  0.00     0.010 A 
BRANCH   7  11
HETATM   11  O   UNK N   1      34.844  18.667   7.677  0.00  0.00    -0.358 OA
HETATM   12  H   UNK N   1      35.666  18.359   7.350  0.00  0.00     0.217 HD
ENDBRANCH   7  11
BRANCH   8  13
HETATM   13  O   UNK N   1      34.877  16.251   6.365  0.00  0.00    -0.353 OA
HETATM   14  C   UNK N   1      35.410  14.987   6.482  0.00  0.00     0.210 C 
ENDBRANCH   8  13
ENDBRANCH   4   5
ENDBRANCH   1   4
BRANCH   1  15
HETATM   15  C   UNK N   1      28.468  18.023   7.264  0.00  0.00    -0.024 A 
HETATM   16  C   UNK N   1      28.455  17.364   6.037  0.00  0.00     0.049 A 
HETATM   17  C   UNK N   1      28.077  18.040   4.865  0.00  0.00     0.104 A 
HETATM   18  C   UNK N   1      27.723  19.401   4.922  0.00  0.00     0.135 A 
HETATM   19  C   UNK N   1      27.733  20.075   6.174  0.00  0.00     0.104 A 
HETATM   20  C   UNK N   1      28.102  19.367   7.328  0.00  0.00     0.049 A 
BRANCH  17  21
HETATM   21  O   UNK N   1      28.060  17.400   3.671  0.00  0.00    -0.353 OA
HETATM   22  C   UNK N   1      29.099  16.618   3.216  0.00  0.00     0.210 C 
ENDBRANCH  17  21
BRANCH  18  23
HETATM   23  O   UNK N   1      27.389  20.016   3.753  0.00  0.00    -0.351 OA
HETATM   24  C   UNK N   1      26.109  20.245   3.304  0.00  0.00     0.210 C 
ENDBRANCH  18  23
BRANCH  19  25
HETATM   25  O   UNK N   1      27.401  21.387   6.262  0.00  0.00    -0.353 OA
HETATM   26  C   UNK N   1      26.231  21.840   6.830  0.00  0.00     0.210 C 
ENDBRANCH  19  25
ENDBRANCH   1  15
TORSDOF 9
ENDMDL
MODEL 2
REMARK VINA RESULT:      -6.4      0.624      2.667
REMARK  9 active torsions:
REMARK  status: ('A' for Active; 'I' for Inactive)
REMARK    1  A    between atoms: C_7  and  O_1 
REMARK    2  A    between atoms: O_2  and  C_13 
REMARK    3  A    between atoms: O_3  and  C_14 
REMARK    4  A    between atoms: O_4  and  C_17 
REMARK    5  A    between atoms: O_5  and  C_20 
REMARK    6  A    between atoms: O_6  and  C_18 
REMARK    7  A    between atoms: C_7  and  C_8 
REMARK    8  A    between atoms: C_7  and  C_9 
REMARK    9  A    between atoms: C_8  and  C_10 
ROOT
HETATM    1  C   UNK N   1      28.782  17.736   8.566  0.00  0.00     0.155 C 
ENDROOT
BRANCH   1   2
HETATM    2  O   UNK N   1      27.735  17.912   9.478  0.00  0.00    -0.391 OA
HETATM    3  H   UNK N   1      27.730  18.609  10.153  0.00  0.00     0.210 HD
ENDBRANCH   1   2
BRANCH   1   4
HETATM    4  C   UNK N   1      30.091  18.368   9.066  0.00  0.00     0.075 C 
BRANCH   4   5
HETATM    5  C   UNK N   1      31.310  17.651   8.596  0.00  0.00    -0.053 A 
HETATM    6  C   UNK N   1      32.457  18.368   8.258  0.00  0.00     0.046 A 
HETATM    7  C   UNK N   1      33.582  17.698   7.767  0.00  0.00     0.099 A 
HETATM    8  C   UNK N   1      33.561  16.302   7.615  0.00  0.00     0.101 A 
HETATM    9  C   UNK N   1      32.410  15.585   7.982  0.00  0.00     0.040 A 
HETATM   10  C   UNK N   1      31.293  16.257   8.474  0.00  0.00     0.010 A 
BRANCH   7  11
HETATM   11  O   UNK N   1      34.675  18.401   7.429  0.00  0.00    -0.358 OA
HETATM   12  H   UNK N   1      34.726  18.872   6.620  0.00  0.00     0.217 HD
ENDBRANCH   7  11
BRANCH   8  13
HETATM   13  O   UNK N   1      34.648  15.672   7.107  0.00  0.00    -0.353 OA
HETATM   14  C   UNK N   1      35.387  14.755   7.823  0.00  0.00     0.210 C 
ENDBRANCH   8  13
ENDBRANCH   4   5
ENDBRANCH   1   4
BRANCH   1  15
HETATM   15  C   UNK N   1      28.446  18.370   7.254  0.00  0.00    -0.024 A 
HETATM   16  C   UNK N   1      27.904  19.653   7.222  0.00  0.00     0.049 A 
HETATM   17  C   UNK N   1      27.525  20.240   6.004  0.00  0.00     0.104 A 
HETATM   18  C   UNK N   1      27.676  19.524   4.801  0.00  0.00     0.135 A 
HETATM   19  C   UNK N   1      28.232  18.215   4.831  0.00  0.00     0.104 A 
HETATM   20  C   UNK N   1      28.612  17.664   6.063  0.00  0.00     0.049 A 
BRANCH  17  21
HETATM   21  O   UNK N   1      27.000  21.489   5.969  0.00  0.00    -0.353 OA
HETATM   22  C   UNK N   1      26.163  21.986   6.945  0.00  0.00     0.210 C 
ENDBRANCH  17  21
BRANCH  18  23
HETATM   23  O   UNK N   1      27.269  20.129   3.650  0.00  0.00    -0.351 OA
HETATM   24  C   UNK N   1      25.995  20.095   3.133  0.00  0.00     0.210 C 
ENDBRANCH  18  23
BRANCH  19  25
HETATM   25  O   UNK N   1      28.386  17.498   3.692  0.00  0.00    -0.353 OA
HETATM   26  C   UNK N   1      27.631  16.388   3.382  0.00  0.00     0.210 C 
ENDBRANCH  19  25
ENDBRANCH   1  15
TORSDOF 9
ENDMDL
MODEL 3
REMARK VINA RESULT:      -6.1      3.596      5.584
REMARK  9 active torsions:
REMARK  status: ('A' for Active; 'I' for Inactive)
REMARK    1  A    between atoms: C_7  and  O_1 
REMARK    2  A    between atoms: O_2  and  C_13 
REMARK    3  A    between atoms: O_3  and  C_14 
REMARK    4  A    between atoms: O_4  and  C_17 
REMARK    5  A    between atoms: O_5  and  C_20 
REMARK    6  A    between atoms: O_6  and  C_18 
REMARK    7  A    between atoms: C_7  and  C_8 
REMARK    8  A    between atoms: C_7  and  C_9 
REMARK    9  A    between atoms: C_8  and  C_10 
ROOT
HETATM    1  C   UNK N   1      34.168  17.766   8.278  0.00  0.00     0.155 C 
ENDROOT
BRANCH   1   2
HETATM    2  O   UNK N   1      34.926  18.822   7.758  0.00  0.00    -0.391 OA
HETATM    3  H   UNK N   1      35.832  19.018   8.046  0.00  0.00     0.210 HD
ENDBRANCH   1   2
BRANCH   1   4
HETATM    4  C   UNK N   1      34.911  16.423   8.179  0.00  0.00     0.075 C 
BRANCH   4   5
HETATM    5  C   UNK N   1      35.006  15.706   9.482  0.00  0.00    -0.053 A 
HETATM    6  C   UNK N   1      34.612  14.371   9.575  0.00  0.00     0.046 A 
HETATM    7  C   UNK N   1      34.651  13.714  10.808  0.00  0.00     0.099 A 
HETATM    8  C   UNK N   1      35.089  14.395  11.957  0.00  0.00     0.101 A 
HETATM    9  C   UNK N   1      35.508  15.731  11.848  0.00  0.00     0.040 A 
HETATM   10  C   UNK N   1      35.470  16.380  10.616  0.00  0.00     0.010 A 
BRANCH   7  11
HETATM   11  O   UNK N   1      34.253  12.434  10.889  0.00  0.00    -0.358 OA
HETATM   12  H   UNK N   1      33.742  12.034  10.214  0.00  0.00     0.217 HD
ENDBRANCH   7  11
BRANCH   8  13
HETATM   13  O   UNK N   1      35.090  13.753  13.150  0.00  0.00    -0.353 OA
HETATM   14  C   UNK N   1      36.225  13.590  13.914  0.00  0.00     0.210 C 
ENDBRANCH   8  13
ENDBRANCH   4   5
ENDBRANCH   1   4
BRANCH   1  15
HETATM   15  C   UNK N   1      32.881  17.627   7.527  0.00  0.00    -0.024 A 
HETATM   16  C   UNK N   1      31.673  17.603   8.219  0.00  0.00     0.049 A 
HETATM   17  C   UNK N   1      30.460  17.412   7.536  0.00  0.00     0.104 A 
HETATM   18  C   UNK N   1      30.461  17.225   6.142  0.00  0.00     0.135 A 
HETATM   19  C   UNK N   1      31.694  17.252   5.433  0.00  0.00     0.104 A 
HETATM   20  C   UNK N   1      32.886  17.459   6.143  0.00  0.00     0.049 A 
BRANCH  17  21
HETATM   21  O   UNK N   1      29.283  17.391   8.207  0.00  0.00    -0.353 OA
HETATM   22  C   UNK N   1      28.974  18.269   9.222  0.00  0.00     0.210 C 
ENDBRANCH  17  21
BRANCH  18  23
HETATM   23  O   UNK N   1      29.261  17.018   5.531  0.00  0.00    -0.351 OA
HETATM   24  C   UNK N   1      28.504  17.979   4.902  0.00  0.00     0.210 C 
ENDBRANCH  18  23
BRANCH  19  25
HETATM   25  O   UNK N   1      31.730  17.071   4.090  0.00  0.00    -0.353 OA
HETATM   26  C   UNK N   1      32.876  16.753   3.394  0.00  0.00     0.210 C 
ENDBRANCH  19  25
ENDBRANCH   1  15
TORSDOF 9
ENDMDL
MODEL 4
REMARK VINA RESULT:      -6.0      2.859      8.109
REMARK  9 active torsions:
REMARK  status: ('A' for Active; 'I' for Inactive)
REMARK    1  A    between atoms: C_7  and  O_1 
REMARK    2  A    between atoms: O_2  and  C_13 
REMARK    3  A    between atoms: O_3  and  C_14 
REMARK    4  A    between atoms: O_4  and  C_17 
REMARK    5  A    between atoms: O_5  and  C_20 
REMARK    6  A    between atoms: O_6  and  C_18 
REMARK    7  A    between atoms: C_7  and  C_8 
REMARK    8  A    between atoms: C_7  and  C_9 
REMARK    9  A    between atoms: C_8  and  C_10 
ROOT
HETATM    1  C   UNK N   1      26.987  20.592   4.862  0.00  0.00     0.155 C 
ENDROOT
BRANCH   1   2
HETATM    2  O   UNK N   1      25.932  20.873   5.739  0.00  0.00    -0.391 OA
HETATM    3  H   UNK N   1      25.793  21.745   6.140  0.00  0.00     0.210 HD
ENDBRANCH   1   2
BRANCH   1   4
HETATM    4  C   UNK N   1      26.482  20.118   3.489  0.00  0.00     0.075 C 
BRANCH   4   5
HETATM    5  C   UNK N   1      25.023  19.815   3.471  0.00  0.00    -0.053 A 
HETATM    6  C   UNK N   1      24.118  20.760   2.989  0.00  0.00     0.046 A 
HETATM    7  C   UNK N   1      22.746  20.495   3.021  0.00  0.00     0.099 A 
HETATM    8  C   UNK N   1      22.274  19.276   3.537  0.00  0.00     0.101 A 
HETATM    9  C   UNK N   1      23.195  18.320   3.997  0.00  0.00     0.040 A 
HETATM   10  C   UNK N   1      24.562  18.588   3.960  0.00  0.00     0.010 A 
BRANCH   7  11
HETATM   11  O   UNK N   1      21.883  21.419   2.569  0.00  0.00    -0.358 OA
HETATM   12  H   UNK N   1      22.139  22.312   2.444  0.00  0.00     0.217 HD
ENDBRANCH   7  11
BRANCH   8  13
HETATM   13  O   UNK N   1      20.940  19.048   3.591  0.00  0.00    -0.353 OA
HETATM   14  C   UNK N   1      20.394  17.784   3.609  0.00  0.00     0.210 C 
ENDBRANCH   8  13
ENDBRANCH   4   5
ENDBRANCH   1   4
BRANCH   1  15
HETATM   15  C   UNK N   1      27.858  19.512   5.421  0.00  0.00    -0.024 A 
HETATM   16  C   UNK N   1      28.613  18.714   4.564  0.00  0.00     0.049 A 
HETATM   17  C   UNK N   1      29.388  17.657   5.066  0.00  0.00     0.104 A 
HETATM   18  C   UNK N   1      29.393  17.383   6.446  0.00  0.00     0.135 A 
HETATM   19  C   UNK N   1      28.625  18.197   7.324  0.00  0.00     0.104 A 
HETATM   20  C   UNK N   1      27.873  19.254   6.791  0.00  0.00     0.049 A 
BRANCH  17  21
HETATM   21  O   UNK N   1      30.126  16.882   4.234  0.00  0.00    -0.353 OA
HETATM   22  C   UNK N   1      29.606  16.258   3.121  0.00  0.00     0.210 C 
ENDBRANCH  17  21
BRANCH  18  23
HETATM   23  O   UNK N   1      30.141  16.330   6.879  0.00  0.00    -0.351 OA
HETATM   24  C   UNK N   1      31.439  16.399   7.330  0.00  0.00     0.210 C 
ENDBRANCH  18  23
BRANCH  19  25
HETATM   25  O   UNK N   1      28.605  17.957   8.658  0.00  0.00    -0.353 OA
HETATM   26  C   UNK N   1      29.428  18.596   9.559  0.00  0.00     0.210 C 
ENDBRANCH  19  25
ENDBRANCH   1  15
TORSDOF 9
ENDMDL
MODEL 5
REMARK VINA RESULT:      -6.0      6.351     10.687
REMARK  9 active torsions:
REMARK  status: ('A' for Active; 'I' for Inactive)
REMARK    1  A    between atoms: C_7  and  O_1 
REMARK    2  A    between atoms: O_2  and  C_13 
REMARK    3  A    between atoms: O_3  and  C_14 
REMARK    4  A    between atoms: O_4  and  C_17 
REMARK    5  A    between atoms: O_5  and  C_20 
REMARK    6  A    between atoms: O_6  and  C_18 
REMARK    7  A    between atoms: C_7  and  C_8 
REMARK    8  A    between atoms: C_7  and  C_9 
REMARK    9  A    between atoms: C_8  and  C_10 
ROOT
HETATM    1  C   UNK N   1      34.726  14.915  11.424  0.00  0.00     0.155 C 
ENDROOT
BRANCH   1   2
HETATM    2  O   UNK N   1      33.334  14.799  11.314  0.00  0.00    -0.391 OA
HETATM    3  H   UNK N   1      32.864  14.838  10.466  0.00  0.00     0.210 HD
ENDBRANCH   1   2
BRANCH   1   4
HETATM    4  C   UNK N   1      35.438  14.542  10.114  0.00  0.00     0.075 C 
BRANCH   4   5
HETATM    5  C   UNK N   1      35.094  15.443   8.978  0.00  0.00    -0.053 A 
HETATM    6  C   UNK N   1      35.077  16.826   9.163  0.00  0.00     0.046 A 
HETATM    7  C   UNK N   1      34.703  17.668   8.112  0.00  0.00     0.099 A 
HETATM    8  C   UNK N   1      34.344  17.126   6.867  0.00  0.00     0.101 A 
HETATM    9  C   UNK N   1      34.388  15.734   6.683  0.00  0.00     0.040 A 
HETATM   10  C   UNK N   1      34.765  14.899   7.732  0.00  0.00     0.010 A 
BRANCH   7  11
HETATM   11  O   UNK N   1      34.675  18.997   8.307  0.00  0.00    -0.358 OA
HETATM   12  H   UNK N   1      34.300  19.373   9.079  0.00  0.00     0.217 HD
ENDBRANCH   7  11
BRANCH   8  13
HETATM   13  O   UNK N   1      33.952  17.954   5.869  0.00  0.00    -0.353 OA
HETATM   14  C   UNK N   1      33.038  17.589   4.905  0.00  0.00     0.210 C 
ENDBRANCH   8  13
ENDBRANCH   4   5
ENDBRANCH   1   4
BRANCH   1  15
HETATM   15  C   UNK N   1      35.243  14.008  12.495  0.00  0.00    -0.024 A 
HETATM   16  C   UNK N   1      36.084  14.510  13.485  0.00  0.00     0.049 A 
HETATM   17  C   UNK N   1      36.627  13.661  14.462  0.00  0.00     0.104 A 
HETATM   18  C   UNK N   1      36.337  12.284  14.436  0.00  0.00     0.135 A 
HETATM   19  C   UNK N   1      35.477  11.769  13.428  0.00  0.00     0.104 A 
HETATM   20  C   UNK N   1      34.940  12.647  12.475  0.00  0.00     0.049 A 
BRANCH  17  21
HETATM   21  O   UNK N   1      37.443  14.148  15.429  0.00  0.00    -0.353 OA
HETATM   22  C   UNK N   1      37.338  15.424  15.936  0.00  0.00     0.210 C 
ENDBRANCH  17  21
BRANCH  18  23
HETATM   23  O   UNK N   1      36.911  11.500  15.391  0.00  0.00    -0.351 OA
HETATM   24  C   UNK N   1      36.276  10.995  16.503  0.00  0.00     0.210 C 
ENDBRANCH  18  23
BRANCH  19  25
HETATM   25  O   UNK N   1      35.181  10.447  13.373  0.00  0.00    -0.353 OA
HETATM   26  C   UNK N   1      35.885   9.541  12.611  0.00  0.00     0.210 C 
ENDBRANCH  19  25
ENDBRANCH   1  15
TORSDOF 9
ENDMDL
MODEL 6
REMARK VINA RESULT:      -5.9     10.724     13.450
REMARK  9 active torsions:
REMARK  status: ('A' for Active; 'I' for Inactive)
REMARK    1  A    between atoms: C_7  and  O_1 
REMARK    2  A    between atoms: O_2  and  C_13 
REMARK    3  A    between atoms: O_3  and  C_14 
REMARK    4  A    between atoms: O_4  and  C_17 
REMARK    5  A    between atoms: O_5  and  C_20 
REMARK    6  A    between atoms: O_6  and  C_18 
REMARK    7  A    between atoms: C_7  and  C_8 
REMARK    8  A    between atoms: C_7  and  C_9 
REMARK    9  A    between atoms: C_8  and  C_10 
ROOT
HETATM    1  C   UNK N   1      27.421  23.965  -3.695  0.00  0.00     0.155 C 
ENDROOT
BRANCH   1   2
HETATM    2  O   UNK N   1      26.736  24.465  -2.580  0.00  0.00    -0.391 OA
HETATM    3  H   UNK N   1      25.890  24.104  -2.270  0.00  0.00     0.210 HD
ENDBRANCH   1   2
BRANCH   1   4
HETATM    4  C   UNK N   1      28.925  24.277  -3.632  0.00  0.00     0.075 C 
BRANCH   4   5
HETATM    5  C   UNK N   1      29.785  23.072  -3.803  0.00  0.00    -0.053 A 
HETATM    6  C   UNK N   1      30.713  22.729  -2.819  0.00  0.00     0.046 A 
HETATM    7  C   UNK N   1      31.555  21.629  -3.004  0.00  0.00     0.099 A 
HETATM    8  C   UNK N   1      31.469  20.865  -4.180  0.00  0.00     0.101 A 
HETATM    9  C   UNK N   1      30.515  21.203  -5.154  0.00  0.00     0.040 A 
HETATM   10  C   UNK N   1      29.675  22.298  -4.963  0.00  0.00     0.010 A 
BRANCH   7  11
HETATM   11  O   UNK N   1      32.455  21.319  -2.058  0.00  0.00    -0.358 OA
HETATM   12  H   UNK N   1      32.273  20.681  -1.396  0.00  0.00     0.217 HD
ENDBRANCH   7  11
BRANCH   8  13
HETATM   13  O   UNK N   1      32.315  19.821  -4.358  0.00  0.00    -0.353 OA
HETATM   14  C   UNK N   1      33.526  19.938  -5.004  0.00  0.00     0.210 C 
ENDBRANCH   8  13
ENDBRANCH   4   5
ENDBRANCH   1   4
BRANCH   1  15
HETATM   15  C   UNK N   1      26.885  24.570  -4.953  0.00  0.00    -0.024 A 
HETATM   16  C   UNK N   1      26.173  23.782  -5.854  0.00  0.00     0.049 A 
HETATM   17  C   UNK N   1      25.715  24.319  -7.068  0.00  0.00     0.104 A 
HETATM   18  C   UNK N   1      25.991  25.660  -7.392  0.00  0.00     0.135 A 
HETATM   19  C   UNK N   1      26.717  26.467  -6.473  0.00  0.00     0.104 A 
HETATM   20  C   UNK N   1      27.147  25.904  -5.263  0.00  0.00     0.049 A 
BRANCH  17  21
HETATM   21  O   UNK N   1      25.019  23.555  -7.945  0.00  0.00    -0.353 OA
HETATM   22  C   UNK N   1      25.547  22.447  -8.569  0.00  0.00     0.210 C 
ENDBRANCH  17  21
BRANCH  18  23
HETATM   23  O   UNK N   1      25.547  26.125  -8.594  0.00  0.00    -0.351 OA
HETATM   24  C   UNK N   1      26.266  26.130  -9.767  0.00  0.00     0.210 C 
ENDBRANCH  18  23
BRANCH  19  25
HETATM   25  O   UNK N   1      27.003  27.762  -6.757  0.00  0.00    -0.353 OA
HETATM   26  C   UNK N   1      27.732  28.581  -5.923  0.00  0.00     0.210 C 
ENDBRANCH  19  25
ENDBRANCH   1  15
TORSDOF 9
ENDMDL
MODEL 7
REMARK VINA RESULT:      -5.9      1.534      7.001
REMARK  9 active torsions:
REMARK  status: ('A' for Active; 'I' for Inactive)
REMARK    1  A    between atoms: C_7  and  O_1 
REMARK    2  A    between atoms: O_2  and  C_13 
REMARK    3  A    between atoms: O_3  and  C_14 
REMARK    4  A    between atoms: O_4  and  C_17 
REMARK    5  A    between atoms: O_5  and  C_20 
REMARK    6  A    between atoms: O_6  and  C_18 
REMARK    7  A    between atoms: C_7  and  C_8 
REMARK    8  A    between atoms: C_7  and  C_9 
REMARK    9  A    between atoms: C_8  and  C_10 
ROOT
HETATM    1  C   UNK N   1      30.538  17.907   8.345  0.00  0.00     0.155 C 
ENDROOT
BRANCH   1   2
HETATM    2  O   UNK N   1      30.459  17.580   9.705  0.00  0.00    -0.391 OA
HETATM    3  H   UNK N   1      29.655  17.702  10.234  0.00  0.00     0.210 HD
ENDBRANCH   1   2
BRANCH   1   4
HETATM    4  C   UNK N   1      29.422  17.236   7.527  0.00  0.00     0.075 C 
BRANCH   4   5
HETATM    5  C   UNK N   1      28.660  18.193   6.676  0.00  0.00    -0.053 A 
HETATM    6  C   UNK N   1      28.008  19.281   7.256  0.00  0.00     0.046 A 
HETATM    7  C   UNK N   1      27.251  20.147   6.464  0.00  0.00     0.099 A 
HETATM    8  C   UNK N   1      27.145  19.928   5.080  0.00  0.00     0.101 A 
HETATM    9  C   UNK N   1      27.826  18.845   4.500  0.00  0.00     0.040 A 
HETATM   10  C   UNK N   1      28.582  17.985   5.294  0.00  0.00     0.010 A 
BRANCH   7  11
HETATM   11  O   UNK N   1      26.613  21.182   7.037  0.00  0.00    -0.358 OA
HETATM   12  H   UNK N   1      25.817  21.525   6.683  0.00  0.00     0.217 HD
ENDBRANCH   7  11
BRANCH   8  13
HETATM   13  O   UNK N   1      26.381  20.759   4.331  0.00  0.00    -0.353 OA
HETATM   14  C   UNK N   1      25.962  20.449   3.055  0.00  0.00     0.210 C 
ENDBRANCH   8  13
ENDBRANCH   4   5
ENDBRANCH   1   4
BRANCH   1  15
HETATM   15  C   UNK N   1      31.847  17.459   7.775  0.00  0.00    -0.024 A 
HETATM   16  C   UNK N   1      31.930  17.084   6.436  0.00  0.00     0.049 A 
HETATM   17  C   UNK N   1      33.135  16.604   5.900  0.00  0.00     0.104 A 
HETATM   18  C   UNK N   1      34.271  16.482   6.723  0.00  0.00     0.135 A 
HETATM   19  C   UNK N   1      34.189  16.866   8.090  0.00  0.00     0.104 A 
HETATM   20  C   UNK N   1      32.974  17.355   8.590  0.00  0.00     0.049 A 
BRANCH  17  21
HETATM   21  O   UNK N   1      33.219  16.241   4.597  0.00  0.00    -0.353 OA
HETATM   22  C   UNK N   1      32.821  17.052   3.558  0.00  0.00     0.210 C 
ENDBRANCH  17  21
BRANCH  18  23
HETATM   23  O   UNK N   1      35.408  15.986   6.161  0.00  0.00    -0.351 OA
HETATM   24  C   UNK N   1      35.831  14.678   6.224  0.00  0.00     0.210 C 
ENDBRANCH  18  23
BRANCH  19  25
HETATM   25  O   UNK N   1      35.263  16.757   8.910  0.00  0.00    -0.353 OA
HETATM   26  C   UNK N   1      35.169  16.681  10.282  0.00  0.00     0.210 C 
ENDBRANCH  19  25
ENDBRANCH   1  15
TORSDOF 9
ENDMDL
MODEL 8
REMARK VINA RESULT:      -5.9      1.428      7.041
REMARK  9 active torsions:
REMARK  status: ('A' for Active; 'I' for Inactive)
REMARK    1  A    between atoms: C_7  and  O_1 
REMARK    2  A    between atoms: O_2  and  C_13 
REMARK    3  A    between atoms: O_3  and  C_14 
REMARK    4  A    between atoms: O_4  and  C_17 
REMARK    5  A    between atoms: O_5  and  C_20 
REMARK    6  A    between atoms: O_6  and  C_18 
REMARK    7  A    between atoms: C_7  and  C_8 
REMARK    8  A    between atoms: C_7  and  C_9 
REMARK    9  A    between atoms: C_8  and  C_10 
ROOT
HETATM    1  C   UNK N   1      29.976  18.190   8.457  0.00  0.00     0.155 C 
ENDROOT
BRANCH   1   2
HETATM    2  O   UNK N   1      29.913  17.941   9.834  0.00  0.00    -0.391 OA
HETATM    3  H   UNK N   1      30.160  17.091  10.232  0.00  0.00     0.210 HD
ENDBRANCH   1   2
BRANCH   1   4
HETATM    4  C   UNK N   1      28.827  17.507   7.697  0.00  0.00     0.075 C 
BRANCH   4   5
HETATM    5  C   UNK N   1      28.204  18.381   6.664  0.00  0.00    -0.053 A 
HETATM    6  C   UNK N   1      27.888  19.706   6.965  0.00  0.00     0.046 A 
HETATM    7  C   UNK N   1      27.255  20.508   6.012  0.00  0.00     0.099 A 
HETATM    8  C   UNK N   1      26.938  19.986   4.748  0.00  0.00     0.101 A 
HETATM    9  C   UNK N   1      27.283  18.659   4.444  0.00  0.00     0.040 A 
HETATM   10  C   UNK N   1      27.916  17.863   5.396  0.00  0.00     0.010 A 
BRANCH   7  11
HETATM   11  O   UNK N   1      26.941  21.777   6.320  0.00  0.00    -0.358 OA
HETATM   12  H   UNK N   1      26.488  22.332   5.716  0.00  0.00     0.217 HD
ENDBRANCH   7  11
BRANCH   8  13
HETATM   13  O   UNK N   1      26.296  20.768   3.846  0.00  0.00    -0.353 OA
HETATM   14  C   UNK N   1      25.494  20.260   2.847  0.00  0.00     0.210 C 
ENDBRANCH   8  13
ENDBRANCH   4   5
ENDBRANCH   1   4
BRANCH   1  15
HETATM   15  C   UNK N   1      31.262  17.676   7.892  0.00  0.00    -0.024 A 
HETATM   16  C   UNK N   1      32.436  17.773   8.635  0.00  0.00     0.049 A 
HETATM   17  C   UNK N   1      33.662  17.351   8.096  0.00  0.00     0.104 A 
HETATM   18  C   UNK N   1      33.715  16.840   6.785  0.00  0.00     0.135 A 
HETATM   19  C   UNK N   1      32.517  16.738   6.025  0.00  0.00     0.104 A 
HETATM   20  C   UNK N   1      31.307  17.155   6.599  0.00  0.00     0.049 A 
BRANCH  17  21
HETATM   21  O   UNK N   1      34.805  17.441   8.818  0.00  0.00    -0.353 OA
HETATM   22  C   UNK N   1      35.058  16.676   9.935  0.00  0.00     0.210 C 
ENDBRANCH  17  21
BRANCH  18  23
HETATM   23  O   UNK N   1      34.932  16.469   6.300  0.00  0.00    -0.351 OA
HETATM   24  C   UNK N   1      35.407  15.180   6.223  0.00  0.00     0.210 C 
ENDBRANCH  18  23
BRANCH  19  25
HETATM   25  O   UNK N   1      32.534  16.254   4.759  0.00  0.00    -0.353 OA
HETATM   26  C   UNK N   1      32.669  17.049   3.642  0.00  0.00     0.210 C 
ENDBRANCH  19  25
ENDBRANCH   1  15
TORSDOF 9
ENDMDL
MODEL 9
REMARK VINA RESULT:      -5.9      2.034      2.934
REMARK  9 active torsions:
REMARK  status: ('A' for Active; 'I' for Inactive)
REMARK    1  A    between atoms: C_7  and  O_1 
REMARK    2  A    between atoms: O_2  and  C_13 
REMARK    3  A    between atoms: O_3  and  C_14 
REMARK    4  A    between atoms: O_4  and  C_17 
REMARK    5  A    between atoms: O_5  and  C_20 
REMARK    6  A    between atoms: O_6  and  C_18 
REMARK    7  A    between atoms: C_7  and  C_8 
REMARK    8  A    between atoms: C_7  and  C_9 
REMARK    9  A    between atoms: C_8  and  C_10 
ROOT
HETATM    1  C   UNK N   1      29.760  17.496   4.252  0.00  0.00     0.155 C 
ENDROOT
BRANCH   1   2
HETATM    2  O   UNK N   1      29.987  16.850   3.030  0.00  0.00    -0.391 OA
HETATM    3  H   UNK N   1      30.697  17.104   2.419  0.00  0.00     0.210 HD
ENDBRANCH   1   2
BRANCH   1   4
HETATM    4  C   UNK N   1      29.904  16.536   5.444  0.00  0.00     0.075 C 
BRANCH   4   5
HETATM    5  C   UNK N   1      30.986  16.929   6.390  0.00  0.00    -0.053 A 
HETATM    6  C   UNK N   1      32.262  17.224   5.909  0.00  0.00     0.046 A 
HETATM    7  C   UNK N   1      33.290  17.541   6.800  0.00  0.00     0.099 A 
HETATM    8  C   UNK N   1      33.043  17.565   8.183  0.00  0.00     0.101 A 
HETATM    9  C   UNK N   1      31.749  17.291   8.657  0.00  0.00     0.040 A 
HETATM   10  C   UNK N   1      30.726  16.979   7.763  0.00  0.00     0.010 A 
BRANCH   7  11
HETATM   11  O   UNK N   1      34.518  17.807   6.326  0.00  0.00    -0.358 OA
HETATM   12  H   UNK N   1      34.836  17.417   5.536  0.00  0.00     0.217 HD
ENDBRANCH   7  11
BRANCH   8  13
HETATM   13  O   UNK N   1      34.058  17.843   9.036  0.00  0.00    -0.353 OA
HETATM   14  C   UNK N   1      34.792  16.867   9.674  0.00  0.00     0.210 C 
ENDBRANCH   8  13
ENDBRANCH   4   5
ENDBRANCH   1   4
BRANCH   1  15
HETATM   15  C   UNK N   1      28.377  18.066   4.294  0.00  0.00    -0.024 A 
HETATM   16  C   UNK N   1      27.308  17.331   3.788  0.00  0.00     0.049 A 
HETATM   17  C   UNK N   1      26.013  17.874   3.763  0.00  0.00     0.104 A 
HETATM   18  C   UNK N   1      25.791  19.180   4.237  0.00  0.00     0.135 A 
HETATM   19  C   UNK N   1      26.881  19.932   4.756  0.00  0.00     0.104 A 
HETATM   20  C   UNK N   1      28.158  19.354   4.779  0.00  0.00     0.049 A 
BRANCH  17  21
HETATM   21  O   UNK N   1      24.970  17.160   3.274  0.00  0.00    -0.353 OA
HETATM   22  C   UNK N   1      24.780  15.821   3.537  0.00  0.00     0.210 C 
ENDBRANCH  17  21
BRANCH  18  23
HETATM   23  O   UNK N   1      24.521  19.670   4.167  0.00  0.00    -0.351 OA
HETATM   24  C   UNK N   1      24.012  20.436   3.144  0.00  0.00     0.210 C 
ENDBRANCH  18  23
BRANCH  19  25
HETATM   25  O   UNK N   1      26.700  21.195   5.216  0.00  0.00    -0.353 OA
HETATM   26  C   UNK N   1      26.566  21.507   6.551  0.00  0.00     0.210 C 
ENDBRANCH  19  25
ENDBRANCH   1  15
TORSDOF 9
ENDMDL
