MODEL 1
REMARK VINA RESULT:      -6.5      0.000      0.000
REMARK  6 active torsions:
REMARK  status: ('A' for Active; 'I' for Inactive)
REMARK    1  A    between atoms: O_3  and  C_8 
REMARK    2  A    between atoms: O_3  and  C_13 
REMARK    3  A    between atoms: N_5  and  C_6 
REMARK    4  A    between atoms: N_5  and  C_11 
REMARK    5  A    between atoms: C_7  and  C_11 
REMARK    6  A    between atoms: C_13  and  C_17 
ROOT
HETATM    1 Cl   UNK N   1      34.577  18.372   8.139  0.00  0.00    -0.081 Cl
HETATM    2  C   UNK N   1      34.372  14.712  10.871  0.00  0.00     0.035 A 
HETATM    3  C   UNK N   1      33.653  15.825   8.839  0.00  0.00     0.093 A 
HETATM    4  C   UNK N   1      33.632  14.743   9.703  0.00  0.00     0.068 A 
HETATM    5  C   UNK N   1      35.178  15.810  11.199  0.00  0.00     0.031 A 
HETATM    6  C   UNK N   1      34.466  16.944   9.157  0.00  0.00     0.067 A 
HETATM    7  C   UNK N   1      35.223  16.920  10.342  0.00  0.00     0.029 A 
ENDROOT
BRANCH   2   8
HETATM    8  N   UNK N   1      34.261  13.537  11.660  0.00  0.00    -0.346 N 
HETATM    9  H   UNK N   1      33.334  13.231  11.790  0.00  0.00     0.167 HD
BRANCH   8  10
HETATM   10  C   UNK N   1      35.235  12.717  12.298  0.00  0.00     0.114 C 
HETATM   11  S   UNK N   1      36.183  11.935  11.542  0.00  0.00    -0.059 SA
BRANCH  10  12
HETATM   12  C   UNK N   1      35.248  12.736  13.785  0.00  0.00     0.033 A 
HETATM   13  C   UNK N   1      34.554  11.976  14.709  0.00  0.00     0.062 A 
HETATM   14  O   UNK N   1      34.890  12.350  15.919  0.00  0.00    -0.327 OA
HETATM   15  C   UNK N   1      33.571  10.889  14.441  0.00  0.00     0.077 C 
HETATM   16  C   UNK N   1      35.774  13.323  15.850  0.00  0.00     0.143 A 
HETATM   17  C   UNK N   1      36.035  13.605  14.520  0.00  0.00     0.041 A 
ENDBRANCH  10  12
ENDBRANCH   8  10
ENDBRANCH   2   8
BRANCH   3  18
HETATM   18  O   UNK N   1      32.875  15.703   7.743  0.00  0.00    -0.346 OA
BRANCH  18  19
HETATM   19  C   UNK N   1      31.539  15.938   7.572  0.00  0.00     0.203 C 
BRANCH  19  20
HETATM   20  C   UNK N   1      31.031  16.898   8.630  0.00  0.00     0.001 C 
HETATM   21  C   UNK N   1      29.963  17.724   8.550  0.00  0.00    -0.089 C 
HETATM   22  C   UNK N   1      29.637  18.586   9.718  0.00  0.00     0.042 C 
HETATM   23  C   UNK N   1      29.080  17.832   7.345  0.00  0.00     0.042 C 
ENDBRANCH  19  20
ENDBRANCH  18  19
ENDBRANCH   3  18
TORSDOF 6
ENDMDL
MODEL 2
REMARK VINA RESULT:      -6.2      6.927      9.007
REMARK  6 active torsions:
REMARK  status: ('A' for Active; 'I' for Inactive)
REMARK    1  A    between atoms: O_3  and  C_8 
REMARK    2  A    between atoms: O_3  and  C_13 
REMARK    3  A    between atoms: N_5  and  C_6 
REMARK    4  A    between atoms: N_5  and  C_11 
REMARK    5  A    between atoms: C_7  and  C_11 
REMARK    6  A    between atoms: C_13  and  C_17 
ROOT
HETATM    1 Cl   UNK N   1      36.159  13.156  14.835  0.00  0.00    -0.081 Cl
HETATM    2  C   UNK N   1      35.316  11.834  19.130  0.00  0.00     0.035 A 
HETATM    3  C   UNK N   1      36.053  11.260  16.891  0.00  0.00     0.093 A 
HETATM    4  C   UNK N   1      35.783  10.918  18.206  0.00  0.00     0.068 A 
HETATM    5  C   UNK N   1      35.110  13.162  18.732  0.00  0.00     0.031 A 
HETATM    6  C   UNK N   1      35.849  12.601  16.474  0.00  0.00     0.067 A 
HETATM    7  C   UNK N   1      35.378  13.541  17.408  0.00  0.00     0.029 A 
ENDROOT
BRANCH   2   8
HETATM    8  N   UNK N   1      35.089  11.349  20.444  0.00  0.00    -0.346 N 
HETATM    9  H   UNK N   1      35.045  12.056  21.128  0.00  0.00     0.167 HD
BRANCH   8  10
HETATM   10  C   UNK N   1      34.911  10.034  20.962  0.00  0.00     0.114 C 
HETATM   11  S   UNK N   1      35.896   9.414  21.813  0.00  0.00    -0.059 SA
BRANCH  10  12
HETATM   12  C   UNK N   1      33.639   9.348  20.611  0.00  0.00     0.033 A 
HETATM   13  C   UNK N   1      33.367   8.360  19.683  0.00  0.00     0.062 A 
HETATM   14  O   UNK N   1      32.091   8.062  19.727  0.00  0.00    -0.327 OA
HETATM   15  C   UNK N   1      34.323   7.693  18.754  0.00  0.00     0.077 C 
HETATM   16  C   UNK N   1      31.497   8.803  20.638  0.00  0.00     0.143 A 
HETATM   17  C   UNK N   1      32.434   9.635  21.227  0.00  0.00     0.041 A 
ENDBRANCH  10  12
ENDBRANCH   8  10
ENDBRANCH   2   8
BRANCH   3  18
HETATM   18  O   UNK N   1      36.499  10.252  16.112  0.00  0.00    -0.346 OA
BRANCH  18  19
HETATM   19  C   UNK N   1      35.842   9.166  15.602  0.00  0.00     0.203 C 
BRANCH  19  20
HETATM   20  C   UNK N   1      35.414   9.432  14.172  0.00  0.00     0.001 C 
HETATM   21  C   UNK N   1      34.345  10.147  13.750  0.00  0.00    -0.089 C 
HETATM   22  C   UNK N   1      34.112  10.288  12.287  0.00  0.00     0.042 C 
HETATM   23  C   UNK N   1      33.368  10.809  14.672  0.00  0.00     0.042 C 
ENDBRANCH  19  20
ENDBRANCH  18  19
ENDBRANCH   3  18
TORSDOF 6
ENDMDL
MODEL 3
REMARK VINA RESULT:      -6.0      6.296      8.544
REMARK  6 active torsions:
REMARK  status: ('A' for Active; 'I' for Inactive)
REMARK    1  A    between atoms: O_3  and  C_8 
REMARK    2  A    between atoms: O_3  and  C_13 
REMARK    3  A    between atoms: N_5  and  C_6 
REMARK    4  A    between atoms: N_5  and  C_11 
REMARK    5  A    between atoms: C_7  and  C_11 
REMARK    6  A    between atoms: C_13  and  C_17 
ROOT
HETATM    1 Cl   UNK N   1      27.011  20.973   7.271  0.00  0.00    -0.081 Cl
HETATM    2  C   UNK N   1      29.168  17.129   6.059  0.00  0.00     0.035 A 
HETATM    3  C   UNK N   1      28.171  19.241   5.404  0.00  0.00     0.093 A 
HETATM    4  C   UNK N   1      28.826  18.060   5.096  0.00  0.00     0.068 A 
HETATM    5  C   UNK N   1      28.847  17.381   7.400  0.00  0.00     0.031 A 
HETATM    6  C   UNK N   1      27.839  19.511   6.757  0.00  0.00     0.067 A 
HETATM    7  C   UNK N   1      28.186  18.570   7.743  0.00  0.00     0.029 A 
ENDROOT
BRANCH   2   8
HETATM    8  N   UNK N   1      29.844  15.967   5.604  0.00  0.00    -0.346 N 
HETATM    9  H   UNK N   1      29.292  15.382   5.035  0.00  0.00     0.167 HD
BRANCH   8  10
HETATM   10  C   UNK N   1      31.168  15.485   5.812  0.00  0.00     0.114 C 
HETATM   11  S   UNK N   1      31.483  14.079   5.746  0.00  0.00    -0.059 SA
BRANCH  10  12
HETATM   12  C   UNK N   1      32.216  16.510   6.065  0.00  0.00     0.033 A 
HETATM   13  C   UNK N   1      32.922  17.320   5.195  0.00  0.00     0.062 A 
HETATM   14  O   UNK N   1      33.750  18.073   5.877  0.00  0.00    -0.327 OA
HETATM   15  C   UNK N   1      32.808  17.380   3.710  0.00  0.00     0.077 C 
HETATM   16  C   UNK N   1      33.632  17.806   7.160  0.00  0.00     0.143 A 
HETATM   17  C   UNK N   1      32.673  16.823   7.333  0.00  0.00     0.041 A 
ENDBRANCH  10  12
ENDBRANCH   8  10
ENDBRANCH   2   8
BRANCH   3  18
HETATM   18  O   UNK N   1      27.904  20.044   4.352  0.00  0.00    -0.346 OA
BRANCH  18  19
HETATM   19  C   UNK N   1      26.914  19.977   3.412  0.00  0.00     0.203 C 
BRANCH  19  20
HETATM   20  C   UNK N   1      25.716  19.223   3.958  0.00  0.00     0.001 C 
HETATM   21  C   UNK N   1      24.407  19.493   3.750  0.00  0.00    -0.089 C 
HETATM   22  C   UNK N   1      23.387  18.614   4.383  0.00  0.00     0.042 C 
HETATM   23  C   UNK N   1      23.912  20.637   2.919  0.00  0.00     0.042 C 
ENDBRANCH  19  20
ENDBRANCH  18  19
ENDBRANCH   3  18
TORSDOF 6
ENDMDL
MODEL 4
REMARK VINA RESULT:      -6.0     17.219     20.386
REMARK  6 active torsions:
REMARK  status: ('A' for Active; 'I' for Inactive)
REMARK    1  A    between atoms: O_3  and  C_8 
REMARK    2  A    between atoms: O_3  and  C_13 
REMARK    3  A    between atoms: N_5  and  C_6 
REMARK    4  A    between atoms: N_5  and  C_11 
REMARK    5  A    between atoms: C_7  and  C_11 
REMARK    6  A    between atoms: C_13  and  C_17 
ROOT
HETATM    1 Cl   UNK N   1      32.947  24.013  -4.911  0.00  0.00    -0.081 Cl
HETATM    2  C   UNK N   1      29.347  26.828  -4.779  0.00  0.00     0.035 A 
HETATM    3  C   UNK N   1      30.611  25.030  -3.753  0.00  0.00     0.093 A 
HETATM    4  C   UNK N   1      29.540  25.908  -3.765  0.00  0.00     0.068 A 
HETATM    5  C   UNK N   1      30.265  26.883  -5.837  0.00  0.00     0.031 A 
HETATM    6  C   UNK N   1      31.549  25.074  -4.817  0.00  0.00     0.067 A 
HETATM    7  C   UNK N   1      31.362  26.008  -5.851  0.00  0.00     0.029 A 
ENDROOT
BRANCH   2   8
HETATM    8  N   UNK N   1      28.212  27.672  -4.661  0.00  0.00    -0.346 N 
HETATM    9  H   UNK N   1      28.434  28.625  -4.555  0.00  0.00     0.167 HD
BRANCH   8  10
HETATM   10  C   UNK N   1      26.813  27.403  -4.666  0.00  0.00     0.114 C 
HETATM   11  S   UNK N   1      25.899  28.124  -3.814  0.00  0.00    -0.059 SA
BRANCH  10  12
HETATM   12  C   UNK N   1      26.339  26.367  -5.622  0.00  0.00     0.033 A 
HETATM   13  C   UNK N   1      26.090  25.018  -5.448  0.00  0.00     0.062 A 
HETATM   14  O   UNK N   1      25.683  24.502  -6.582  0.00  0.00    -0.327 OA
HETATM   15  C   UNK N   1      26.237  24.217  -4.200  0.00  0.00     0.077 C 
HETATM   16  C   UNK N   1      25.648  25.440  -7.505  0.00  0.00     0.143 A 
HETATM   17  C   UNK N   1      26.054  26.640  -6.948  0.00  0.00     0.041 A 
ENDBRANCH  10  12
ENDBRANCH   8  10
ENDBRANCH   2   8
BRANCH   3  18
HETATM   18  O   UNK N   1      30.658  24.191  -2.696  0.00  0.00    -0.346 OA
BRANCH  18  19
HETATM   19  C   UNK N   1      29.984  23.026  -2.455  0.00  0.00     0.203 C 
BRANCH  19  20
HETATM   20  C   UNK N   1      30.750  21.847  -3.024  0.00  0.00     0.001 C 
HETATM   21  C   UNK N   1      30.657  21.326  -4.270  0.00  0.00    -0.089 C 
HETATM   22  C   UNK N   1      31.512  20.161  -4.623  0.00  0.00     0.042 C 
HETATM   23  C   UNK N   1      29.733  21.850  -5.326  0.00  0.00     0.042 C 
ENDBRANCH  19  20
ENDBRANCH  18  19
ENDBRANCH   3  18
TORSDOF 6
ENDMDL
MODEL 5
REMARK VINA RESULT:      -6.0     11.410     15.074
REMARK  6 active torsions:
REMARK  status: ('A' for Active; 'I' for Inactive)
REMARK    1  A    between atoms: O_3  and  C_8 
REMARK    2  A    between atoms: O_3  and  C_13 
REMARK    3  A    between atoms: N_5  and  C_6 
REMARK    4  A    between atoms: N_5  and  C_11 
REMARK    5  A    between atoms: C_7  and  C_11 
REMARK    6  A    between atoms: C_13  and  C_17 
ROOT
HETATM    1 Cl   UNK N   1      19.195  14.896   9.801  0.00  0.00    -0.081 Cl
HETATM    2  C   UNK N   1      21.776  16.216   6.266  0.00  0.00     0.035 A 
HETATM    3  C   UNK N   1      20.953  14.422   7.675  0.00  0.00     0.093 A 
HETATM    4  C   UNK N   1      21.715  14.880   6.613  0.00  0.00     0.068 A 
HETATM    5  C   UNK N   1      21.039  17.150   7.006  0.00  0.00     0.031 A 
HETATM    6  C   UNK N   1      20.201  15.356   8.435  0.00  0.00     0.067 A 
HETATM    7  C   UNK N   1      20.254  16.717   8.086  0.00  0.00     0.029 A 
ENDROOT
BRANCH   2   8
HETATM    8  N   UNK N   1      22.591  16.544   5.151  0.00  0.00    -0.346 N 
HETATM    9  H   UNK N   1      23.223  15.833   4.897  0.00  0.00     0.167 HD
BRANCH   8  10
HETATM   10  C   UNK N   1      22.668  17.704   4.329  0.00  0.00     0.114 C 
HETATM   11  S   UNK N   1      23.874  18.490   4.237  0.00  0.00    -0.059 SA
BRANCH  10  12
HETATM   12  C   UNK N   1      21.453  18.044   3.541  0.00  0.00     0.033 A 
HETATM   13  C   UNK N   1      20.743  17.312   2.607  0.00  0.00     0.062 A 
HETATM   14  O   UNK N   1      19.733  18.026   2.173  0.00  0.00    -0.327 OA
HETATM   15  C   UNK N   1      21.025  15.930   2.127  0.00  0.00     0.077 C 
HETATM   16  C   UNK N   1      19.733  19.198   2.771  0.00  0.00     0.143 A 
HETATM   17  C   UNK N   1      20.802  19.260   3.648  0.00  0.00     0.041 A 
ENDBRANCH  10  12
ENDBRANCH   8  10
ENDBRANCH   2   8
BRANCH   3  18
HETATM   18  O   UNK N   1      21.002  13.090   7.889  0.00  0.00    -0.346 OA
BRANCH  18  19
HETATM   19  C   UNK N   1      22.037  12.292   8.290  0.00  0.00     0.203 C 
BRANCH  19  20
HETATM   20  C   UNK N   1      22.040  12.150   9.800  0.00  0.00     0.001 C 
HETATM   21  C   UNK N   1      23.112  12.150  10.626  0.00  0.00    -0.089 C 
HETATM   22  C   UNK N   1      22.886  12.001  12.089  0.00  0.00     0.042 C 
HETATM   23  C   UNK N   1      24.528  12.285  10.156  0.00  0.00     0.042 C 
ENDBRANCH  19  20
ENDBRANCH  18  19
ENDBRANCH   3  18
TORSDOF 6
ENDMDL
MODEL 6
REMARK VINA RESULT:      -5.8      9.669     13.524
REMARK  6 active torsions:
REMARK  status: ('A' for Active; 'I' for Inactive)
REMARK    1  A    between atoms: O_3  and  C_8 
REMARK    2  A    between atoms: O_3  and  C_13 
REMARK    3  A    between atoms: N_5  and  C_6 
REMARK    4  A    between atoms: N_5  and  C_11 
REMARK    5  A    between atoms: C_7  and  C_11 
REMARK    6  A    between atoms: C_13  and  C_17 
ROOT
HETATM    1 Cl   UNK N   1      28.165  14.719   1.720  0.00  0.00    -0.081 Cl
HETATM    2  C   UNK N   1      24.053  16.115   3.147  0.00  0.00     0.035 A 
HETATM    3  C   UNK N   1      26.457  16.437   3.120  0.00  0.00     0.093 A 
HETATM    4  C   UNK N   1      25.186  16.815   3.520  0.00  0.00     0.068 A 
HETATM    5  C   UNK N   1      24.185  14.983   2.331  0.00  0.00     0.031 A 
HETATM    6  C   UNK N   1      26.607  15.294   2.293  0.00  0.00     0.067 A 
HETATM    7  C   UNK N   1      25.460  14.578   1.907  0.00  0.00     0.029 A 
ENDROOT
BRANCH   2   8
HETATM    8  N   UNK N   1      22.813  16.618   3.623  0.00  0.00    -0.346 N 
HETATM    9  H   UNK N   1      22.052  16.014   3.463  0.00  0.00     0.167 HD
BRANCH   8  10
HETATM   10  C   UNK N   1      22.461  17.828   4.286  0.00  0.00     0.114 C 
HETATM   11  S   UNK N   1      22.429  17.923   5.725  0.00  0.00    -0.059 SA
BRANCH  10  12
HETATM   12  C   UNK N   1      22.164  18.999   3.418  0.00  0.00     0.033 A 
HETATM   13  C   UNK N   1      22.954  20.065   3.031  0.00  0.00     0.062 A 
HETATM   14  O   UNK N   1      22.259  20.861   2.255  0.00  0.00    -0.327 OA
HETATM   15  C   UNK N   1      24.374  20.328   3.398  0.00  0.00     0.077 C 
HETATM   16  C   UNK N   1      21.044  20.379   2.105  0.00  0.00     0.143 A 
HETATM   17  C   UNK N   1      20.932  19.200   2.822  0.00  0.00     0.041 A 
ENDBRANCH  10  12
ENDBRANCH   8  10
ENDBRANCH   2   8
BRANCH   3  18
HETATM   18  O   UNK N   1      27.460  17.221   3.570  0.00  0.00    -0.346 OA
BRANCH  18  19
HETATM   19  C   UNK N   1      27.434  18.484   4.093  0.00  0.00     0.203 C 
BRANCH  19  20
HETATM   20  C   UNK N   1      27.792  18.452   5.567  0.00  0.00     0.001 C 
HETATM   21  C   UNK N   1      27.735  19.474   6.452  0.00  0.00    -0.089 C 
HETATM   22  C   UNK N   1      28.129  19.219   7.863  0.00  0.00     0.042 C 
HETATM   23  C   UNK N   1      27.302  20.863   6.096  0.00  0.00     0.042 C 
ENDBRANCH  19  20
ENDBRANCH  18  19
ENDBRANCH   3  18
TORSDOF 6
ENDMDL
MODEL 7
REMARK VINA RESULT:      -5.8      3.007      8.003
REMARK  6 active torsions:
REMARK  status: ('A' for Active; 'I' for Inactive)
REMARK    1  A    between atoms: O_3  and  C_8 
REMARK    2  A    between atoms: O_3  and  C_13 
REMARK    3  A    between atoms: N_5  and  C_6 
REMARK    4  A    between atoms: N_5  and  C_11 
REMARK    5  A    between atoms: C_7  and  C_11 
REMARK    6  A    between atoms: C_13  and  C_17 
ROOT
HETATM    1 Cl   UNK N   1      35.157  10.809  10.062  0.00  0.00    -0.081 Cl
HETATM    2  C   UNK N   1      33.370  14.993   9.609  0.00  0.00     0.035 A 
HETATM    3  C   UNK N   1      34.780  13.466  10.859  0.00  0.00     0.093 A 
HETATM    4  C   UNK N   1      34.211  14.714  10.670  0.00  0.00     0.068 A 
HETATM    5  C   UNK N   1      33.078  13.982   8.683  0.00  0.00     0.031 A 
HETATM    6  C   UNK N   1      34.494  12.432   9.929  0.00  0.00     0.067 A 
HETATM    7  C   UNK N   1      33.641  12.707   8.846  0.00  0.00     0.029 A 
ENDROOT
BRANCH   2   8
HETATM    8  N   UNK N   1      32.864  16.317   9.533  0.00  0.00    -0.346 N 
HETATM    9  H   UNK N   1      32.554  16.675  10.396  0.00  0.00     0.167 HD
BRANCH   8  10
HETATM   10  C   UNK N   1      32.720  17.227   8.446  0.00  0.00     0.114 C 
HETATM   11  S   UNK N   1      33.826  18.020   7.969  0.00  0.00    -0.059 SA
BRANCH  10  12
HETATM   12  C   UNK N   1      31.379  17.289   7.805  0.00  0.00     0.033 A 
HETATM   13  C   UNK N   1      30.205  17.892   8.215  0.00  0.00     0.062 A 
HETATM   14  O   UNK N   1      29.272  17.681   7.319  0.00  0.00    -0.327 OA
HETATM   15  C   UNK N   1      29.968  18.674   9.462  0.00  0.00     0.077 C 
HETATM   16  C   UNK N   1      29.766  16.967   6.330  0.00  0.00     0.143 A 
HETATM   17  C   UNK N   1      31.098  16.692   6.590  0.00  0.00     0.041 A 
ENDBRANCH  10  12
ENDBRANCH   8  10
ENDBRANCH   2   8
BRANCH   3  18
HETATM   18  O   UNK N   1      35.576  13.352  11.943  0.00  0.00    -0.346 OA
BRANCH  18  19
HETATM   19  C   UNK N   1      35.281  12.985  13.227  0.00  0.00     0.203 C 
BRANCH  19  20
HETATM   20  C   UNK N   1      35.657  11.535  13.461  0.00  0.00     0.001 C 
HETATM   21  C   UNK N   1      34.904  10.571  14.042  0.00  0.00    -0.089 C 
HETATM   22  C   UNK N   1      35.470   9.201  14.167  0.00  0.00     0.042 C 
HETATM   23  C   UNK N   1      33.524  10.800  14.578  0.00  0.00     0.042 C 
ENDBRANCH  19  20
ENDBRANCH  18  19
ENDBRANCH   3  18
TORSDOF 6
ENDMDL
MODEL 8
REMARK VINA RESULT:      -5.7     20.870     22.228
REMARK  6 active torsions:
REMARK  status: ('A' for Active; 'I' for Inactive)
REMARK    1  A    between atoms: O_3  and  C_8 
REMARK    2  A    between atoms: O_3  and  C_13 
REMARK    3  A    between atoms: N_5  and  C_6 
REMARK    4  A    between atoms: N_5  and  C_11 
REMARK    5  A    between atoms: C_7  and  C_11 
REMARK    6  A    between atoms: C_13  and  C_17 
ROOT
HETATM    1 Cl   UNK N   1      24.710  27.232  -5.645  0.00  0.00    -0.081 Cl
HETATM    2  C   UNK N   1      27.448  23.674  -6.507  0.00  0.00     0.035 A 
HETATM    3  C   UNK N   1      26.877  25.996  -6.913  0.00  0.00     0.093 A 
HETATM    4  C   UNK N   1      27.675  24.886  -7.134  0.00  0.00     0.068 A 
HETATM    5  C   UNK N   1      26.377  23.557  -5.611  0.00  0.00     0.031 A 
HETATM    6  C   UNK N   1      25.789  25.893  -6.008  0.00  0.00     0.067 A 
HETATM    7  C   UNK N   1      25.553  24.666  -5.364  0.00  0.00     0.029 A 
ENDROOT
BRANCH   2   8
HETATM    8  N   UNK N   1      28.348  22.622  -6.820  0.00  0.00    -0.346 N 
HETATM    9  H   UNK N   1      29.201  22.669  -6.330  0.00  0.00     0.167 HD
BRANCH   8  10
HETATM   10  C   UNK N   1      28.252  21.511  -7.706  0.00  0.00     0.114 C 
HETATM   11  S   UNK N   1      29.074  20.337  -7.543  0.00  0.00    -0.059 SA
BRANCH  10  12
HETATM   12  C   UNK N   1      27.236  21.610  -8.788  0.00  0.00     0.033 A 
HETATM   13  C   UNK N   1      25.877  21.353  -8.783  0.00  0.00     0.062 A 
HETATM   14  O   UNK N   1      25.388  21.580  -9.977  0.00  0.00    -0.327 OA
HETATM   15  C   UNK N   1      25.041  20.892  -7.639  0.00  0.00     0.077 C 
HETATM   16  C   UNK N   1      26.352  21.976 -10.780  0.00  0.00     0.143 A 
HETATM   17  C   UNK N   1      27.543  22.011 -10.076  0.00  0.00     0.041 A 
ENDBRANCH  10  12
ENDBRANCH   8  10
ENDBRANCH   2   8
BRANCH   3  18
HETATM   18  O   UNK N   1      27.226  27.103  -7.603  0.00  0.00    -0.346 OA
BRANCH  18  19
HETATM   19  C   UNK N   1      28.261  27.977  -7.416  0.00  0.00     0.203 C 
BRANCH  19  20
HETATM   20  C   UNK N   1      27.821  29.139  -6.547  0.00  0.00     0.001 C 
HETATM   21  C   UNK N   1      27.808  29.199  -5.195  0.00  0.00    -0.089 C 
HETATM   22  C   UNK N   1      27.338  30.450  -4.540  0.00  0.00     0.042 C 
HETATM   23  C   UNK N   1      28.235  28.072  -4.305  0.00  0.00     0.042 C 
ENDBRANCH  19  20
ENDBRANCH  18  19
ENDBRANCH   3  18
TORSDOF 6
ENDMDL
MODEL 9
REMARK VINA RESULT:      -5.6      1.816      2.272
REMARK  6 active torsions:
REMARK  status: ('A' for Active; 'I' for Inactive)
REMARK    1  A    between atoms: O_3  and  C_8 
REMARK    2  A    between atoms: O_3  and  C_13 
REMARK    3  A    between atoms: N_5  and  C_6 
REMARK    4  A    between atoms: N_5  and  C_11 
REMARK    5  A    between atoms: C_7  and  C_11 
REMARK    6  A    between atoms: C_13  and  C_17 
ROOT
HETATM    1 Cl   UNK N   1      34.699  18.442   8.236  0.00  0.00    -0.081 Cl
HETATM    2  C   UNK N   1      34.477  14.780  10.964  0.00  0.00     0.035 A 
HETATM    3  C   UNK N   1      33.739  15.912   8.950  0.00  0.00     0.093 A 
HETATM    4  C   UNK N   1      33.715  14.828   9.812  0.00  0.00     0.068 A 
HETATM    5  C   UNK N   1      35.313  15.861  11.278  0.00  0.00     0.031 A 
HETATM    6  C   UNK N   1      34.581  17.014   9.254  0.00  0.00     0.067 A 
HETATM    7  C   UNK N   1      35.362  16.972  10.422  0.00  0.00     0.029 A 
ENDROOT
BRANCH   2   8
HETATM    8  N   UNK N   1      34.360  13.606  11.752  0.00  0.00    -0.346 N 
HETATM    9  H   UNK N   1      33.461  13.205  11.738  0.00  0.00     0.167 HD
BRANCH   8  10
HETATM   10  C   UNK N   1      35.295  12.896  12.559  0.00  0.00     0.114 C 
HETATM   11  S   UNK N   1      35.624  13.326  13.896  0.00  0.00    -0.059 SA
BRANCH  10  12
HETATM   12  C   UNK N   1      35.887  11.667  11.966  0.00  0.00     0.033 A 
HETATM   13  C   UNK N   1      35.345  10.414  11.744  0.00  0.00     0.062 A 
HETATM   14  O   UNK N   1      36.248   9.641  11.193  0.00  0.00    -0.327 OA
HETATM   15  C   UNK N   1      33.963   9.951  12.054  0.00  0.00     0.077 C 
HETATM   16  C   UNK N   1      37.368  10.315  11.036  0.00  0.00     0.143 A 
HETATM   17  C   UNK N   1      37.191  11.604  11.509  0.00  0.00     0.041 A 
ENDBRANCH  10  12
ENDBRANCH   8  10
ENDBRANCH   2   8
BRANCH   3  18
HETATM   18  O   UNK N   1      32.936  15.809   7.870  0.00  0.00    -0.346 OA
BRANCH  18  19
HETATM   19  C   UNK N   1      31.578  15.674   7.783  0.00  0.00     0.203 C 
BRANCH  19  20
HETATM   20  C   UNK N   1      30.887  16.774   8.565  0.00  0.00     0.001 C 
HETATM   21  C   UNK N   1      29.915  17.610   8.131  0.00  0.00    -0.089 C 
HETATM   22  C   UNK N   1      29.368  18.622   9.075  0.00  0.00     0.042 C 
HETATM   23  C   UNK N   1      29.352  17.586   6.743  0.00  0.00     0.042 C 
ENDBRANCH  19  20
ENDBRANCH  18  19
ENDBRANCH   3  18
TORSDOF 6
ENDMDL
