MODEL 1
REMARK VINA RESULT:      -8.0      0.000      0.000
REMARK  4 active torsions:
REMARK  status: ('A' for Active; 'I' for Inactive)
REMARK    1  A    between atoms: C_4  and  N_8 
REMARK    2  A    between atoms: N_8  and  C_9 
REMARK       I    between atoms: N_8  and  C_27 
REMARK    3  A    between atoms: C_12  and  C_24 
REMARK    4  A    between atoms: C_13  and  C_16 
REMARK       I    between atoms: C_24  and  N_26 
REMARK       I    between atoms: C_27  and  N_29 
ROOT
HETATM    1  C   UNK N   1      28.522  17.257   5.705  0.00  0.00     0.117 A 
HETATM    2  C   UNK N   1      28.806  17.862   6.931  0.00  0.00     0.050 A 
HETATM    3  C   UNK N   1      28.166  19.043   7.283  0.00  0.00     0.023 A 
HETATM    4  C   UNK N   1      27.202  19.625   6.447  0.00  0.00     0.059 A 
HETATM    5  C   UNK N   1      26.841  18.917   5.253  0.00  0.00     0.062 A 
HETATM    6  N   UNK N   1      27.533  17.788   4.942  0.00  0.00    -0.340 N 
ATOM      7  HN  UNK N   1      27.294  17.308   4.075  1.00  0.00     0.167 HD
ENDROOT
BRANCH   1   8
HETATM    8  N   UNK N   1      29.274  16.112   5.229  0.00  0.00    -0.244 N 
HETATM    9  C   UNK N   1      28.679  14.860   5.201  0.00  0.00     0.326 C 
HETATM   10  O   UNK N   1      27.576  14.680   5.699  0.00  0.00    -0.247 OA
HETATM   11  N   UNK N   1      29.271  13.818   4.583  0.00  0.00    -0.351 N 
HETATM   12  H   UNK N   1      30.068  13.901   4.012  0.00  0.00     0.160 HD
HETATM   13  H   UNK N   1      28.883  12.922   4.710  0.00  0.00     0.160 HD
BRANCH   8  14
HETATM   14  C   UNK N   1      30.617  16.305   4.706  0.00  0.00     0.122 A 
HETATM   15  C   UNK N   1      31.752  16.199   5.559  0.00  0.00     0.146 A 
HETATM   16  C   UNK N   1      33.040  16.374   5.054  0.00  0.00     0.045 A 
HETATM   17  F   UNK N   1      31.624  15.981   6.892  0.00  0.00    -0.204 F 
HETATM   18  C   UNK N   1      33.238  16.660   3.708  0.00  0.00     0.006 A 
HETATM   19  C   UNK N   1      32.145  16.778   2.855  0.00  0.00     0.045 A 
HETATM   20  C   UNK N   1      30.845  16.605   3.335  0.00  0.00     0.146 A 
HETATM   21  F   UNK N   1      29.829  16.678   2.441  0.00  0.00    -0.204 F 
ENDBRANCH   8  14
ENDBRANCH   1   8
BRANCH   5  22
HETATM   22  C   UNK N   1      25.679  19.236   4.362  0.00  0.00     0.030 A 
HETATM   23  C   UNK N   1      25.760  20.270   3.418  0.00  0.00     0.020 A 
HETATM   24  C   UNK N   1      24.635  20.697   2.713  0.00  0.00     0.043 A 
HETATM   25  C   UNK N   1      23.397  20.104   2.954  0.00  0.00     0.119 A 
HETATM   26  C   UNK N   1      23.291  19.064   3.874  0.00  0.00     0.085 A 
HETATM   27  F   UNK N   1      22.293  20.558   2.315  0.00  0.00    -0.206 F 
HETATM   28  C   UNK N   1      24.414  18.626   4.577  0.00  0.00     0.131 A 
HETATM   29  F   UNK N   1      24.253  17.630   5.483  0.00  0.00    -0.205 F 
ENDBRANCH   5  22
BRANCH   4  30
HETATM   30  C   UNK N   1      26.688  20.966   6.860  0.00  0.00     0.251 C 
HETATM   31  O   UNK N   1      27.047  21.980   6.288  0.00  0.00    -0.268 OA
HETATM   32  N   UNK N   1      25.943  21.083   7.979  0.00  0.00    -0.366 N 
HETATM   33  H   UNK N   1      25.256  21.768   8.148  0.00  0.00     0.159 HD
HETATM   34  H   UNK N   1      26.101  20.424   8.692  0.00  0.00     0.159 HD
ENDBRANCH   4  30
TORSDOF 4
ENDMDL
MODEL 2
REMARK VINA RESULT:      -8.0      7.255     10.261
REMARK  4 active torsions:
REMARK  status: ('A' for Active; 'I' for Inactive)
REMARK    1  A    between atoms: C_4  and  N_8 
REMARK    2  A    between atoms: N_8  and  C_9 
REMARK       I    between atoms: N_8  and  C_27 
REMARK    3  A    between atoms: C_12  and  C_24 
REMARK    4  A    between atoms: C_13  and  C_16 
REMARK       I    between atoms: C_24  and  N_26 
REMARK       I    between atoms: C_27  and  N_29 
ROOT
HETATM    1  C   UNK N   1      35.776  14.742  10.772  0.00  0.00     0.117 A 
HETATM    2  C   UNK N   1      35.642  16.010  11.343  0.00  0.00     0.050 A 
HETATM    3  C   UNK N   1      35.184  17.069  10.573  0.00  0.00     0.023 A 
HETATM    4  C   UNK N   1      34.811  16.888   9.233  0.00  0.00     0.059 A 
HETATM    5  C   UNK N   1      34.842  15.553   8.708  0.00  0.00     0.062 A 
HETATM    6  N   UNK N   1      35.340  14.564   9.499  0.00  0.00    -0.340 N 
ATOM      7  HN  UNK N   1      35.390  13.624   9.108  1.00  0.00     0.167 HD
ENDROOT
BRANCH   1   8
HETATM    8  N   UNK N   1      36.392  13.644  11.491  0.00  0.00    -0.244 N 
HETATM    9  C   UNK N   1      37.636  13.174  11.098  0.00  0.00     0.326 C 
HETATM   10  O   UNK N   1      38.162  13.580  10.071  0.00  0.00    -0.247 OA
HETATM   11  N   UNK N   1      38.325  12.299  11.857  0.00  0.00    -0.351 N 
HETATM   12  H   UNK N   1      38.067  12.047  12.773  0.00  0.00     0.160 HD
HETATM   13  H   UNK N   1      39.133  11.887  11.474  0.00  0.00     0.160 HD
BRANCH   8  14
HETATM   14  C   UNK N   1      35.735  13.103  12.671  0.00  0.00     0.122 A 
HETATM   15  C   UNK N   1      34.880  11.969  12.571  0.00  0.00     0.146 A 
HETATM   16  C   UNK N   1      34.259  11.445  13.705  0.00  0.00     0.045 A 
HETATM   17  F   UNK N   1      34.594  11.395  11.377  0.00  0.00    -0.204 F 
HETATM   18  C   UNK N   1      34.462  12.024  14.952  0.00  0.00     0.006 A 
HETATM   19  C   UNK N   1      35.286  13.138  15.075  0.00  0.00     0.045 A 
HETATM   20  C   UNK N   1      35.921  13.682  13.956  0.00  0.00     0.146 A 
HETATM   21  F   UNK N   1      36.754  14.733  14.153  0.00  0.00    -0.204 F 
ENDBRANCH   8  14
ENDBRANCH   1   8
BRANCH   5  22
HETATM   22  C   UNK N   1      34.261  15.112   7.399  0.00  0.00     0.030 A 
HETATM   23  C   UNK N   1      34.984  15.257   6.207  0.00  0.00     0.020 A 
HETATM   24  C   UNK N   1      34.391  15.022   4.967  0.00  0.00     0.043 A 
HETATM   25  C   UNK N   1      33.049  14.652   4.896  0.00  0.00     0.119 A 
HETATM   26  C   UNK N   1      32.312  14.484   6.066  0.00  0.00     0.085 A 
HETATM   27  F   UNK N   1      32.456  14.483   3.692  0.00  0.00    -0.206 F 
HETATM   28  C   UNK N   1      32.902  14.709   7.311  0.00  0.00     0.131 A 
HETATM   29  F   UNK N   1      32.134  14.561   8.418  0.00  0.00    -0.205 F 
ENDBRANCH   5  22
BRANCH   4  30
HETATM   30  C   UNK N   1      34.474  18.123   8.464  0.00  0.00     0.251 C 
HETATM   31  O   UNK N   1      35.245  19.065   8.417  0.00  0.00    -0.268 OA
HETATM   32  N   UNK N   1      33.237  18.273   7.945  0.00  0.00    -0.366 N 
HETATM   33  H   UNK N   1      33.004  18.796   7.144  0.00  0.00     0.159 HD
HETATM   34  H   UNK N   1      32.499  17.819   8.411  0.00  0.00     0.159 HD
ENDBRANCH   4  30
TORSDOF 4
ENDMDL
MODEL 3
REMARK VINA RESULT:      -7.8      7.155     10.078
REMARK  4 active torsions:
REMARK  status: ('A' for Active; 'I' for Inactive)
REMARK    1  A    between atoms: C_4  and  N_8 
REMARK    2  A    between atoms: N_8  and  C_9 
REMARK       I    between atoms: N_8  and  C_27 
REMARK    3  A    between atoms: C_12  and  C_24 
REMARK    4  A    between atoms: C_13  and  C_16 
REMARK       I    between atoms: C_24  and  N_26 
REMARK       I    between atoms: C_27  and  N_29 
ROOT
HETATM    1  C   UNK N   1      35.771  14.634  10.651  0.00  0.00     0.117 A 
HETATM    2  C   UNK N   1      35.663  15.882  11.267  0.00  0.00     0.050 A 
HETATM    3  C   UNK N   1      35.205  16.973  10.542  0.00  0.00     0.023 A 
HETATM    4  C   UNK N   1      34.805  16.842   9.204  0.00  0.00     0.059 A 
HETATM    5  C   UNK N   1      34.811  15.526   8.634  0.00  0.00     0.062 A 
HETATM    6  N   UNK N   1      35.310  14.505   9.381  0.00  0.00    -0.340 N 
ATOM      7  HN  UNK N   1      35.341  13.578   8.957  1.00  0.00     0.167 HD
ENDROOT
BRANCH   1   8
HETATM    8  N   UNK N   1      36.385  13.504  11.320  0.00  0.00    -0.244 N 
HETATM    9  C   UNK N   1      37.700  13.168  11.039  0.00  0.00     0.326 C 
HETATM   10  O   UNK N   1      38.308  13.724  10.134  0.00  0.00    -0.247 OA
HETATM   11  N   UNK N   1      38.365  12.259  11.781  0.00  0.00    -0.351 N 
HETATM   12  H   UNK N   1      38.023  11.887  12.625  0.00  0.00     0.160 HD
HETATM   13  H   UNK N   1      39.243  11.950  11.459  0.00  0.00     0.160 HD
BRANCH   8  14
HETATM   14  C   UNK N   1      35.641  12.788  12.345  0.00  0.00     0.122 A 
HETATM   15  C   UNK N   1      35.629  13.251  13.692  0.00  0.00     0.146 A 
HETATM   16  C   UNK N   1      34.907  12.568  14.671  0.00  0.00     0.045 A 
HETATM   17  F   UNK N   1      36.355  14.327  14.083  0.00  0.00    -0.204 F 
HETATM   18  C   UNK N   1      34.191  11.422  14.350  0.00  0.00     0.006 A 
HETATM   19  C   UNK N   1      34.193  10.944  13.043  0.00  0.00     0.045 A 
HETATM   20  C   UNK N   1      34.907  11.609  12.043  0.00  0.00     0.146 A 
HETATM   21  F   UNK N   1      34.823  11.124  10.780  0.00  0.00    -0.204 F 
ENDBRANCH   8  14
ENDBRANCH   1   8
BRANCH   5  22
HETATM   22  C   UNK N   1      34.200  15.137   7.321  0.00  0.00     0.030 A 
HETATM   23  C   UNK N   1      34.907  15.307   6.122  0.00  0.00     0.020 A 
HETATM   24  C   UNK N   1      34.290  15.123   4.885  0.00  0.00     0.043 A 
HETATM   25  C   UNK N   1      32.941  14.779   4.825  0.00  0.00     0.119 A 
HETATM   26  C   UNK N   1      32.219  14.588   6.001  0.00  0.00     0.085 A 
HETATM   27  F   UNK N   1      32.325  14.659   3.626  0.00  0.00    -0.206 F 
HETATM   28  C   UNK N   1      32.832  14.763   7.242  0.00  0.00     0.131 A 
HETATM   29  F   UNK N   1      32.079  14.593   8.357  0.00  0.00    -0.205 F 
ENDBRANCH   5  22
BRANCH   4  30
HETATM   30  C   UNK N   1      34.470  18.108   8.484  0.00  0.00     0.251 C 
HETATM   31  O   UNK N   1      35.262  19.033   8.435  0.00  0.00    -0.268 OA
HETATM   32  N   UNK N   1      33.219  18.302   8.017  0.00  0.00    -0.366 N 
HETATM   33  H   UNK N   1      32.971  18.854   7.240  0.00  0.00     0.159 HD
HETATM   34  H   UNK N   1      32.488  17.851   8.496  0.00  0.00     0.159 HD
ENDBRANCH   4  30
TORSDOF 4
ENDMDL
MODEL 4
REMARK VINA RESULT:      -7.8      7.145      8.419
REMARK  4 active torsions:
REMARK  status: ('A' for Active; 'I' for Inactive)
REMARK    1  A    between atoms: C_4  and  N_8 
REMARK    2  A    between atoms: N_8  and  C_9 
REMARK       I    between atoms: N_8  and  C_27 
REMARK    3  A    between atoms: C_12  and  C_24 
REMARK    4  A    between atoms: C_13  and  C_16 
REMARK       I    between atoms: C_24  and  N_26 
REMARK       I    between atoms: C_27  and  N_29 
ROOT
HETATM    1  C   UNK N   1      21.032  13.996   8.356  0.00  0.00     0.117 A 
HETATM    2  C   UNK N   1      20.200  14.341   9.423  0.00  0.00     0.050 A 
HETATM    3  C   UNK N   1      19.615  15.599   9.464  0.00  0.00     0.023 A 
HETATM    4  C   UNK N   1      19.807  16.525   8.429  0.00  0.00     0.059 A 
HETATM    5  C   UNK N   1      20.566  16.101   7.288  0.00  0.00     0.062 A 
HETATM    6  N   UNK N   1      21.149  14.872   7.326  0.00  0.00    -0.340 N 
ATOM      7  HN  UNK N   1      21.714  14.589   6.525  1.00  0.00     0.167 HD
ENDROOT
BRANCH   1   8
HETATM    8  N   UNK N   1      21.784  12.757   8.347  0.00  0.00    -0.244 N 
HETATM    9  C   UNK N   1      21.606  11.850   7.314  0.00  0.00     0.326 C 
HETATM   10  O   UNK N   1      20.726  12.015   6.481  0.00  0.00    -0.247 OA
HETATM   11  N   UNK N   1      22.426  10.790   7.164  0.00  0.00    -0.351 N 
HETATM   12  H   UNK N   1      23.259  10.665   7.674  0.00  0.00     0.160 HD
HETATM   13  H   UNK N   1      22.178  10.100   6.507  0.00  0.00     0.160 HD
BRANCH   8  14
HETATM   14  C   UNK N   1      22.782  12.517   9.379  0.00  0.00     0.122 A 
HETATM   15  C   UNK N   1      24.150  12.841   9.156  0.00  0.00     0.146 A 
HETATM   16  C   UNK N   1      25.103  12.620  10.150  0.00  0.00     0.045 A 
HETATM   17  F   UNK N   1      24.585  13.319   7.964  0.00  0.00    -0.204 F 
HETATM   18  C   UNK N   1      24.734  12.076  11.374  0.00  0.00     0.006 A 
HETATM   19  C   UNK N   1      23.405  11.743  11.613  0.00  0.00     0.045 A 
HETATM   20  C   UNK N   1      22.430  11.955  10.636  0.00  0.00     0.146 A 
HETATM   21  F   UNK N   1      21.146  11.661  10.953  0.00  0.00    -0.204 F 
ENDBRANCH   8  14
ENDBRANCH   1   8
BRANCH   5  22
HETATM   22  C   UNK N   1      20.682  16.838   5.988  0.00  0.00     0.030 A 
HETATM   23  C   UNK N   1      21.576  17.909   5.847  0.00  0.00     0.020 A 
HETATM   24  C   UNK N   1      21.566  18.716   4.710  0.00  0.00     0.043 A 
HETATM   25  C   UNK N   1      20.642  18.477   3.695  0.00  0.00     0.119 A 
HETATM   26  C   UNK N   1      19.753  17.410   3.801  0.00  0.00     0.085 A 
HETATM   27  F   UNK N   1      20.590  19.296   2.619  0.00  0.00    -0.206 F 
HETATM   28  C   UNK N   1      19.763  16.592   4.932  0.00  0.00     0.131 A 
HETATM   29  F   UNK N   1      18.859  15.584   5.002  0.00  0.00    -0.205 F 
ENDBRANCH   5  22
BRANCH   4  30
HETATM   30  C   UNK N   1      19.250  17.894   8.649  0.00  0.00     0.251 C 
HETATM   31  O   UNK N   1      19.968  18.878   8.624  0.00  0.00    -0.268 OA
HETATM   32  N   UNK N   1      17.966  18.039   9.042  0.00  0.00    -0.366 N 
HETATM   33  H   UNK N   1      17.388  18.814   8.854  0.00  0.00     0.159 HD
HETATM   34  H   UNK N   1      17.572  17.304   9.563  0.00  0.00     0.159 HD
ENDBRANCH   4  30
TORSDOF 4
ENDMDL
MODEL 5
REMARK VINA RESULT:      -7.6      2.123      7.597
REMARK  4 active torsions:
REMARK  status: ('A' for Active; 'I' for Inactive)
REMARK    1  A    between atoms: C_4  and  N_8 
REMARK    2  A    between atoms: N_8  and  C_9 
REMARK       I    between atoms: N_8  and  C_27 
REMARK    3  A    between atoms: C_12  and  C_24 
REMARK    4  A    between atoms: C_13  and  C_16 
REMARK       I    between atoms: C_24  and  N_26 
REMARK       I    between atoms: C_27  and  N_29 
ROOT
HETATM    1  C   UNK N   1      27.827  17.818   5.819  0.00  0.00     0.117 A 
HETATM    2  C   UNK N   1      27.316  16.612   5.333  0.00  0.00     0.050 A 
HETATM    3  C   UNK N   1      28.174  15.551   5.080  0.00  0.00     0.023 A 
HETATM    4  C   UNK N   1      29.549  15.648   5.342  0.00  0.00     0.059 A 
HETATM    5  C   UNK N   1      30.026  16.853   5.954  0.00  0.00     0.062 A 
HETATM    6  N   UNK N   1      29.145  17.873   6.139  0.00  0.00    -0.340 N 
ATOM      7  HN  UNK N   1      29.498  18.739   6.544  1.00  0.00     0.167 HD
ENDROOT
BRANCH   1   8
HETATM    8  N   UNK N   1      26.995  18.998   5.952  0.00  0.00    -0.244 N 
HETATM    9  C   UNK N   1      27.032  19.739   7.124  0.00  0.00     0.326 C 
HETATM   10  O   UNK N   1      27.652  19.337   8.099  0.00  0.00    -0.247 OA
HETATM   11  N   UNK N   1      26.432  20.943   7.210  0.00  0.00    -0.351 N 
HETATM   12  H   UNK N   1      26.059  21.425   6.437  0.00  0.00     0.160 HD
HETATM   13  H   UNK N   1      26.363  21.365   8.096  0.00  0.00     0.160 HD
BRANCH   8  14
HETATM   14  C   UNK N   1      26.194  19.441   4.821  0.00  0.00     0.122 A 
HETATM   15  C   UNK N   1      24.818  19.090   4.724  0.00  0.00     0.146 A 
HETATM   16  C   UNK N   1      24.049  19.524   3.644  0.00  0.00     0.045 A 
HETATM   17  F   UNK N   1      24.222  18.282   5.635  0.00  0.00    -0.204 F 
HETATM   18  C   UNK N   1      24.614  20.304   2.643  0.00  0.00     0.006 A 
HETATM   19  C   UNK N   1      25.959  20.654   2.711  0.00  0.00     0.045 A 
HETATM   20  C   UNK N   1      26.751  20.234   3.781  0.00  0.00     0.146 A 
HETATM   21  F   UNK N   1      28.039  20.656   3.816  0.00  0.00    -0.204 F 
ENDBRANCH   8  14
ENDBRANCH   1   8
BRANCH   5  22
HETATM   22  C   UNK N   1      31.395  17.061   6.531  0.00  0.00     0.030 A 
HETATM   23  C   UNK N   1      31.576  17.212   7.913  0.00  0.00     0.020 A 
HETATM   24  C   UNK N   1      32.809  17.586   8.445  0.00  0.00     0.043 A 
HETATM   25  C   UNK N   1      33.886  17.835   7.596  0.00  0.00     0.119 A 
HETATM   26  C   UNK N   1      33.739  17.677   6.220  0.00  0.00     0.085 A 
HETATM   27  F   UNK N   1      35.067  18.257   8.105  0.00  0.00    -0.206 F 
HETATM   28  C   UNK N   1      32.509  17.295   5.681  0.00  0.00     0.131 A 
HETATM   29  F   UNK N   1      32.408  17.183   4.334  0.00  0.00    -0.205 F 
ENDBRANCH   5  22
BRANCH   4  30
HETATM   30  C   UNK N   1      30.392  14.498   4.894  0.00  0.00     0.251 C 
HETATM   31  O   UNK N   1      30.827  13.688   5.694  0.00  0.00    -0.268 OA
HETATM   32  N   UNK N   1      30.818  14.438   3.615  0.00  0.00    -0.366 N 
HETATM   33  H   UNK N   1      31.022  13.616   3.111  0.00  0.00     0.159 HD
HETATM   34  H   UNK N   1      30.936  15.292   3.142  0.00  0.00     0.159 HD
ENDBRANCH   4  30
TORSDOF 4
ENDMDL
MODEL 6
REMARK VINA RESULT:      -7.5      2.548      7.851
REMARK  4 active torsions:
REMARK  status: ('A' for Active; 'I' for Inactive)
REMARK    1  A    between atoms: C_4  and  N_8 
REMARK    2  A    between atoms: N_8  and  C_9 
REMARK       I    between atoms: N_8  and  C_27 
REMARK    3  A    between atoms: C_12  and  C_24 
REMARK    4  A    between atoms: C_13  and  C_16 
REMARK       I    between atoms: C_24  and  N_26 
REMARK       I    between atoms: C_27  and  N_29 
ROOT
HETATM    1  C   UNK N   1      28.667  17.129   6.184  0.00  0.00     0.117 A 
HETATM    2  C   UNK N   1      28.302  15.997   5.454  0.00  0.00     0.050 A 
HETATM    3  C   UNK N   1      29.255  15.035   5.149  0.00  0.00     0.023 A 
HETATM    4  C   UNK N   1      30.579  15.154   5.596  0.00  0.00     0.059 A 
HETATM    5  C   UNK N   1      30.897  16.264   6.446  0.00  0.00     0.062 A 
HETATM    6  N   UNK N   1      29.931  17.195   6.675  0.00  0.00    -0.340 N 
ATOM      7  HN  UNK N   1      30.173  17.999   7.253  1.00  0.00     0.167 HD
ENDROOT
BRANCH   1   8
HETATM    8  N   UNK N   1      27.746  18.230   6.394  0.00  0.00    -0.244 N 
HETATM    9  C   UNK N   1      27.678  18.845   7.635  0.00  0.00     0.326 C 
HETATM   10  O   UNK N   1      28.284  18.387   8.594  0.00  0.00    -0.247 OA
HETATM   11  N   UNK N   1      26.989  19.990   7.811  0.00  0.00    -0.351 N 
HETATM   12  H   UNK N   1      26.614  20.523   7.074  0.00  0.00     0.160 HD
HETATM   13  H   UNK N   1      26.851  20.311   8.732  0.00  0.00     0.160 HD
BRANCH   8  14
HETATM   14  C   UNK N   1      26.964  18.732   5.275  0.00  0.00     0.122 A 
HETATM   15  C   UNK N   1      27.451  19.802   4.470  0.00  0.00     0.146 A 
HETATM   16  C   UNK N   1      26.705  20.276   3.392  0.00  0.00     0.045 A 
HETATM   17  F   UNK N   1      28.618  20.432   4.752  0.00  0.00    -0.204 F 
HETATM   18  C   UNK N   1      25.471  19.715   3.086  0.00  0.00     0.006 A 
HETATM   19  C   UNK N   1      24.969  18.675   3.861  0.00  0.00     0.045 A 
HETATM   20  C   UNK N   1      25.696  18.180   4.947  0.00  0.00     0.146 A 
HETATM   21  F   UNK N   1      25.177  17.129   5.627  0.00  0.00    -0.204 F 
ENDBRANCH   8  14
ENDBRANCH   1   8
BRANCH   5  22
HETATM   22  C   UNK N   1      32.169  16.442   7.219  0.00  0.00     0.030 A 
HETATM   23  C   UNK N   1      32.326  15.863   8.486  0.00  0.00     0.020 A 
HETATM   24  C   UNK N   1      33.424  16.168   9.290  0.00  0.00     0.043 A 
HETATM   25  C   UNK N   1      34.382  17.076   8.844  0.00  0.00     0.119 A 
HETATM   26  C   UNK N   1      34.260  17.653   7.582  0.00  0.00     0.085 A 
HETATM   27  F   UNK N   1      35.416  17.419   9.647  0.00  0.00    -0.206 F 
HETATM   28  C   UNK N   1      33.168  17.346   6.769  0.00  0.00     0.131 A 
HETATM   29  F   UNK N   1      33.079  17.956   5.561  0.00  0.00    -0.205 F 
ENDBRANCH   5  22
BRANCH   4  30
HETATM   30  C   UNK N   1      31.547  14.137   5.085  0.00  0.00     0.251 C 
HETATM   31  O   UNK N   1      32.008  14.216   3.961  0.00  0.00    -0.268 OA
HETATM   32  N   UNK N   1      31.796  13.026   5.811  0.00  0.00    -0.366 N 
HETATM   33  H   UNK N   1      32.633  12.507   5.805  0.00  0.00     0.159 HD
HETATM   34  H   UNK N   1      31.076  12.705   6.399  0.00  0.00     0.159 HD
ENDBRANCH   4  30
TORSDOF 4
ENDMDL
MODEL 7
REMARK VINA RESULT:      -7.4      7.883     12.005
REMARK  4 active torsions:
REMARK  status: ('A' for Active; 'I' for Inactive)
REMARK    1  A    between atoms: C_4  and  N_8 
REMARK    2  A    between atoms: N_8  and  C_9 
REMARK       I    between atoms: N_8  and  C_27 
REMARK    3  A    between atoms: C_12  and  C_24 
REMARK    4  A    between atoms: C_13  and  C_16 
REMARK       I    between atoms: C_24  and  N_26 
REMARK       I    between atoms: C_27  and  N_29 
ROOT
HETATM    1  C   UNK N   1      35.247  14.805  10.159  0.00  0.00     0.117 A 
HETATM    2  C   UNK N   1      35.672  15.711  11.133  0.00  0.00     0.050 A 
HETATM    3  C   UNK N   1      35.900  15.273  12.430  0.00  0.00     0.023 A 
HETATM    4  C   UNK N   1      35.753  13.923  12.779  0.00  0.00     0.059 A 
HETATM    5  C   UNK N   1      35.435  12.995  11.733  0.00  0.00     0.062 A 
HETATM    6  N   UNK N   1      35.182  13.490  10.491  0.00  0.00    -0.340 N 
ATOM      7  HN  UNK N   1      34.925  12.829   9.759  1.00  0.00     0.167 HD
ENDROOT
BRANCH   1   8
HETATM    8  N   UNK N   1      34.850  15.241   8.834  0.00  0.00    -0.244 N 
HETATM    9  C   UNK N   1      35.528  14.770   7.721  0.00  0.00     0.326 C 
HETATM   10  O   UNK N   1      36.543  14.098   7.844  0.00  0.00    -0.247 OA
HETATM   11  N   UNK N   1      35.065  14.992   6.474  0.00  0.00    -0.351 N 
HETATM   12  H   UNK N   1      34.178  15.369   6.278  0.00  0.00     0.160 HD
HETATM   13  H   UNK N   1      35.649  14.763   5.715  0.00  0.00     0.160 HD
BRANCH   8  14
HETATM   14  C   UNK N   1      33.688  16.104   8.683  0.00  0.00     0.122 A 
HETATM   15  C   UNK N   1      32.371  15.571   8.769  0.00  0.00     0.146 A 
HETATM   16  C   UNK N   1      31.258  16.401   8.633  0.00  0.00     0.045 A 
HETATM   17  F   UNK N   1      32.148  14.243   8.926  0.00  0.00    -0.204 F 
HETATM   18  C   UNK N   1      31.416  17.763   8.409  0.00  0.00     0.006 A 
HETATM   19  C   UNK N   1      32.693  18.308   8.314  0.00  0.00     0.045 A 
HETATM   20  C   UNK N   1      33.824  17.499   8.446  0.00  0.00     0.146 A 
HETATM   21  F   UNK N   1      35.038  18.101   8.398  0.00  0.00    -0.204 F 
ENDBRANCH   8  14
ENDBRANCH   1   8
BRANCH   5  22
HETATM   22  C   UNK N   1      35.473  11.501  11.844  0.00  0.00     0.030 A 
HETATM   23  C   UNK N   1      34.315  10.774  12.154  0.00  0.00     0.020 A 
HETATM   24  C   UNK N   1      34.370   9.410  12.439  0.00  0.00     0.043 A 
HETATM   25  C   UNK N   1      35.597   8.748  12.436  0.00  0.00     0.119 A 
HETATM   26  C   UNK N   1      36.761   9.442  12.115  0.00  0.00     0.085 A 
HETATM   27  F   UNK N   1      35.660   7.439  12.772  0.00  0.00    -0.206 F 
HETATM   28  C   UNK N   1      36.712  10.805  11.820  0.00  0.00     0.131 A 
HETATM   29  F   UNK N   1      37.876  11.442  11.542  0.00  0.00    -0.205 F 
ENDBRANCH   5  22
BRANCH   4  30
HETATM   30  C   UNK N   1      35.883  13.594  14.231  0.00  0.00     0.251 C 
HETATM   31  O   UNK N   1      34.902  13.348  14.911  0.00  0.00    -0.268 OA
HETATM   32  N   UNK N   1      37.078  13.727  14.844  0.00  0.00    -0.366 N 
HETATM   33  H   UNK N   1      37.389  13.211  15.623  0.00  0.00     0.159 HD
HETATM   34  H   UNK N   1      37.695  14.400  14.479  0.00  0.00     0.159 HD
ENDBRANCH   4  30
TORSDOF 4
ENDMDL
MODEL 8
REMARK VINA RESULT:      -7.4     14.127     17.087
REMARK  4 active torsions:
REMARK  status: ('A' for Active; 'I' for Inactive)
REMARK    1  A    between atoms: C_4  and  N_8 
REMARK    2  A    between atoms: N_8  and  C_9 
REMARK       I    between atoms: N_8  and  C_27 
REMARK    3  A    between atoms: C_12  and  C_24 
REMARK    4  A    between atoms: C_13  and  C_16 
REMARK       I    between atoms: C_24  and  N_26 
REMARK       I    between atoms: C_27  and  N_29 
ROOT
HETATM    1  C   UNK N   1      35.210  10.806  18.543  0.00  0.00     0.117 A 
HETATM    2  C   UNK N   1      35.129  12.193  18.687  0.00  0.00     0.050 A 
HETATM    3  C   UNK N   1      35.331  13.014  17.587  0.00  0.00     0.023 A 
HETATM    4  C   UNK N   1      35.575  12.479  16.314  0.00  0.00     0.059 A 
HETATM    5  C   UNK N   1      35.531  11.052  16.172  0.00  0.00     0.062 A 
HETATM    6  N   UNK N   1      35.371  10.300  17.294  0.00  0.00    -0.340 N 
ATOM      7  HN  UNK N   1      35.374   9.286  17.191  1.00  0.00     0.167 HD
ENDROOT
BRANCH   1   8
HETATM    8  N   UNK N   1      35.158   9.918  19.688  0.00  0.00    -0.244 N 
HETATM    9  C   UNK N   1      36.299   9.703  20.445  0.00  0.00     0.326 C 
HETATM   10  O   UNK N   1      37.382  10.143  20.084  0.00  0.00    -0.247 OA
HETATM   11  N   UNK N   1      36.244   9.049  21.624  0.00  0.00    -0.351 N 
HETATM   12  H   UNK N   1      35.405   8.810  22.078  0.00  0.00     0.160 HD
HETATM   13  H   UNK N   1      37.093   8.798  22.054  0.00  0.00     0.160 HD
BRANCH   8  14
HETATM   14  C   UNK N   1      33.888   9.327  20.080  0.00  0.00     0.122 A 
HETATM   15  C   UNK N   1      33.437   8.114  19.487  0.00  0.00     0.146 A 
HETATM   16  C   UNK N   1      32.223   7.544  19.871  0.00  0.00     0.045 A 
HETATM   17  F   UNK N   1      34.133   7.501  18.497  0.00  0.00    -0.204 F 
HETATM   18  C   UNK N   1      31.431   8.153  20.836  0.00  0.00     0.006 A 
HETATM   19  C   UNK N   1      31.845   9.343  21.425  0.00  0.00     0.045 A 
HETATM   20  C   UNK N   1      33.057   9.935  21.060  0.00  0.00     0.146 A 
HETATM   21  F   UNK N   1      33.428  11.064  21.710  0.00  0.00    -0.204 F 
ENDBRANCH   8  14
ENDBRANCH   1   8
BRANCH   5  22
HETATM   22  C   UNK N   1      35.523  10.300  14.875  0.00  0.00     0.030 A 
HETATM   23  C   UNK N   1      36.714   9.807  14.324  0.00  0.00     0.020 A 
HETATM   24  C   UNK N   1      36.748   9.268  13.038  0.00  0.00     0.043 A 
HETATM   25  C   UNK N   1      35.586   9.229  12.269  0.00  0.00     0.119 A 
HETATM   26  C   UNK N   1      34.386   9.696  12.799  0.00  0.00     0.085 A 
HETATM   27  F   UNK N   1      35.629   8.763  10.999  0.00  0.00    -0.206 F 
HETATM   28  C   UNK N   1      34.343  10.229  14.088  0.00  0.00     0.131 A 
HETATM   29  F   UNK N   1      33.156  10.698  14.547  0.00  0.00    -0.205 F 
ENDBRANCH   5  22
BRANCH   4  30
HETATM   30  C   UNK N   1      35.922  13.456  15.237  0.00  0.00     0.251 C 
HETATM   31  O   UNK N   1      35.142  13.699  14.333  0.00  0.00    -0.268 OA
HETATM   32  N   UNK N   1      37.172  13.959  15.166  0.00  0.00    -0.366 N 
HETATM   33  H   UNK N   1      37.422  14.838  14.798  0.00  0.00     0.159 HD
HETATM   34  H   UNK N   1      37.901  13.397  15.514  0.00  0.00     0.159 HD
ENDBRANCH   4  30
TORSDOF 4
ENDMDL
MODEL 9
REMARK VINA RESULT:      -7.3      3.231      4.536
REMARK  4 active torsions:
REMARK  status: ('A' for Active; 'I' for Inactive)
REMARK    1  A    between atoms: C_4  and  N_8 
REMARK    2  A    between atoms: N_8  and  C_9 
REMARK       I    between atoms: N_8  and  C_27 
REMARK    3  A    between atoms: C_12  and  C_24 
REMARK    4  A    between atoms: C_13  and  C_16 
REMARK       I    between atoms: C_24  and  N_26 
REMARK       I    between atoms: C_27  and  N_29 
ROOT
HETATM    1  C   UNK N   1      24.807  16.280   4.460  0.00  0.00     0.117 A 
HETATM    2  C   UNK N   1      24.333  15.589   5.577  0.00  0.00     0.050 A 
HETATM    3  C   UNK N   1      23.166  16.004   6.203  0.00  0.00     0.023 A 
HETATM    4  C   UNK N   1      22.422  17.086   5.711  0.00  0.00     0.059 A 
HETATM    5  C   UNK N   1      22.865  17.700   4.493  0.00  0.00     0.062 A 
HETATM    6  N   UNK N   1      24.038  17.277   3.951  0.00  0.00    -0.340 N 
ATOM      7  HN  UNK N   1      24.365  17.740   3.103  1.00  0.00     0.167 HD
ENDROOT
BRANCH   1   8
HETATM    8  N   UNK N   1      26.096  15.980   3.869  0.00  0.00    -0.244 N 
HETATM    9  C   UNK N   1      26.159  15.334   2.643  0.00  0.00     0.326 C 
HETATM   10  O   UNK N   1      25.147  14.892   2.117  0.00  0.00    -0.247 OA
HETATM   11  N   UNK N   1      27.322  15.219   1.972  0.00  0.00    -0.351 N 
HETATM   12  H   UNK N   1      28.150  15.686   2.227  0.00  0.00     0.160 HD
HETATM   13  H   UNK N   1      27.345  14.633   1.181  0.00  0.00     0.160 HD
BRANCH   8  14
HETATM   14  C   UNK N   1      27.310  16.436   4.528  0.00  0.00     0.122 A 
HETATM   15  C   UNK N   1      27.764  17.776   4.368  0.00  0.00     0.146 A 
HETATM   16  C   UNK N   1      28.923  18.215   5.009  0.00  0.00     0.045 A 
HETATM   17  F   UNK N   1      27.128  18.652   3.553  0.00  0.00    -0.204 F 
HETATM   18  C   UNK N   1      29.657  17.349   5.811  0.00  0.00     0.006 A 
HETATM   19  C   UNK N   1      29.239  16.033   5.977  0.00  0.00     0.045 A 
HETATM   20  C   UNK N   1      28.082  15.568   5.348  0.00  0.00     0.146 A 
HETATM   21  F   UNK N   1      27.700  14.291   5.594  0.00  0.00    -0.204 F 
ENDBRANCH   8  14
ENDBRANCH   1   8
BRANCH   5  22
HETATM   22  C   UNK N   1      22.092  18.695   3.681  0.00  0.00     0.030 A 
HETATM   23  C   UNK N   1      20.819  18.381   3.184  0.00  0.00     0.020 A 
HETATM   24  C   UNK N   1      20.168  19.220   2.279  0.00  0.00     0.043 A 
HETATM   25  C   UNK N   1      20.791  20.386   1.839  0.00  0.00     0.119 A 
HETATM   26  C   UNK N   1      22.049  20.731   2.330  0.00  0.00     0.085 A 
HETATM   27  F   UNK N   1      20.187  21.170   0.916  0.00  0.00    -0.206 F 
HETATM   28  C   UNK N   1      22.702  19.900   3.241  0.00  0.00     0.131 A 
HETATM   29  F   UNK N   1      23.937  20.264   3.666  0.00  0.00    -0.205 F 
ENDBRANCH   5  22
BRANCH   4  30
HETATM   30  C   UNK N   1      21.267  17.533   6.548  0.00  0.00     0.251 C 
HETATM   31  O   UNK N   1      21.243  18.645   7.044  0.00  0.00    -0.268 OA
HETATM   32  N   UNK N   1      20.311  16.647   6.897  0.00  0.00    -0.366 N 
HETATM   33  H   UNK N   1      19.368  16.859   7.086  0.00  0.00     0.159 HD
HETATM   34  H   UNK N   1      20.580  15.704   6.971  0.00  0.00     0.159 HD
ENDBRANCH   4  30
TORSDOF 4
ENDMDL
