MODEL 1
REMARK VINA RESULT:      -7.4      0.000      0.000
REMARK  13 active torsions:
REMARK  status: ('A' for Active; 'I' for Inactive)
REMARK    1  A    between atoms: O_2  and  C_19 
REMARK    2  A    between atoms: O_2  and  C_27 
REMARK    3  A    between atoms: O_5  and  C_38 
REMARK       I    between atoms: N_7  and  C_16 
REMARK    4  A    between atoms: C_18  and  N_7 
REMARK    5  A    between atoms: N_8  and  C_28 
REMARK    6  A    between atoms: C_9  and  C_12 
REMARK    7  A    between atoms: C_9  and  C_16 
REMARK    8  A    between atoms: C_12  and  C_15 
REMARK    9  A    between atoms: C_15  and  C_17 
REMARK   10  A    between atoms: C_15  and  C_19 
REMARK   11  A    between atoms: C_17  and  C_20 
REMARK   12  A    between atoms: C_20  and  C_24 
REMARK   13  A    between atoms: C_28  and  C_38 
ROOT
HETATM    1  O   UNK N   1      26.939  14.580   5.938  0.00  0.00    -0.273 OA
HETATM    2  N   UNK N   1      27.806  16.306   4.793  0.00  0.00    -0.347 N 
HETATM    3  C   UNK N   1      26.837  15.375   5.012  0.00  0.00     0.227 C 
HETATM    4  H   UNK N   1      27.653  17.001   4.113  0.00  0.00     0.163 HD
ENDROOT
BRANCH   3   5
HETATM    5  C   UNK N   1      25.635  15.304   4.108  0.00  0.00     0.042 C 
HETATM    6  C   UNK N   1      25.908  15.934   2.752  0.00  0.00     0.019 C 
HETATM    7  C   UNK N   1      26.629  14.868   1.946  0.00  0.00     0.001 C 
HETATM    8  C   UNK N   1      26.203  13.535   2.539  0.00  0.00     0.001 C 
HETATM    9  C   UNK N   1      25.334  13.861   3.743  0.00  0.00     0.019 C 
BRANCH   5  10
HETATM   10  C   UNK N   1      24.412  15.906   4.800  0.00  0.00     0.034 C 
BRANCH  10  11
HETATM   11  C   UNK N   1      23.565  16.884   3.969  0.00  0.00     0.087 C 
BRANCH  11  12
HETATM   12  C   UNK N   1      23.549  18.354   4.391  0.00  0.00     0.019 C 
BRANCH  12  13
HETATM   13  C   UNK N   1      24.475  19.184   3.500  0.00  0.00     0.039 C 
BRANCH  13  14
HETATM   14  C   UNK N   1      25.644  19.709   4.269  0.00  0.00    -0.058 A 
HETATM   15  C   UNK N   1      25.419  20.407   5.460  0.00  0.00     0.007 A 
HETATM   16  C   UNK N   1      26.489  20.996   6.139  0.00  0.00     0.001 A 
HETATM   17  C   UNK N   1      27.785  20.890   5.626  0.00  0.00     0.000 A 
HETATM   18  C   UNK N   1      28.014  20.182   4.441  0.00  0.00     0.001 A 
HETATM   19  C   UNK N   1      26.943  19.593   3.763  0.00  0.00     0.007 A 
ENDBRANCH  13  14
ENDBRANCH  12  13
ENDBRANCH  11  12
BRANCH  11  20
HETATM   20  C   UNK N   1      22.296  16.340   3.376  0.00  0.00     0.263 C 
HETATM   21  O   UNK N   1      21.234  16.895   3.596  0.00  0.00    -0.265 OA
BRANCH  20  22
HETATM   22  O   UNK N   1      22.326  15.259   2.561  0.00  0.00    -0.322 OA
BRANCH  22  23
HETATM   23  C   UNK N   1      21.613  15.208   1.385  0.00  0.00     0.174 C 
HETATM   24  C   UNK N   1      21.662  13.804   0.821  0.00  0.00     0.034 C 
ENDBRANCH  22  23
ENDBRANCH  20  22
ENDBRANCH  11  20
ENDBRANCH  10  11
ENDBRANCH   5  10
ENDBRANCH   3   5
BRANCH   2  25
HETATM   25  C   UNK N   1      29.055  16.311   5.525  0.00  0.00     0.177 C 
HETATM   26  C   UNK N   1      30.225  16.293   4.559  0.00  0.00     0.039 C 
HETATM   27  C   UNK N   1      31.124  17.477   4.723  0.00  0.00     0.043 C 
HETATM   28  C   UNK N   1      31.937  17.280   5.943  0.00  0.00    -0.031 A 
HETATM   29  C   UNK N   1      31.385  17.357   7.254  0.00  0.00     0.044 A 
HETATM   30  C   UNK N   1      33.314  17.106   5.766  0.00  0.00     0.009 A 
HETATM   31  N   UNK N   1      29.995  17.651   7.500  0.00  0.00    -0.306 N 
HETATM   32  C   UNK N   1      32.274  17.287   8.344  0.00  0.00     0.030 A 
HETATM   33  C   UNK N   1      28.964  17.353   6.641  0.00  0.00     0.247 C 
HETATM   34  O   UNK N   1      27.869  17.863   6.831  0.00  0.00    -0.271 OA
HETATM   35  C   UNK N   1      33.645  17.102   8.152  0.00  0.00     0.002 A 
HETATM   36  C   UNK N   1      34.164  17.006   6.864  0.00  0.00     0.001 A 
BRANCH  31  37
HETATM   37  C   UNK N   1      29.674  18.393   8.721  0.00  0.00     0.242 C 
BRANCH  37  38
HETATM   38  C   UNK N   1      28.796  17.607   9.667  0.00  0.00     0.158 C 
HETATM   39  O   UNK N   1      29.278  16.782  10.429  0.00  0.00    -0.649 OA
BRANCH  38  40
HETATM   40  O   UNK N   1      27.462  17.771   9.633  0.00  0.00    -0.775 OA
HETATM   41  H   UNK N   1      26.858  17.447  10.271  0.00  0.00     0.167 HD
ENDBRANCH  38  40
ENDBRANCH  37  38
ENDBRANCH  31  37
ENDBRANCH   2  25
TORSDOF 13
ENDMDL
MODEL 2
REMARK VINA RESULT:      -7.3      1.867      4.225
REMARK  13 active torsions:
REMARK  status: ('A' for Active; 'I' for Inactive)
REMARK    1  A    between atoms: O_2  and  C_19 
REMARK    2  A    between atoms: O_2  and  C_27 
REMARK    3  A    between atoms: O_5  and  C_38 
REMARK       I    between atoms: N_7  and  C_16 
REMARK    4  A    between atoms: C_18  and  N_7 
REMARK    5  A    between atoms: N_8  and  C_28 
REMARK    6  A    between atoms: C_9  and  C_12 
REMARK    7  A    between atoms: C_9  and  C_16 
REMARK    8  A    between atoms: C_12  and  C_15 
REMARK    9  A    between atoms: C_15  and  C_17 
REMARK   10  A    between atoms: C_15  and  C_19 
REMARK   11  A    between atoms: C_17  and  C_20 
REMARK   12  A    between atoms: C_20  and  C_24 
REMARK   13  A    between atoms: C_28  and  C_38 
ROOT
HETATM    1  O   UNK N   1      26.932  14.634   5.888  0.00  0.00    -0.273 OA
HETATM    2  N   UNK N   1      27.897  16.206   4.608  0.00  0.00    -0.347 N 
HETATM    3  C   UNK N   1      26.895  15.324   4.878  0.00  0.00     0.227 C 
HETATM    4  H   UNK N   1      27.794  16.825   3.850  0.00  0.00     0.163 HD
ENDROOT
BRANCH   3   5
HETATM    5  C   UNK N   1      25.737  15.178   3.927  0.00  0.00     0.042 C 
HETATM    6  C   UNK N   1      26.191  15.175   2.476  0.00  0.00     0.019 C 
HETATM    7  C   UNK N   1      26.652  13.756   2.197  0.00  0.00     0.001 C 
HETATM    8  C   UNK N   1      25.899  12.870   3.177  0.00  0.00     0.001 C 
HETATM    9  C   UNK N   1      25.104  13.806   4.073  0.00  0.00     0.019 C 
BRANCH   5  10
HETATM   10  C   UNK N   1      24.679  16.245   4.209  0.00  0.00     0.034 C 
BRANCH  10  11
HETATM   11  C   UNK N   1      23.223  15.759   4.307  0.00  0.00     0.087 C 
BRANCH  11  12
HETATM   12  C   UNK N   1      22.364  15.816   3.043  0.00  0.00     0.019 C 
BRANCH  12  13
HETATM   13  C   UNK N   1      21.622  14.494   2.831  0.00  0.00     0.039 C 
BRANCH  13  14
HETATM   14  C   UNK N   1      22.384  13.582   1.925  0.00  0.00    -0.058 A 
HETATM   15  C   UNK N   1      23.064  14.121   0.829  0.00  0.00     0.007 A 
HETATM   16  C   UNK N   1      23.694  13.276  -0.088  0.00  0.00     0.001 A 
HETATM   17  C   UNK N   1      23.641  11.890   0.088  0.00  0.00     0.000 A 
HETATM   18  C   UNK N   1      22.971  11.349   1.190  0.00  0.00     0.001 A 
HETATM   19  C   UNK N   1      22.342  12.195   2.107  0.00  0.00     0.007 A 
ENDBRANCH  13  14
ENDBRANCH  12  13
ENDBRANCH  11  12
BRANCH  11  20
HETATM   20  C   UNK N   1      22.518  16.000   5.611  0.00  0.00     0.263 C 
HETATM   21  O   UNK N   1      22.963  15.527   6.642  0.00  0.00    -0.265 OA
BRANCH  20  22
HETATM   22  O   UNK N   1      21.410  16.777   5.660  0.00  0.00    -0.322 OA
BRANCH  22  23
HETATM   23  C   UNK N   1      21.471  18.125   5.931  0.00  0.00     0.174 C 
HETATM   24  C   UNK N   1      21.324  18.910   4.645  0.00  0.00     0.034 C 
ENDBRANCH  22  23
ENDBRANCH  20  22
ENDBRANCH  11  20
ENDBRANCH  10  11
ENDBRANCH   5  10
ENDBRANCH   3   5
BRANCH   2  25
HETATM   25  C   UNK N   1      29.109  16.266   5.398  0.00  0.00     0.177 C 
HETATM   26  C   UNK N   1      30.325  16.194   4.492  0.00  0.00     0.039 C 
HETATM   27  C   UNK N   1      31.210  17.392   4.622  0.00  0.00     0.043 C 
HETATM   28  C   UNK N   1      31.964  17.279   5.890  0.00  0.00    -0.031 A 
HETATM   29  C   UNK N   1      31.348  17.436   7.165  0.00  0.00     0.044 A 
HETATM   30  C   UNK N   1      33.348  17.104   5.791  0.00  0.00     0.009 A 
HETATM   31  N   UNK N   1      29.948  17.737   7.325  0.00  0.00    -0.306 N 
HETATM   32  C   UNK N   1      32.184  17.443   8.299  0.00  0.00     0.030 A 
HETATM   33  C   UNK N   1      28.960  17.377   6.438  0.00  0.00     0.247 C 
HETATM   34  O   UNK N   1      27.856  17.891   6.542  0.00  0.00    -0.271 OA
HETATM   35  C   UNK N   1      33.564  17.256   8.185  0.00  0.00     0.002 A 
HETATM   36  C   UNK N   1      34.144  17.080   6.932  0.00  0.00     0.001 A 
BRANCH  31  37
HETATM   37  C   UNK N   1      29.565  18.553   8.478  0.00  0.00     0.242 C 
BRANCH  37  38
HETATM   38  C   UNK N   1      28.715  17.796   9.473  0.00  0.00     0.158 C 
HETATM   39  O   UNK N   1      29.218  16.985  10.236  0.00  0.00    -0.649 OA
BRANCH  38  40
HETATM   40  O   UNK N   1      27.383  17.972   9.483  0.00  0.00    -0.775 OA
HETATM   41  H   UNK N   1      26.940  18.783   9.333  0.00  0.00     0.167 HD
ENDBRANCH  38  40
ENDBRANCH  37  38
ENDBRANCH  31  37
ENDBRANCH   2  25
TORSDOF 13
ENDMDL
MODEL 3
REMARK VINA RESULT:      -7.3      3.150      8.718
REMARK  13 active torsions:
REMARK  status: ('A' for Active; 'I' for Inactive)
REMARK    1  A    between atoms: O_2  and  C_19 
REMARK    2  A    between atoms: O_2  and  C_27 
REMARK    3  A    between atoms: O_5  and  C_38 
REMARK       I    between atoms: N_7  and  C_16 
REMARK    4  A    between atoms: C_18  and  N_7 
REMARK    5  A    between atoms: N_8  and  C_28 
REMARK    6  A    between atoms: C_9  and  C_12 
REMARK    7  A    between atoms: C_9  and  C_16 
REMARK    8  A    between atoms: C_12  and  C_15 
REMARK    9  A    between atoms: C_15  and  C_17 
REMARK   10  A    between atoms: C_15  and  C_19 
REMARK   11  A    between atoms: C_17  and  C_20 
REMARK   12  A    between atoms: C_20  and  C_24 
REMARK   13  A    between atoms: C_28  and  C_38 
ROOT
HETATM    1  O   UNK N   1      23.160  15.552   5.096  0.00  0.00    -0.273 OA
HETATM    2  N   UNK N   1      23.693  15.550   2.915  0.00  0.00    -0.347 N 
HETATM    3  C   UNK N   1      23.890  15.955   4.200  0.00  0.00     0.227 C 
HETATM    4  H   UNK N   1      24.354  15.799   2.230  0.00  0.00     0.163 HD
ENDROOT
BRANCH   3   5
HETATM    5  C   UNK N   1      25.001  16.915   4.530  0.00  0.00     0.042 C 
HETATM    6  C   UNK N   1      25.931  16.362   5.597  0.00  0.00     0.019 C 
HETATM    7  C   UNK N   1      26.890  15.440   4.864  0.00  0.00     0.001 C 
HETATM    8  C   UNK N   1      26.941  15.945   3.431  0.00  0.00     0.001 C 
HETATM    9  C   UNK N   1      25.930  17.076   3.340  0.00  0.00     0.019 C 
BRANCH   5  10
HETATM   10  C   UNK N   1      24.429  18.284   4.901  0.00  0.00     0.034 C 
BRANCH  10  11
HETATM   11  C   UNK N   1      24.952  19.487   4.099  0.00  0.00     0.087 C 
BRANCH  11  12
HETATM   12  C   UNK N   1      25.939  20.432   4.787  0.00  0.00     0.019 C 
BRANCH  12  13
HETATM   13  C   UNK N   1      27.373  20.141   4.337  0.00  0.00     0.039 C 
BRANCH  13  14
HETATM   14  C   UNK N   1      28.098  19.302   5.338  0.00  0.00    -0.058 A 
HETATM   15  C   UNK N   1      29.064  18.393   4.895  0.00  0.00     0.007 A 
HETATM   16  C   UNK N   1      29.677  17.526   5.803  0.00  0.00     0.001 A 
HETATM   17  C   UNK N   1      29.324  17.566   7.155  0.00  0.00     0.000 A 
HETATM   18  C   UNK N   1      28.367  18.483   7.602  0.00  0.00     0.001 A 
HETATM   19  C   UNK N   1      27.754  19.350   6.694  0.00  0.00     0.007 A 
ENDBRANCH  13  14
ENDBRANCH  12  13
ENDBRANCH  11  12
BRANCH  11  20
HETATM   20  C   UNK N   1      23.999  20.108   3.118  0.00  0.00     0.263 C 
HETATM   21  O   UNK N   1      24.406  20.915   2.300  0.00  0.00    -0.265 OA
BRANCH  20  22
HETATM   22  O   UNK N   1      22.694  19.748   3.105  0.00  0.00    -0.322 OA
BRANCH  22  23
HETATM   23  C   UNK N   1      21.703  20.601   2.677  0.00  0.00     0.174 C 
HETATM   24  C   UNK N   1      20.352  20.062   3.095  0.00  0.00     0.034 C 
ENDBRANCH  22  23
ENDBRANCH  20  22
ENDBRANCH  11  20
ENDBRANCH  10  11
ENDBRANCH   5  10
ENDBRANCH   3   5
BRANCH   2  25
HETATM   25  C   UNK N   1      22.543  14.763   2.519  0.00  0.00     0.177 C 
HETATM   26  C   UNK N   1      21.359  15.672   2.246  0.00  0.00     0.039 C 
HETATM   27  C   UNK N   1      20.845  15.541   0.847  0.00  0.00     0.043 C 
HETATM   28  C   UNK N   1      20.085  14.276   0.747  0.00  0.00    -0.031 A 
HETATM   29  C   UNK N   1      20.715  12.999   0.772  0.00  0.00     0.044 A 
HETATM   30  C   UNK N   1      18.707  14.380   0.528  0.00  0.00     0.009 A 
HETATM   31  N   UNK N   1      22.143  12.834   0.876  0.00  0.00    -0.306 N 
HETATM   32  C   UNK N   1      19.911  11.868   0.533  0.00  0.00     0.030 A 
HETATM   33  C   UNK N   1      22.994  13.719   1.497  0.00  0.00     0.247 C 
HETATM   34  O   UNK N   1      24.198  13.610   1.313  0.00  0.00    -0.271 OA
HETATM   35  C   UNK N   1      18.534  11.986   0.326  0.00  0.00     0.002 A 
HETATM   36  C   UNK N   1      17.932  13.241   0.329  0.00  0.00     0.001 A 
BRANCH  31  37
HETATM   37  C   UNK N   1      22.735  11.677   0.202  0.00  0.00     0.242 C 
BRANCH  37  38
HETATM   38  C   UNK N   1      23.320  10.674   1.170  0.00  0.00     0.158 C 
HETATM   39  O   UNK N   1      22.595   9.998   1.885  0.00  0.00    -0.649 OA
BRANCH  38  40
HETATM   40  O   UNK N   1      24.654  10.562   1.291  0.00  0.00    -0.775 OA
HETATM   41  H   UNK N   1      25.169  10.923   1.986  0.00  0.00     0.167 HD
ENDBRANCH  38  40
ENDBRANCH  37  38
ENDBRANCH  31  37
ENDBRANCH   2  25
TORSDOF 13
ENDMDL
MODEL 4
REMARK VINA RESULT:      -7.2     12.327     14.823
REMARK  13 active torsions:
REMARK  status: ('A' for Active; 'I' for Inactive)
REMARK    1  A    between atoms: O_2  and  C_19 
REMARK    2  A    between atoms: O_2  and  C_27 
REMARK    3  A    between atoms: O_5  and  C_38 
REMARK       I    between atoms: N_7  and  C_16 
REMARK    4  A    between atoms: C_18  and  N_7 
REMARK    5  A    between atoms: N_8  and  C_28 
REMARK    6  A    between atoms: C_9  and  C_12 
REMARK    7  A    between atoms: C_9  and  C_16 
REMARK    8  A    between atoms: C_12  and  C_15 
REMARK    9  A    between atoms: C_15  and  C_17 
REMARK   10  A    between atoms: C_15  and  C_19 
REMARK   11  A    between atoms: C_17  and  C_20 
REMARK   12  A    between atoms: C_20  and  C_24 
REMARK   13  A    between atoms: C_28  and  C_38 
ROOT
HETATM    1  O   UNK N   1      28.434  27.066  -7.569  0.00  0.00    -0.273 OA
HETATM    2  N   UNK N   1      29.279  26.495  -5.568  0.00  0.00    -0.347 N 
HETATM    3  C   UNK N   1      28.776  27.408  -6.444  0.00  0.00     0.227 C 
HETATM    4  H   UNK N   1      29.446  26.769  -4.638  0.00  0.00     0.163 HD
ENDROOT
BRANCH   3   5
HETATM    5  C   UNK N   1      28.650  28.854  -6.043  0.00  0.00     0.042 C 
HETATM    6  C   UNK N   1      29.667  29.239  -4.982  0.00  0.00     0.019 C 
HETATM    7  C   UNK N   1      30.956  29.519  -5.736  0.00  0.00     0.001 C 
HETATM    8  C   UNK N   1      30.539  29.921  -7.141  0.00  0.00     0.001 C 
HETATM    9  C   UNK N   1      29.029  29.758  -7.202  0.00  0.00     0.019 C 
BRANCH   5  10
HETATM   10  C   UNK N   1      27.214  29.165  -5.620  0.00  0.00     0.034 C 
BRANCH  10  11
HETATM   11  C   UNK N   1      26.787  28.676  -4.226  0.00  0.00     0.087 C 
BRANCH  11  12
HETATM   12  C   UNK N   1      25.650  27.657  -4.143  0.00  0.00     0.019 C 
BRANCH  12  13
HETATM   13  C   UNK N   1      25.116  27.324  -5.539  0.00  0.00     0.039 C 
BRANCH  13  14
HETATM   14  C   UNK N   1      25.455  25.923  -5.932  0.00  0.00    -0.058 A 
HETATM   15  C   UNK N   1      25.739  24.985  -4.934  0.00  0.00     0.007 A 
HETATM   16  C   UNK N   1      26.161  23.700  -5.282  0.00  0.00     0.001 A 
HETATM   17  C   UNK N   1      26.302  23.351  -6.629  0.00  0.00     0.000 A 
HETATM   18  C   UNK N   1      26.007  24.284  -7.628  0.00  0.00     0.001 A 
HETATM   19  C   UNK N   1      25.585  25.570  -7.279  0.00  0.00     0.007 A 
ENDBRANCH  13  14
ENDBRANCH  12  13
ENDBRANCH  11  12
BRANCH  11  20
HETATM   20  C   UNK N   1      26.883  29.670  -3.105  0.00  0.00     0.263 C 
HETATM   21  O   UNK N   1      26.421  30.789  -3.241  0.00  0.00    -0.265 OA
BRANCH  20  22
HETATM   22  O   UNK N   1      27.444  29.321  -1.922  0.00  0.00    -0.322 OA
BRANCH  22  23
HETATM   23  C   UNK N   1      28.377  30.113  -1.292  0.00  0.00     0.174 C 
HETATM   24  C   UNK N   1      28.294  29.904   0.205  0.00  0.00     0.034 C 
ENDBRANCH  22  23
ENDBRANCH  20  22
ENDBRANCH  11  20
ENDBRANCH  10  11
ENDBRANCH   5  10
ENDBRANCH   3   5
BRANCH   2  25
HETATM   25  C   UNK N   1      29.577  25.132  -5.957  0.00  0.00     0.177 C 
HETATM   26  C   UNK N   1      30.670  25.117  -7.009  0.00  0.00     0.039 C 
HETATM   27  C   UNK N   1      31.873  24.341  -6.577  0.00  0.00     0.043 C 
HETATM   28  C   UNK N   1      31.557  22.899  -6.674  0.00  0.00    -0.031 A 
HETATM   29  C   UNK N   1      30.658  22.250  -5.780  0.00  0.00     0.044 A 
HETATM   30  C   UNK N   1      32.257  22.159  -7.633  0.00  0.00     0.009 A 
HETATM   31  N   UNK N   1      29.999  22.937  -4.698  0.00  0.00    -0.306 N 
HETATM   32  C   UNK N   1      30.534  20.850  -5.878  0.00  0.00     0.030 A 
HETATM   33  C   UNK N   1      29.679  24.275  -4.695  0.00  0.00     0.247 C 
HETATM   34  O   UNK N   1      29.352  24.803  -3.641  0.00  0.00    -0.271 OA
HETATM   35  C   UNK N   1      31.232  20.126  -6.848  0.00  0.00     0.002 A 
HETATM   36  C   UNK N   1      32.088  20.782  -7.729  0.00  0.00     0.001 A 
BRANCH  31  37
HETATM   37  C   UNK N   1      29.722  22.167  -3.485  0.00  0.00     0.242 C 
BRANCH  37  38
HETATM   38  C   UNK N   1      30.746  22.403  -2.397  0.00  0.00     0.158 C 
HETATM   39  O   UNK N   1      31.843  21.867  -2.444  0.00  0.00    -0.649 OA
BRANCH  38  40
HETATM   40  O   UNK N   1      30.429  23.163  -1.336  0.00  0.00    -0.775 OA
HETATM   41  H   UNK N   1      31.040  23.530  -0.727  0.00  0.00     0.167 HD
ENDBRANCH  38  40
ENDBRANCH  37  38
ENDBRANCH  31  37
ENDBRANCH   2  25
TORSDOF 13
ENDMDL
MODEL 5
REMARK VINA RESULT:      -7.1      2.416      8.927
REMARK  13 active torsions:
REMARK  status: ('A' for Active; 'I' for Inactive)
REMARK    1  A    between atoms: O_2  and  C_19 
REMARK    2  A    between atoms: O_2  and  C_27 
REMARK    3  A    between atoms: O_5  and  C_38 
REMARK       I    between atoms: N_7  and  C_16 
REMARK    4  A    between atoms: C_18  and  N_7 
REMARK    5  A    between atoms: N_8  and  C_28 
REMARK    6  A    between atoms: C_9  and  C_12 
REMARK    7  A    between atoms: C_9  and  C_16 
REMARK    8  A    between atoms: C_12  and  C_15 
REMARK    9  A    between atoms: C_15  and  C_17 
REMARK   10  A    between atoms: C_15  and  C_19 
REMARK   11  A    between atoms: C_17  and  C_20 
REMARK   12  A    between atoms: C_20  and  C_24 
REMARK   13  A    between atoms: C_28  and  C_38 
ROOT
HETATM    1  O   UNK N   1      26.173  18.621   3.337  0.00  0.00    -0.273 OA
HETATM    2  N   UNK N   1      24.689  17.920   4.869  0.00  0.00    -0.347 N 
HETATM    3  C   UNK N   1      25.907  18.416   4.514  0.00  0.00     0.227 C 
HETATM    4  H   UNK N   1      24.458  17.865   5.825  0.00  0.00     0.163 HD
ENDROOT
BRANCH   3   5
HETATM    5  C   UNK N   1      26.945  18.703   5.566  0.00  0.00     0.042 C 
HETATM    6  C   UNK N   1      28.148  19.432   4.992  0.00  0.00     0.019 C 
HETATM    7  C   UNK N   1      27.747  20.895   4.928  0.00  0.00     0.001 C 
HETATM    8  C   UNK N   1      26.680  21.083   5.995  0.00  0.00     0.001 C 
HETATM    9  C   UNK N   1      26.409  19.704   6.575  0.00  0.00     0.019 C 
BRANCH   5  10
HETATM   10  C   UNK N   1      27.330  17.418   6.299  0.00  0.00     0.034 C 
BRANCH  10  11
HETATM   11  C   UNK N   1      28.498  16.614   5.705  0.00  0.00     0.087 C 
BRANCH  11  12
HETATM   12  C   UNK N   1      28.165  15.352   4.908  0.00  0.00     0.019 C 
BRANCH  12  13
HETATM   13  C   UNK N   1      28.038  15.671   3.416  0.00  0.00     0.039 C 
BRANCH  13  14
HETATM   14  C   UNK N   1      26.932  14.889   2.785  0.00  0.00    -0.058 A 
HETATM   15  C   UNK N   1      26.230  15.445   1.711  0.00  0.00     0.007 A 
HETATM   16  C   UNK N   1      25.126  14.778   1.175  0.00  0.00     0.001 A 
HETATM   17  C   UNK N   1      24.720  13.554   1.715  0.00  0.00     0.000 A 
HETATM   18  C   UNK N   1      25.427  12.990   2.782  0.00  0.00     0.001 A 
HETATM   19  C   UNK N   1      26.532  13.659   3.317  0.00  0.00     0.007 A 
ENDBRANCH  13  14
ENDBRANCH  12  13
ENDBRANCH  11  12
BRANCH  11  20
HETATM   20  C   UNK N   1      29.773  16.590   6.500  0.00  0.00     0.263 C 
HETATM   21  O   UNK N   1      29.770  16.940   7.667  0.00  0.00    -0.265 OA
BRANCH  20  22
HETATM   22  O   UNK N   1      30.923  16.143   5.942  0.00  0.00    -0.322 OA
BRANCH  22  23
HETATM   23  C   UNK N   1      31.976  16.984   5.661  0.00  0.00     0.174 C 
HETATM   24  C   UNK N   1      31.770  17.620   4.303  0.00  0.00     0.034 C 
ENDBRANCH  22  23
ENDBRANCH  20  22
ENDBRANCH  11  20
ENDBRANCH  10  11
ENDBRANCH   5  10
ENDBRANCH   3   5
BRANCH   2  25
HETATM   25  C   UNK N   1      23.721  17.471   3.891  0.00  0.00     0.177 C 
HETATM   26  C   UNK N   1      23.481  15.980   4.041  0.00  0.00     0.039 C 
HETATM   27  C   UNK N   1      22.051  15.654   4.331  0.00  0.00     0.043 C 
HETATM   28  C   UNK N   1      21.276  15.802   3.079  0.00  0.00    -0.031 A 
HETATM   29  C   UNK N   1      21.002  17.071   2.493  0.00  0.00     0.044 A 
HETATM   30  C   UNK N   1      20.730  14.637   2.530  0.00  0.00     0.009 A 
HETATM   31  N   UNK N   1      21.438  18.313   3.079  0.00  0.00    -0.306 N 
HETATM   32  C   UNK N   1      20.142  17.104   1.378  0.00  0.00     0.030 A 
HETATM   33  C   UNK N   1      22.557  18.463   3.865  0.00  0.00     0.247 C 
HETATM   34  O   UNK N   1      22.695  19.493   4.507  0.00  0.00    -0.271 OA
HETATM   35  C   UNK N   1      19.612  15.932   0.834  0.00  0.00     0.002 A 
HETATM   36  C   UNK N   1      19.912  14.698   1.407  0.00  0.00     0.001 A 
BRANCH  31  37
HETATM   37  C   UNK N   1      20.580  19.483   2.885  0.00  0.00     0.242 C 
BRANCH  37  38
HETATM   38  C   UNK N   1      21.244  20.564   2.062  0.00  0.00     0.158 C 
HETATM   39  O   UNK N   1      21.371  20.440   0.853  0.00  0.00    -0.649 OA
BRANCH  38  40
HETATM   40  O   UNK N   1      21.753  21.649   2.670  0.00  0.00    -0.775 OA
HETATM   41  H   UNK N   1      22.132  22.388   2.237  0.00  0.00     0.167 HD
ENDBRANCH  38  40
ENDBRANCH  37  38
ENDBRANCH  31  37
ENDBRANCH   2  25
TORSDOF 13
ENDMDL
MODEL 6
REMARK VINA RESULT:      -7.1      2.102      8.248
REMARK  13 active torsions:
REMARK  status: ('A' for Active; 'I' for Inactive)
REMARK    1  A    between atoms: O_2  and  C_19 
REMARK    2  A    between atoms: O_2  and  C_27 
REMARK    3  A    between atoms: O_5  and  C_38 
REMARK       I    between atoms: N_7  and  C_16 
REMARK    4  A    between atoms: C_18  and  N_7 
REMARK    5  A    between atoms: N_8  and  C_28 
REMARK    6  A    between atoms: C_9  and  C_12 
REMARK    7  A    between atoms: C_9  and  C_16 
REMARK    8  A    between atoms: C_12  and  C_15 
REMARK    9  A    between atoms: C_15  and  C_17 
REMARK   10  A    between atoms: C_15  and  C_19 
REMARK   11  A    between atoms: C_17  and  C_20 
REMARK   12  A    between atoms: C_20  and  C_24 
REMARK   13  A    between atoms: C_28  and  C_38 
ROOT
HETATM    1  O   UNK N   1      26.724  17.623   3.590  0.00  0.00    -0.273 OA
HETATM    2  N   UNK N   1      25.780  15.728   4.339  0.00  0.00    -0.347 N 
HETATM    3  C   UNK N   1      26.837  16.578   4.217  0.00  0.00     0.227 C 
HETATM    4  H   UNK N   1      25.862  14.949   4.936  0.00  0.00     0.163 HD
ENDROOT
BRANCH   3   5
HETATM    5  C   UNK N   1      28.163  16.233   4.842  0.00  0.00     0.042 C 
HETATM    6  C   UNK N   1      28.654  14.860   4.411  0.00  0.00     0.019 C 
HETATM    7  C   UNK N   1      29.301  15.067   3.053  0.00  0.00     0.001 C 
HETATM    8  C   UNK N   1      29.747  16.520   3.019  0.00  0.00     0.001 C 
HETATM    9  C   UNK N   1      29.251  17.149   4.311  0.00  0.00     0.019 C 
BRANCH   5  10
HETATM   10  C   UNK N   1      28.090  16.380   6.362  0.00  0.00     0.034 C 
BRANCH  10  11
HETATM   11  C   UNK N   1      29.023  17.423   6.997  0.00  0.00     0.087 C 
BRANCH  11  12
HETATM   12  C   UNK N   1      30.155  16.919   7.895  0.00  0.00     0.019 C 
BRANCH  12  13
HETATM   13  C   UNK N   1      31.504  17.471   7.428  0.00  0.00     0.039 C 
BRANCH  13  14
HETATM   14  C   UNK N   1      32.012  16.729   6.235  0.00  0.00    -0.058 A 
HETATM   15  C   UNK N   1      31.900  15.335   6.200  0.00  0.00     0.007 A 
HETATM   16  C   UNK N   1      32.463  14.614   5.145  0.00  0.00     0.001 A 
HETATM   17  C   UNK N   1      33.141  15.284   4.123  0.00  0.00     0.000 A 
HETATM   18  C   UNK N   1      33.244  16.679   4.149  0.00  0.00     0.001 A 
HETATM   19  C   UNK N   1      32.681  17.400   5.205  0.00  0.00     0.007 A 
ENDBRANCH  13  14
ENDBRANCH  12  13
ENDBRANCH  11  12
BRANCH  11  20
HETATM   20  C   UNK N   1      28.406  18.741   7.369  0.00  0.00     0.263 C 
HETATM   21  O   UNK N   1      28.162  18.993   8.536  0.00  0.00    -0.265 OA
BRANCH  20  22
HETATM   22  O   UNK N   1      28.155  19.676   6.421  0.00  0.00    -0.322 OA
BRANCH  22  23
HETATM   23  C   UNK N   1      26.877  20.076   6.107  0.00  0.00     0.174 C 
HETATM   24  C   UNK N   1      26.665  21.504   6.560  0.00  0.00     0.034 C 
ENDBRANCH  22  23
ENDBRANCH  20  22
ENDBRANCH  11  20
ENDBRANCH  10  11
ENDBRANCH   5  10
ENDBRANCH   3   5
BRANCH   2  25
HETATM   25  C   UNK N   1      24.539  15.929   3.622  0.00  0.00     0.177 C 
HETATM   26  C   UNK N   1      24.444  14.956   2.461  0.00  0.00     0.039 C 
HETATM   27  C   UNK N   1      23.243  14.069   2.552  0.00  0.00     0.043 C 
HETATM   28  C   UNK N   1      22.050  14.861   2.178  0.00  0.00    -0.031 A 
HETATM   29  C   UNK N   1      21.516  15.884   3.013  0.00  0.00     0.044 A 
HETATM   30  C   UNK N   1      21.394  14.499   0.996  0.00  0.00     0.009 A 
HETATM   31  N   UNK N   1      22.081  16.219   4.296  0.00  0.00    -0.306 N 
HETATM   32  C   UNK N   1      20.302  16.480   2.622  0.00  0.00     0.030 A 
HETATM   33  C   UNK N   1      23.404  16.065   4.638  0.00  0.00     0.247 C 
HETATM   34  O   UNK N   1      23.724  16.144   5.815  0.00  0.00    -0.271 OA
HETATM   35  C   UNK N   1      19.663  16.116   1.434  0.00  0.00     0.002 A 
HETATM   36  C   UNK N   1      20.213  15.130   0.619  0.00  0.00     0.001 A 
BRANCH  31  37
HETATM   37  C   UNK N   1      21.157  16.684   5.332  0.00  0.00     0.242 C 
BRANCH  37  38
HETATM   38  C   UNK N   1      21.329  18.152   5.651  0.00  0.00     0.158 C 
HETATM   39  O   UNK N   1      21.377  18.539   6.808  0.00  0.00    -0.649 OA
BRANCH  38  40
HETATM   40  O   UNK N   1      21.372  19.051   4.653  0.00  0.00    -0.775 OA
HETATM   41  H   UNK N   1      22.063  19.136   4.026  0.00  0.00     0.167 HD
ENDBRANCH  38  40
ENDBRANCH  37  38
ENDBRANCH  31  37
ENDBRANCH   2  25
TORSDOF 13
ENDMDL
MODEL 7
REMARK VINA RESULT:      -7.1      2.460      9.201
REMARK  13 active torsions:
REMARK  status: ('A' for Active; 'I' for Inactive)
REMARK    1  A    between atoms: O_2  and  C_19 
REMARK    2  A    between atoms: O_2  and  C_27 
REMARK    3  A    between atoms: O_5  and  C_38 
REMARK       I    between atoms: N_7  and  C_16 
REMARK    4  A    between atoms: C_18  and  N_7 
REMARK    5  A    between atoms: N_8  and  C_28 
REMARK    6  A    between atoms: C_9  and  C_12 
REMARK    7  A    between atoms: C_9  and  C_16 
REMARK    8  A    between atoms: C_12  and  C_15 
REMARK    9  A    between atoms: C_15  and  C_17 
REMARK   10  A    between atoms: C_15  and  C_19 
REMARK   11  A    between atoms: C_17  and  C_20 
REMARK   12  A    between atoms: C_20  and  C_24 
REMARK   13  A    between atoms: C_28  and  C_38 
ROOT
HETATM    1  O   UNK N   1      26.264  17.612   3.154  0.00  0.00    -0.273 OA
HETATM    2  N   UNK N   1      24.507  18.009   4.495  0.00  0.00    -0.347 N 
HETATM    3  C   UNK N   1      25.845  17.985   4.242  0.00  0.00     0.227 C 
HETATM    4  H   UNK N   1      24.189  18.413   5.335  0.00  0.00     0.163 HD
ENDROOT
BRANCH   3   5
HETATM    5  C   UNK N   1      26.826  18.404   5.306  0.00  0.00     0.042 C 
HETATM    6  C   UNK N   1      28.102  18.972   4.709  0.00  0.00     0.019 C 
HETATM    7  C   UNK N   1      27.785  20.419   4.373  0.00  0.00     0.001 C 
HETATM    8  C   UNK N   1      26.662  20.830   5.311  0.00  0.00     0.001 C 
HETATM    9  C   UNK N   1      26.279  19.583   6.091  0.00  0.00     0.019 C 
BRANCH   5  10
HETATM   10  C   UNK N   1      27.092  17.247   6.270  0.00  0.00     0.034 C 
BRANCH  10  11
HETATM   11  C   UNK N   1      28.552  16.783   6.397  0.00  0.00     0.087 C 
BRANCH  11  12
HETATM   12  C   UNK N   1      28.939  15.453   5.748  0.00  0.00     0.019 C 
BRANCH  12  13
HETATM   13  C   UNK N   1      29.589  15.686   4.381  0.00  0.00     0.039 C 
BRANCH  13  14
HETATM   14  C   UNK N   1      31.034  16.040   4.519  0.00  0.00    -0.058 A 
HETATM   15  C   UNK N   1      31.924  15.089   5.028  0.00  0.00     0.007 A 
HETATM   16  C   UNK N   1      33.257  15.433   5.264  0.00  0.00     0.001 A 
HETATM   17  C   UNK N   1      33.702  16.731   4.994  0.00  0.00     0.000 A 
HETATM   18  C   UNK N   1      32.816  17.681   4.475  0.00  0.00     0.001 A 
HETATM   19  C   UNK N   1      31.483  17.335   4.239  0.00  0.00     0.007 A 
ENDBRANCH  13  14
ENDBRANCH  12  13
ENDBRANCH  11  12
BRANCH  11  20
HETATM   20  C   UNK N   1      29.265  17.142   7.670  0.00  0.00     0.263 C 
HETATM   21  O   UNK N   1      28.679  17.757   8.544  0.00  0.00    -0.265 OA
BRANCH  20  22
HETATM   22  O   UNK N   1      30.546  16.753   7.875  0.00  0.00    -0.322 OA
BRANCH  22  23
HETATM   23  C   UNK N   1      31.570  17.658   8.035  0.00  0.00     0.174 C 
HETATM   24  C   UNK N   1      32.779  16.959   8.620  0.00  0.00     0.034 C 
ENDBRANCH  22  23
ENDBRANCH  20  22
ENDBRANCH  11  20
ENDBRANCH  10  11
ENDBRANCH   5  10
ENDBRANCH   3   5
BRANCH   2  25
HETATM   25  C   UNK N   1      23.535  17.463   3.572  0.00  0.00     0.177 C 
HETATM   26  C   UNK N   1      23.354  15.977   3.826  0.00  0.00     0.039 C 
HETATM   27  C   UNK N   1      21.943  15.621   4.171  0.00  0.00     0.043 C 
HETATM   28  C   UNK N   1      21.137  15.658   2.931  0.00  0.00    -0.031 A 
HETATM   29  C   UNK N   1      20.803  16.874   2.269  0.00  0.00     0.044 A 
HETATM   30  C   UNK N   1      20.622  14.440   2.473  0.00  0.00     0.009 A 
HETATM   31  N   UNK N   1      21.206  18.168   2.761  0.00  0.00    -0.306 N 
HETATM   32  C   UNK N   1      19.920  16.802   1.175  0.00  0.00     0.030 A 
HETATM   33  C   UNK N   1      22.335  18.408   3.508  0.00  0.00     0.247 C 
HETATM   34  O   UNK N   1      22.450  19.484   4.078  0.00  0.00    -0.271 OA
HETATM   35  C   UNK N   1      19.422  15.578   0.722  0.00  0.00     0.002 A 
HETATM   36  C   UNK N   1      19.778  14.397   1.368  0.00  0.00     0.001 A 
BRANCH  31  37
HETATM   37  C   UNK N   1      20.302  19.291   2.510  0.00  0.00     0.242 C 
BRANCH  37  38
HETATM   38  C   UNK N   1      20.816  20.226   1.439  0.00  0.00     0.158 C 
HETATM   39  O   UNK N   1      21.298  21.310   1.734  0.00  0.00    -0.649 OA
BRANCH  38  40
HETATM   40  O   UNK N   1      20.691  19.891   0.144  0.00  0.00    -0.775 OA
HETATM   41  H   UNK N   1      19.952  19.462  -0.239  0.00  0.00     0.167 HD
ENDBRANCH  38  40
ENDBRANCH  37  38
ENDBRANCH  31  37
ENDBRANCH   2  25
TORSDOF 13
ENDMDL
MODEL 8
REMARK VINA RESULT:      -7.0      4.073      7.254
REMARK  13 active torsions:
REMARK  status: ('A' for Active; 'I' for Inactive)
REMARK    1  A    between atoms: O_2  and  C_19 
REMARK    2  A    between atoms: O_2  and  C_27 
REMARK    3  A    between atoms: O_5  and  C_38 
REMARK       I    between atoms: N_7  and  C_16 
REMARK    4  A    between atoms: C_18  and  N_7 
REMARK    5  A    between atoms: N_8  and  C_28 
REMARK    6  A    between atoms: C_9  and  C_12 
REMARK    7  A    between atoms: C_9  and  C_16 
REMARK    8  A    between atoms: C_12  and  C_15 
REMARK    9  A    between atoms: C_15  and  C_17 
REMARK   10  A    between atoms: C_15  and  C_19 
REMARK   11  A    between atoms: C_17  and  C_20 
REMARK   12  A    between atoms: C_20  and  C_24 
REMARK   13  A    between atoms: C_28  and  C_38 
ROOT
HETATM    1  O   UNK N   1      25.617  16.015   6.298  0.00  0.00    -0.273 OA
HETATM    2  N   UNK N   1      23.548  15.333   5.752  0.00  0.00    -0.347 N 
HETATM    3  C   UNK N   1      24.684  16.043   5.506  0.00  0.00     0.227 C 
HETATM    4  H   UNK N   1      22.857  15.284   5.053  0.00  0.00     0.163 HD
ENDROOT
BRANCH   3   5
HETATM    5  C   UNK N   1      24.798  16.884   4.262  0.00  0.00     0.042 C 
HETATM    6  C   UNK N   1      26.062  16.568   3.478  0.00  0.00     0.019 C 
HETATM    7  C   UNK N   1      25.735  15.329   2.662  0.00  0.00     0.001 C 
HETATM    8  C   UNK N   1      24.227  15.338   2.473  0.00  0.00     0.001 C 
HETATM    9  C   UNK N   1      23.703  16.518   3.276  0.00  0.00     0.019 C 
BRANCH   5  10
HETATM   10  C   UNK N   1      24.678  18.368   4.609  0.00  0.00     0.034 C 
BRANCH  10  11
HETATM   11  C   UNK N   1      25.272  19.360   3.595  0.00  0.00     0.087 C 
BRANCH  11  12
HETATM   12  C   UNK N   1      26.671  19.913   3.871  0.00  0.00     0.019 C 
BRANCH  12  13
HETATM   13  C   UNK N   1      26.847  20.226   5.359  0.00  0.00     0.039 C 
BRANCH  13  14
HETATM   14  C   UNK N   1      27.850  19.316   5.991  0.00  0.00    -0.058 A 
HETATM   15  C   UNK N   1      28.590  18.448   5.181  0.00  0.00     0.007 A 
HETATM   16  C   UNK N   1      29.454  17.517   5.761  0.00  0.00     0.001 A 
HETATM   17  C   UNK N   1      29.579  17.450   7.151  0.00  0.00     0.000 A 
HETATM   18  C   UNK N   1      28.849  18.325   7.963  0.00  0.00     0.001 A 
HETATM   19  C   UNK N   1      27.984  19.257   7.382  0.00  0.00     0.007 A 
ENDBRANCH  13  14
ENDBRANCH  12  13
ENDBRANCH  11  12
BRANCH  11  20
HETATM   20  C   UNK N   1      24.305  20.285   2.913  0.00  0.00     0.263 C 
HETATM   21  O   UNK N   1      24.641  20.885   1.906  0.00  0.00    -0.265 OA
BRANCH  20  22
HETATM   22  O   UNK N   1      23.043  20.431   3.383  0.00  0.00    -0.322 OA
BRANCH  22  23
HETATM   23  C   UNK N   1      21.950  20.462   2.548  0.00  0.00     0.174 C 
HETATM   24  C   UNK N   1      21.152  19.185   2.707  0.00  0.00     0.034 C 
ENDBRANCH  22  23
ENDBRANCH  20  22
ENDBRANCH  11  20
ENDBRANCH  10  11
ENDBRANCH   5  10
ENDBRANCH   3   5
BRANCH   2  25
HETATM   25  C   UNK N   1      23.321  14.646   7.006  0.00  0.00     0.177 C 
HETATM   26  C   UNK N   1      22.028  15.127   7.636  0.00  0.00     0.039 C 
HETATM   27  C   UNK N   1      21.044  14.020   7.846  0.00  0.00     0.043 C 
HETATM   28  C   UNK N   1      21.486  13.219   9.010  0.00  0.00    -0.031 A 
HETATM   29  C   UNK N   1      22.628  12.369   8.966  0.00  0.00     0.044 A 
HETATM   30  C   UNK N   1      20.673  13.252  10.148  0.00  0.00     0.009 A 
HETATM   31  N   UNK N   1      23.435  12.204   7.783  0.00  0.00    -0.306 N 
HETATM   32  C   UNK N   1      22.878  11.551  10.085  0.00  0.00     0.030 A 
HETATM   33  C   UNK N   1      23.599  13.156   6.804  0.00  0.00     0.247 C 
HETATM   34  O   UNK N   1      24.095  12.827   5.736  0.00  0.00    -0.271 OA
HETATM   35  C   UNK N   1      22.064  11.603  11.219  0.00  0.00     0.002 A 
HETATM   36  C   UNK N   1      20.965  12.457  11.252  0.00  0.00     0.001 A 
BRANCH  31  37
HETATM   37  C   UNK N   1      24.060  10.896   7.575  0.00  0.00     0.242 C 
BRANCH  37  38
HETATM   38  C   UNK N   1      23.522  10.180   6.357  0.00  0.00     0.158 C 
HETATM   39  O   UNK N   1      22.386   9.731   6.346  0.00  0.00    -0.649 OA
BRANCH  38  40
HETATM   40  O   UNK N   1      24.319   9.981   5.294  0.00  0.00    -0.775 OA
HETATM   41  H   UNK N   1      25.104   9.469   5.289  0.00  0.00     0.167 HD
ENDBRANCH  38  40
ENDBRANCH  37  38
ENDBRANCH  31  37
ENDBRANCH   2  25
TORSDOF 13
ENDMDL
MODEL 9
REMARK VINA RESULT:      -6.9      2.306      8.420
REMARK  13 active torsions:
REMARK  status: ('A' for Active; 'I' for Inactive)
REMARK    1  A    between atoms: O_2  and  C_19 
REMARK    2  A    between atoms: O_2  and  C_27 
REMARK    3  A    between atoms: O_5  and  C_38 
REMARK       I    between atoms: N_7  and  C_16 
REMARK    4  A    between atoms: C_18  and  N_7 
REMARK    5  A    between atoms: N_8  and  C_28 
REMARK    6  A    between atoms: C_9  and  C_12 
REMARK    7  A    between atoms: C_9  and  C_16 
REMARK    8  A    between atoms: C_12  and  C_15 
REMARK    9  A    between atoms: C_15  and  C_17 
REMARK   10  A    between atoms: C_15  and  C_19 
REMARK   11  A    between atoms: C_17  and  C_20 
REMARK   12  A    between atoms: C_20  and  C_24 
REMARK   13  A    between atoms: C_28  and  C_38 
ROOT
HETATM    1  O   UNK N   1      26.337  16.616   2.396  0.00  0.00    -0.273 OA
HETATM    2  N   UNK N   1      24.958  15.997   4.057  0.00  0.00    -0.347 N 
HETATM    3  C   UNK N   1      26.180  16.372   3.585  0.00  0.00     0.227 C 
HETATM    4  H   UNK N   1      24.829  15.910   5.029  0.00  0.00     0.163 HD
ENDROOT
BRANCH   3   5
HETATM    5  C   UNK N   1      27.354  16.477   4.522  0.00  0.00     0.042 C 
HETATM    6  C   UNK N   1      27.996  15.123   4.780  0.00  0.00     0.019 C 
HETATM    7  C   UNK N   1      28.911  14.874   3.594  0.00  0.00     0.001 C 
HETATM    8  C   UNK N   1      29.279  16.246   3.054  0.00  0.00     0.001 C 
HETATM    9  C   UNK N   1      28.483  17.253   3.867  0.00  0.00     0.019 C 
BRANCH   5  10
HETATM   10  C   UNK N   1      26.945  17.189   5.812  0.00  0.00     0.034 C 
BRANCH  10  11
HETATM   11  C   UNK N   1      27.741  18.451   6.181  0.00  0.00     0.087 C 
BRANCH  11  12
HETATM   12  C   UNK N   1      28.630  18.398   7.424  0.00  0.00     0.019 C 
BRANCH  12  13
HETATM   13  C   UNK N   1      29.448  17.104   7.451  0.00  0.00     0.039 C 
BRANCH  13  14
HETATM   14  C   UNK N   1      30.902  17.374   7.240  0.00  0.00    -0.058 A 
HETATM   15  C   UNK N   1      31.471  17.109   5.990  0.00  0.00     0.007 A 
HETATM   16  C   UNK N   1      32.847  17.254   5.802  0.00  0.00     0.001 A 
HETATM   17  C   UNK N   1      33.658  17.664   6.865  0.00  0.00     0.000 A 
HETATM   18  C   UNK N   1      33.090  17.941   8.113  0.00  0.00     0.001 A 
HETATM   19  C   UNK N   1      31.712  17.796   8.300  0.00  0.00     0.007 A 
ENDBRANCH  13  14
ENDBRANCH  12  13
ENDBRANCH  11  12
BRANCH  11  20
HETATM   20  C   UNK N   1      27.092  19.770   5.874  0.00  0.00     0.263 C 
HETATM   21  O   UNK N   1      27.477  20.784   6.430  0.00  0.00    -0.265 OA
BRANCH  20  22
HETATM   22  O   UNK N   1      26.104  19.853   4.951  0.00  0.00    -0.322 OA
BRANCH  22  23
HETATM   23  C   UNK N   1      26.351  20.205   3.644  0.00  0.00     0.174 C 
HETATM   24  C   UNK N   1      25.049  20.237   2.872  0.00  0.00     0.034 C 
ENDBRANCH  22  23
ENDBRANCH  20  22
ENDBRANCH  11  20
ENDBRANCH  10  11
ENDBRANCH   5  10
ENDBRANCH   3   5
BRANCH   2  25
HETATM   25  C   UNK N   1      23.841  15.720   3.178  0.00  0.00     0.177 C 
HETATM   26  C   UNK N   1      23.714  14.225   2.952  0.00  0.00     0.039 C 
HETATM   27  C   UNK N   1      22.388  13.688   3.387  0.00  0.00     0.043 C 
HETATM   28  C   UNK N   1      21.375  14.075   2.380  0.00  0.00    -0.031 A 
HETATM   29  C   UNK N   1      20.925  15.418   2.223  0.00  0.00     0.044 A 
HETATM   30  C   UNK N   1      20.793  13.043   1.637  0.00  0.00     0.009 A 
HETATM   31  N   UNK N   1      21.402  16.503   3.042  0.00  0.00    -0.306 N 
HETATM   32  C   UNK N   1      19.863  15.650   1.328  0.00  0.00     0.030 A 
HETATM   33  C   UNK N   1      22.644  16.558   3.630  0.00  0.00     0.247 C 
HETATM   34  O   UNK N   1      22.853  17.395   4.497  0.00  0.00    -0.271 OA
HETATM   35  C   UNK N   1      19.298  14.611   0.584  0.00  0.00     0.002 A 
HETATM   36  C   UNK N   1      19.768  13.310   0.734  0.00  0.00     0.001 A 
BRANCH  31  37
HETATM   37  C   UNK N   1      20.463  17.588   3.330  0.00  0.00     0.242 C 
BRANCH  37  38
HETATM   38  C   UNK N   1      20.767  18.847   2.550  0.00  0.00     0.158 C 
HETATM   39  O   UNK N   1      21.298  19.805   3.091  0.00  0.00    -0.649 OA
BRANCH  38  40
HETATM   40  O   UNK N   1      20.400  18.938   1.260  0.00  0.00    -0.775 OA
HETATM   41  H   UNK N   1      20.100  19.716   0.834  0.00  0.00     0.167 HD
ENDBRANCH  38  40
ENDBRANCH  37  38
ENDBRANCH  31  37
ENDBRANCH   2  25
TORSDOF 13
ENDMDL
