MODEL 1
REMARK VINA RESULT:      -7.8      0.000      0.000
REMARK  15 active torsions:
REMARK  status: ('A' for Active; 'I' for Inactive)
REMARK    1  A    between atoms: S_1  and  C_20 
REMARK    2  A    between atoms: S_1  and  C_30 
REMARK    3  A    between atoms: S_2  and  C_27 
REMARK    4  A    between atoms: S_2  and  C_30 
REMARK    5  A    between atoms: O_3  and  C_16 
REMARK    6  A    between atoms: O_3  and  C_39 
REMARK    7  A    between atoms: O_4  and  C_17 
REMARK    8  A    between atoms: O_6  and  C_42 
REMARK    9  A    between atoms: C_8  and  C_12 
REMARK   10  A    between atoms: C_9  and  C_13 
REMARK   11  A    between atoms: C_10  and  C_14 
REMARK   12  A    between atoms: C_11  and  C_15 
REMARK   13  A    between atoms: C_39  and  C_40 
REMARK   14  A    between atoms: C_40  and  C_41 
REMARK   15  A    between atoms: C_41  and  C_42 
ROOT
HETATM    1  C   UNK N   1      23.973  15.852   4.229  0.00  0.00    -0.015 A 
HETATM    2  C   UNK N   1      25.318  17.867   3.715  0.00  0.00    -0.015 A 
HETATM    3  C   UNK N   1      24.209  17.248   4.383  0.00  0.00     0.093 A 
HETATM    4  C   UNK N   1      24.847  15.106   3.446  0.00  0.00     0.029 A 
HETATM    5  C   UNK N   1      26.162  17.052   2.953  0.00  0.00     0.029 A 
HETATM    6  C   UNK N   1      25.932  15.698   2.823  0.00  0.00     0.003 A 
ENDROOT
BRANCH   6   7
HETATM    7  S   UNK N   1      27.307  14.671   2.388  0.00  0.00    -0.109 SA
BRANCH   7   8
HETATM    8  C   UNK N   1      28.239  15.051   3.965  0.00  0.00     0.058 C 
HETATM    9  C   UNK N   1      27.274  15.207   5.127  0.00  0.00     0.039 C 
HETATM   10  C   UNK N   1      29.141  13.928   4.466  0.00  0.00     0.039 C 
BRANCH   8  11
HETATM   11  S   UNK N   1      29.303  16.532   3.674  0.00  0.00    -0.109 SA
BRANCH  11  12
HETATM   12  C   UNK N   1      29.994  16.742   5.318  0.00  0.00     0.003 A 
HETATM   13  C   UNK N   1      31.320  16.432   5.571  0.00  0.00     0.029 A 
HETATM   14  C   UNK N   1      31.939  16.724   6.779  0.00  0.00    -0.016 A 
HETATM   15  C   UNK N   1      31.158  17.320   7.804  0.00  0.00     0.079 A 
HETATM   16  C   UNK N   1      29.781  17.600   7.578  0.00  0.00    -0.016 A 
HETATM   17  C   UNK N   1      29.224  17.316   6.320  0.00  0.00     0.029 A 
BRANCH  14  18
HETATM   18  C   UNK N   1      33.434  16.412   6.863  0.00  0.00    -0.021 C 
HETATM   19  C   UNK N   1      33.948  16.050   5.476  0.00  0.00     0.019 C 
HETATM   20  C   UNK N   1      34.307  17.541   7.374  0.00  0.00     0.019 C 
HETATM   21  C   UNK N   1      33.653  15.213   7.771  0.00  0.00     0.019 C 
ENDBRANCH  14  18
BRANCH  15  22
HETATM   22  O   UNK N   1      31.707  17.627   8.993  0.00  0.00    -0.360 OA
HETATM   23  H   UNK N   1      31.876  16.957   9.625  0.00  0.00     0.217 HD
ENDBRANCH  15  22
BRANCH  16  24
HETATM   24  C   UNK N   1      28.914  18.226   8.664  0.00  0.00    -0.021 C 
HETATM   25  C   UNK N   1      28.148  17.142   9.400  0.00  0.00     0.019 C 
HETATM   26  C   UNK N   1      29.725  18.996   9.700  0.00  0.00     0.019 C 
HETATM   27  C   UNK N   1      27.929  19.201   8.045  0.00  0.00     0.019 C 
ENDBRANCH  16  24
ENDBRANCH  11  12
ENDBRANCH   8  11
ENDBRANCH   7   8
ENDBRANCH   6   7
BRANCH   1  28
HETATM   28  C   UNK N   1      22.850  15.126   4.972  0.00  0.00    -0.021 C 
HETATM   29  C   UNK N   1      22.782  15.581   6.414  0.00  0.00     0.019 C 
HETATM   30  C   UNK N   1      21.475  15.380   4.365  0.00  0.00     0.019 C 
HETATM   31  C   UNK N   1      23.071  13.622   4.924  0.00  0.00     0.019 C 
ENDBRANCH   1  28
BRANCH   2  32
HETATM   32  C   UNK N   1      25.743  19.329   3.874  0.00  0.00    -0.021 C 
HETATM   33  C   UNK N   1      25.427  19.844   5.278  0.00  0.00     0.019 C 
HETATM   34  C   UNK N   1      25.026  20.275   2.929  0.00  0.00     0.019 C 
HETATM   35  C   UNK N   1      27.242  19.450   3.684  0.00  0.00     0.019 C 
ENDBRANCH   2  32
BRANCH   3  36
HETATM   36  O   UNK N   1      23.375  17.932   5.201  0.00  0.00    -0.278 OA
BRANCH  36  37
HETATM   37  C   UNK N   1      22.265  18.549   4.749  0.00  0.00     0.264 C 
HETATM   38  O   UNK N   1      21.511  19.127   5.511  0.00  0.00    -0.265 OA
BRANCH  37  39
HETATM   39  C   UNK N   1      22.048  18.672   3.284  0.00  0.00     0.122 C 
BRANCH  39  40
HETATM   40  C   UNK N   1      20.842  19.506   2.933  0.00  0.00     0.119 C 
BRANCH  40  41
HETATM   41  C   UNK N   1      21.346  20.641   2.114  0.00  0.00     0.139 C 
HETATM   42  O   UNK N   1      21.392  20.549   0.899  0.00  0.00    -0.650 OA
BRANCH  41  43
HETATM   43  O   UNK N   1      21.797  21.754   2.723  0.00  0.00    -0.776 OA
HETATM   44  H   UNK N   1      21.894  21.838   3.651  0.00  0.00     0.167 HD
ENDBRANCH  41  43
ENDBRANCH  40  41
ENDBRANCH  39  40
ENDBRANCH  37  39
ENDBRANCH  36  37
ENDBRANCH   3  36
TORSDOF 15
ENDMDL
MODEL 2
REMARK VINA RESULT:      -7.6      2.036      8.532
REMARK  15 active torsions:
REMARK  status: ('A' for Active; 'I' for Inactive)
REMARK    1  A    between atoms: S_1  and  C_20 
REMARK    2  A    between atoms: S_1  and  C_30 
REMARK    3  A    between atoms: S_2  and  C_27 
REMARK    4  A    between atoms: S_2  and  C_30 
REMARK    5  A    between atoms: O_3  and  C_16 
REMARK    6  A    between atoms: O_3  and  C_39 
REMARK    7  A    between atoms: O_4  and  C_17 
REMARK    8  A    between atoms: O_6  and  C_42 
REMARK    9  A    between atoms: C_8  and  C_12 
REMARK   10  A    between atoms: C_9  and  C_13 
REMARK   11  A    between atoms: C_10  and  C_14 
REMARK   12  A    between atoms: C_11  and  C_15 
REMARK   13  A    between atoms: C_39  and  C_40 
REMARK   14  A    between atoms: C_40  and  C_41 
REMARK   15  A    between atoms: C_41  and  C_42 
ROOT
HETATM    1  C   UNK N   1      28.134  16.449   6.767  0.00  0.00    -0.015 A 
HETATM    2  C   UNK N   1      28.522  14.922   4.856  0.00  0.00    -0.015 A 
HETATM    3  C   UNK N   1      29.006  15.908   5.779  0.00  0.00     0.093 A 
HETATM    4  C   UNK N   1      26.823  15.988   6.831  0.00  0.00     0.029 A 
HETATM    5  C   UNK N   1      27.196  14.497   4.988  0.00  0.00     0.029 A 
HETATM    6  C   UNK N   1      26.364  15.018   5.958  0.00  0.00     0.003 A 
ENDROOT
BRANCH   6   7
HETATM    7  S   UNK N   1      24.969  14.045   6.450  0.00  0.00    -0.109 SA
BRANCH   7   8
HETATM    8  C   UNK N   1      23.802  14.913   5.274  0.00  0.00     0.058 C 
HETATM    9  C   UNK N   1      24.576  15.573   4.148  0.00  0.00     0.039 C 
HETATM   10  C   UNK N   1      22.865  13.990   4.500  0.00  0.00     0.039 C 
BRANCH   8  11
HETATM   11  S   UNK N   1      22.753  16.082   6.246  0.00  0.00    -0.109 SA
BRANCH  11  12
HETATM   12  C   UNK N   1      22.894  17.548   5.217  0.00  0.00     0.003 A 
HETATM   13  C   UNK N   1      24.110  18.195   5.073  0.00  0.00     0.029 A 
HETATM   14  C   UNK N   1      24.305  19.230   4.170  0.00  0.00    -0.016 A 
HETATM   15  C   UNK N   1      23.191  19.667   3.404  0.00  0.00     0.079 A 
HETATM   16  C   UNK N   1      21.922  19.047   3.575  0.00  0.00    -0.016 A 
HETATM   17  C   UNK N   1      21.801  17.977   4.477  0.00  0.00     0.029 A 
BRANCH  14  18
HETATM   18  C   UNK N   1      25.731  19.770   4.059  0.00  0.00    -0.021 C 
HETATM   19  C   UNK N   1      25.878  20.527   2.746  0.00  0.00     0.019 C 
HETATM   20  C   UNK N   1      26.156  20.719   5.162  0.00  0.00     0.019 C 
HETATM   21  C   UNK N   1      26.714  18.611   4.044  0.00  0.00     0.019 C 
ENDBRANCH  14  18
BRANCH  15  22
HETATM   22  O   UNK N   1      23.323  20.665   2.512  0.00  0.00    -0.360 OA
HETATM   23  H   UNK N   1      23.959  20.610   1.827  0.00  0.00     0.217 HD
ENDBRANCH  15  22
BRANCH  16  24
HETATM   24  C   UNK N   1      20.706  19.503   2.778  0.00  0.00    -0.021 C 
HETATM   25  C   UNK N   1      20.160  20.793   3.364  0.00  0.00     0.019 C 
HETATM   26  C   UNK N   1      21.024  19.767   1.311  0.00  0.00     0.019 C 
HETATM   27  C   UNK N   1      19.625  18.438   2.821  0.00  0.00     0.019 C 
ENDBRANCH  16  24
ENDBRANCH  11  12
ENDBRANCH   8  11
ENDBRANCH   7   8
ENDBRANCH   6   7
BRANCH   1  28
HETATM   28  C   UNK N   1      28.612  17.449   7.821  0.00  0.00    -0.021 C 
HETATM   29  C   UNK N   1      30.075  17.228   8.142  0.00  0.00     0.019 C 
HETATM   30  C   UNK N   1      28.475  18.899   7.369  0.00  0.00     0.019 C 
HETATM   31  C   UNK N   1      27.787  17.314   9.091  0.00  0.00     0.019 C 
ENDBRANCH   1  28
BRANCH   2  32
HETATM   32  C   UNK N   1      29.374  14.188   3.817  0.00  0.00    -0.021 C 
HETATM   33  C   UNK N   1      28.617  12.997   3.229  0.00  0.00     0.019 C 
HETATM   34  C   UNK N   1      30.655  13.608   4.386  0.00  0.00     0.019 C 
HETATM   35  C   UNK N   1      29.696  15.121   2.668  0.00  0.00     0.019 C 
ENDBRANCH   2  32
BRANCH   3  36
HETATM   36  O   UNK N   1      30.291  16.335   5.785  0.00  0.00    -0.278 OA
BRANCH  36  37
HETATM   37  C   UNK N   1      30.753  17.244   4.902  0.00  0.00     0.264 C 
HETATM   38  O   UNK N   1      30.042  18.144   4.495  0.00  0.00    -0.265 OA
BRANCH  37  39
HETATM   39  C   UNK N   1      32.198  17.247   4.553  0.00  0.00     0.122 C 
BRANCH  39  40
HETATM   40  C   UNK N   1      32.979  16.171   5.265  0.00  0.00     0.119 C 
BRANCH  40  41
HETATM   41  C   UNK N   1      33.791  16.863   6.301  0.00  0.00     0.139 C 
HETATM   42  O   UNK N   1      34.139  18.020   6.139  0.00  0.00    -0.650 OA
BRANCH  41  43
HETATM   43  O   UNK N   1      34.182  16.190   7.400  0.00  0.00    -0.776 OA
HETATM   44  H   UNK N   1      33.720  15.455   7.754  0.00  0.00     0.167 HD
ENDBRANCH  41  43
ENDBRANCH  40  41
ENDBRANCH  39  40
ENDBRANCH  37  39
ENDBRANCH  36  37
ENDBRANCH   3  36
TORSDOF 15
ENDMDL
MODEL 3
REMARK VINA RESULT:      -7.6      0.950      4.130
REMARK  15 active torsions:
REMARK  status: ('A' for Active; 'I' for Inactive)
REMARK    1  A    between atoms: S_1  and  C_20 
REMARK    2  A    between atoms: S_1  and  C_30 
REMARK    3  A    between atoms: S_2  and  C_27 
REMARK    4  A    between atoms: S_2  and  C_30 
REMARK    5  A    between atoms: O_3  and  C_16 
REMARK    6  A    between atoms: O_3  and  C_39 
REMARK    7  A    between atoms: O_4  and  C_17 
REMARK    8  A    between atoms: O_6  and  C_42 
REMARK    9  A    between atoms: C_8  and  C_12 
REMARK   10  A    between atoms: C_9  and  C_13 
REMARK   11  A    between atoms: C_10  and  C_14 
REMARK   12  A    between atoms: C_11  and  C_15 
REMARK   13  A    between atoms: C_39  and  C_40 
REMARK   14  A    between atoms: C_40  and  C_41 
REMARK   15  A    between atoms: C_41  and  C_42 
ROOT
HETATM    1  C   UNK N   1      25.579  17.851   4.174  0.00  0.00    -0.015 A 
HETATM    2  C   UNK N   1      24.085  15.965   4.761  0.00  0.00    -0.015 A 
HETATM    3  C   UNK N   1      24.392  17.366   4.795  0.00  0.00     0.093 A 
HETATM    4  C   UNK N   1      26.412  16.948   3.521  0.00  0.00     0.029 A 
HETATM    5  C   UNK N   1      24.962  15.118   4.077  0.00  0.00     0.029 A 
HETATM    6  C   UNK N   1      26.103  15.601   3.467  0.00  0.00     0.003 A 
ENDROOT
BRANCH   6   7
HETATM    7  S   UNK N   1      26.803  14.636   2.158  0.00  0.00    -0.109 SA
BRANCH   7   8
HETATM    8  C   UNK N   1      28.503  14.599   2.938  0.00  0.00     0.058 C 
HETATM    9  C   UNK N   1      29.451  13.756   2.105  0.00  0.00     0.039 C 
HETATM   10  C   UNK N   1      29.229  15.941   2.963  0.00  0.00     0.039 C 
BRANCH   8  11
HETATM   11  S   UNK N   1      28.333  14.027   4.686  0.00  0.00    -0.109 SA
BRANCH  11  12
HETATM   12  C   UNK N   1      29.358  15.250   5.510  0.00  0.00     0.003 A 
HETATM   13  C   UNK N   1      28.800  16.155   6.398  0.00  0.00     0.029 A 
HETATM   14  C   UNK N   1      29.569  17.010   7.176  0.00  0.00    -0.016 A 
HETATM   15  C   UNK N   1      30.979  16.980   7.009  0.00  0.00     0.079 A 
HETATM   16  C   UNK N   1      31.566  16.092   6.064  0.00  0.00    -0.016 A 
HETATM   17  C   UNK N   1      30.734  15.223   5.337  0.00  0.00     0.029 A 
BRANCH  14  18
HETATM   18  C   UNK N   1      28.807  17.876   8.180  0.00  0.00    -0.021 C 
HETATM   19  C   UNK N   1      27.526  17.161   8.586  0.00  0.00     0.019 C 
HETATM   20  C   UNK N   1      29.554  18.198   9.459  0.00  0.00     0.019 C 
HETATM   21  C   UNK N   1      28.422  19.194   7.528  0.00  0.00     0.019 C 
ENDBRANCH  14  18
BRANCH  15  22
HETATM   22  O   UNK N   1      31.772  17.785   7.737  0.00  0.00    -0.360 OA
HETATM   23  H   UNK N   1      32.033  18.622   7.406  0.00  0.00     0.217 HD
ENDBRANCH  15  22
BRANCH  16  24
HETATM   24  C   UNK N   1      33.073  16.046   5.853  0.00  0.00    -0.021 C 
HETATM   25  C   UNK N   1      33.747  15.453   7.077  0.00  0.00     0.019 C 
HETATM   26  C   UNK N   1      33.479  15.199   4.653  0.00  0.00     0.019 C 
HETATM   27  C   UNK N   1      33.609  17.447   5.618  0.00  0.00     0.019 C 
ENDBRANCH  16  24
ENDBRANCH  11  12
ENDBRANCH   8  11
ENDBRANCH   7   8
ENDBRANCH   6   7
BRANCH   1  28
HETATM   28  C   UNK N   1      25.922  19.341   4.116  0.00  0.00    -0.021 C 
HETATM   29  C   UNK N   1      25.230  20.004   2.945  0.00  0.00     0.019 C 
HETATM   30  C   UNK N   1      25.491  20.098   5.368  0.00  0.00     0.019 C 
HETATM   31  C   UNK N   1      27.426  19.532   3.993  0.00  0.00     0.019 C 
ENDBRANCH   1  28
BRANCH   2  32
HETATM   32  C   UNK N   1      22.800  15.328   5.297  0.00  0.00    -0.021 C 
HETATM   33  C   UNK N   1      22.431  15.901   6.665  0.00  0.00     0.019 C 
HETATM   34  C   UNK N   1      22.909  13.829   5.506  0.00  0.00     0.019 C 
HETATM   35  C   UNK N   1      21.648  15.635   4.362  0.00  0.00     0.019 C 
ENDBRANCH   2  32
BRANCH   3  36
HETATM   36  O   UNK N   1      23.574  18.280   5.368  0.00  0.00    -0.278 OA
BRANCH  36  37
HETATM   37  C   UNK N   1      22.420  18.678   4.793  0.00  0.00     0.264 C 
HETATM   38  O   UNK N   1      21.496  19.101   5.464  0.00  0.00    -0.265 OA
BRANCH  37  39
HETATM   39  C   UNK N   1      22.339  18.761   3.311  0.00  0.00     0.122 C 
BRANCH  39  40
HETATM   40  C   UNK N   1      21.048  19.371   2.825  0.00  0.00     0.119 C 
BRANCH  40  41
HETATM   41  C   UNK N   1      21.425  20.598   2.074  0.00  0.00     0.139 C 
HETATM   42  O   UNK N   1      21.456  20.588   0.855  0.00  0.00    -0.650 OA
BRANCH  41  43
HETATM   43  O   UNK N   1      21.780  21.709   2.748  0.00  0.00    -0.776 OA
HETATM   44  H   UNK N   1      21.202  22.184   3.312  0.00  0.00     0.167 HD
ENDBRANCH  41  43
ENDBRANCH  40  41
ENDBRANCH  39  40
ENDBRANCH  37  39
ENDBRANCH  36  37
ENDBRANCH   3  36
TORSDOF 15
ENDMDL
MODEL 4
REMARK VINA RESULT:      -7.5      4.783      8.167
REMARK  15 active torsions:
REMARK  status: ('A' for Active; 'I' for Inactive)
REMARK    1  A    between atoms: S_1  and  C_20 
REMARK    2  A    between atoms: S_1  and  C_30 
REMARK    3  A    between atoms: S_2  and  C_27 
REMARK    4  A    between atoms: S_2  and  C_30 
REMARK    5  A    between atoms: O_3  and  C_16 
REMARK    6  A    between atoms: O_3  and  C_39 
REMARK    7  A    between atoms: O_4  and  C_17 
REMARK    8  A    between atoms: O_6  and  C_42 
REMARK    9  A    between atoms: C_8  and  C_12 
REMARK   10  A    between atoms: C_9  and  C_13 
REMARK   11  A    between atoms: C_10  and  C_14 
REMARK   12  A    between atoms: C_11  and  C_15 
REMARK   13  A    between atoms: C_39  and  C_40 
REMARK   14  A    between atoms: C_40  and  C_41 
REMARK   15  A    between atoms: C_41  and  C_42 
ROOT
HETATM    1  C   UNK N   1      30.420  17.515   7.780  0.00  0.00    -0.015 A 
HETATM    2  C   UNK N   1      31.701  16.650   5.844  0.00  0.00    -0.015 A 
HETATM    3  C   UNK N   1      30.483  17.169   6.400  0.00  0.00     0.093 A 
HETATM    4  C   UNK N   1      31.560  17.364   8.563  0.00  0.00     0.029 A 
HETATM    5  C   UNK N   1      32.810  16.537   6.689  0.00  0.00     0.029 A 
HETATM    6  C   UNK N   1      32.741  16.889   8.021  0.00  0.00     0.003 A 
ENDROOT
BRANCH   6   7
HETATM    7  S   UNK N   1      34.257  17.293   8.841  0.00  0.00    -0.109 SA
BRANCH   7   8
HETATM    8  C   UNK N   1      34.582  15.526   9.362  0.00  0.00     0.058 C 
HETATM    9  C   UNK N   1      33.325  14.905   9.943  0.00  0.00     0.039 C 
HETATM   10  C   UNK N   1      34.898  14.566   8.219  0.00  0.00     0.039 C 
BRANCH   8  11
HETATM   11  S   UNK N   1      36.024  15.512  10.516  0.00  0.00    -0.109 SA
BRANCH  11  12
HETATM   12  C   UNK N   1      35.616  14.065  11.499  0.00  0.00     0.003 A 
HETATM   13  C   UNK N   1      35.151  12.909  10.895  0.00  0.00     0.029 A 
HETATM   14  C   UNK N   1      34.973  11.721  11.590  0.00  0.00    -0.016 A 
HETATM   15  C   UNK N   1      35.236  11.717  12.986  0.00  0.00     0.079 A 
HETATM   16  C   UNK N   1      35.666  12.910  13.633  0.00  0.00    -0.016 A 
HETATM   17  C   UNK N   1      35.865  14.069  12.864  0.00  0.00     0.029 A 
BRANCH  14  18
HETATM   18  C   UNK N   1      34.552  10.509  10.758  0.00  0.00    -0.021 C 
HETATM   19  C   UNK N   1      35.747   9.582  10.584  0.00  0.00     0.019 C 
HETATM   20  C   UNK N   1      33.432   9.674  11.345  0.00  0.00     0.019 C 
HETATM   21  C   UNK N   1      34.110  10.967   9.378  0.00  0.00     0.019 C 
ENDBRANCH  14  18
BRANCH  15  22
HETATM   22  O   UNK N   1      35.083  10.593  13.708  0.00  0.00    -0.360 OA
HETATM   23  H   UNK N   1      35.711   9.901  13.648  0.00  0.00     0.217 HD
ENDBRANCH  15  22
BRANCH  16  24
HETATM   24  C   UNK N   1      35.942  12.940  15.130  0.00  0.00    -0.021 C 
HETATM   25  C   UNK N   1      36.748  11.717  15.531  0.00  0.00     0.019 C 
HETATM   26  C   UNK N   1      36.734  14.169  15.563  0.00  0.00     0.019 C 
HETATM   27  C   UNK N   1      34.634  12.951  15.901  0.00  0.00     0.019 C 
ENDBRANCH  16  24
ENDBRANCH  11  12
ENDBRANCH   8  11
ENDBRANCH   7   8
ENDBRANCH   6   7
BRANCH   1  28
HETATM   28  C   UNK N   1      29.173  18.137   8.411  0.00  0.00    -0.021 C 
HETATM   29  C   UNK N   1      28.582  19.191   7.498  0.00  0.00     0.019 C 
HETATM   30  C   UNK N   1      28.071  17.118   8.678  0.00  0.00     0.019 C 
HETATM   31  C   UNK N   1      29.517  18.763   9.754  0.00  0.00     0.019 C 
ENDBRANCH   1  28
BRANCH   2  32
HETATM   32  C   UNK N   1      31.935  16.335   4.364  0.00  0.00    -0.021 C 
HETATM   33  C   UNK N   1      33.427  16.200   4.061  0.00  0.00     0.019 C 
HETATM   34  C   UNK N   1      31.431  17.418   3.428  0.00  0.00     0.019 C 
HETATM   35  C   UNK N   1      31.289  15.010   4.014  0.00  0.00     0.019 C 
ENDBRANCH   2  32
BRANCH   3  36
HETATM   36  O   UNK N   1      29.374  17.386   5.654  0.00  0.00    -0.278 OA
BRANCH  36  37
HETATM   37  C   UNK N   1      28.545  16.388   5.286  0.00  0.00     0.264 C 
HETATM   38  O   UNK N   1      28.539  15.324   5.879  0.00  0.00    -0.265 OA
BRANCH  37  39
HETATM   39  C   UNK N   1      27.507  16.650   4.255  0.00  0.00     0.122 C 
BRANCH  39  40
HETATM   40  C   UNK N   1      26.496  17.683   4.684  0.00  0.00     0.119 C 
BRANCH  40  41
HETATM   41  C   UNK N   1      26.796  18.910   3.897  0.00  0.00     0.139 C 
HETATM   42  O   UNK N   1      25.895  19.526   3.352  0.00  0.00    -0.650 OA
BRANCH  41  43
HETATM   43  O   UNK N   1      28.073  19.311   3.749  0.00  0.00    -0.776 OA
HETATM   44  H   UNK N   1      28.356  19.921   3.097  0.00  0.00     0.167 HD
ENDBRANCH  41  43
ENDBRANCH  40  41
ENDBRANCH  39  40
ENDBRANCH  37  39
ENDBRANCH  36  37
ENDBRANCH   3  36
TORSDOF 15
ENDMDL
MODEL 5
REMARK VINA RESULT:      -7.5      2.378      4.447
REMARK  15 active torsions:
REMARK  status: ('A' for Active; 'I' for Inactive)
REMARK    1  A    between atoms: S_1  and  C_20 
REMARK    2  A    between atoms: S_1  and  C_30 
REMARK    3  A    between atoms: S_2  and  C_27 
REMARK    4  A    between atoms: S_2  and  C_30 
REMARK    5  A    between atoms: O_3  and  C_16 
REMARK    6  A    between atoms: O_3  and  C_39 
REMARK    7  A    between atoms: O_4  and  C_17 
REMARK    8  A    between atoms: O_6  and  C_42 
REMARK    9  A    between atoms: C_8  and  C_12 
REMARK   10  A    between atoms: C_9  and  C_13 
REMARK   11  A    between atoms: C_10  and  C_14 
REMARK   12  A    between atoms: C_11  and  C_15 
REMARK   13  A    between atoms: C_39  and  C_40 
REMARK   14  A    between atoms: C_40  and  C_41 
REMARK   15  A    between atoms: C_41  and  C_42 
ROOT
HETATM    1  C   UNK N   1      21.335  14.758   2.912  0.00  0.00    -0.015 A 
HETATM    2  C   UNK N   1      21.454  15.576   5.248  0.00  0.00    -0.015 A 
HETATM    3  C   UNK N   1      20.815  15.567   3.963  0.00  0.00     0.093 A 
HETATM    4  C   UNK N   1      22.450  13.966   3.165  0.00  0.00     0.029 A 
HETATM    5  C   UNK N   1      22.564  14.744   5.432  0.00  0.00     0.029 A 
HETATM    6  C   UNK N   1      23.051  13.954   4.411  0.00  0.00     0.003 A 
ENDROOT
BRANCH   6   7
HETATM    7  S   UNK N   1      24.013  12.537   4.860  0.00  0.00    -0.109 SA
BRANCH   7   8
HETATM    8  C   UNK N   1      25.624  13.488   4.865  0.00  0.00     0.058 C 
HETATM    9  C   UNK N   1      25.721  14.360   6.102  0.00  0.00     0.039 C 
HETATM   10  C   UNK N   1      26.877  12.628   4.997  0.00  0.00     0.039 C 
BRANCH   8  11
HETATM   11  S   UNK N   1      25.756  14.423   3.278  0.00  0.00    -0.109 SA
BRANCH  11  12
HETATM   12  C   UNK N   1      26.645  15.875   3.851  0.00  0.00     0.003 A 
HETATM   13  C   UNK N   1      27.987  15.795   4.183  0.00  0.00     0.029 A 
HETATM   14  C   UNK N   1      28.753  16.915   4.477  0.00  0.00    -0.016 A 
HETATM   15  C   UNK N   1      28.110  18.182   4.483  0.00  0.00     0.079 A 
HETATM   16  C   UNK N   1      26.720  18.276   4.194  0.00  0.00    -0.016 A 
HETATM   17  C   UNK N   1      26.011  17.109   3.865  0.00  0.00     0.029 A 
BRANCH  14  18
HETATM   18  C   UNK N   1      30.242  16.669   4.722  0.00  0.00    -0.021 C 
HETATM   19  C   UNK N   1      30.548  15.194   4.500  0.00  0.00     0.019 C 
HETATM   20  C   UNK N   1      31.187  17.451   3.831  0.00  0.00     0.019 C 
HETATM   21  C   UNK N   1      30.584  17.006   6.164  0.00  0.00     0.019 C 
ENDBRANCH  14  18
BRANCH  15  22
HETATM   22  O   UNK N   1      28.804  19.300   4.759  0.00  0.00    -0.360 OA
HETATM   23  H   UNK N   1      28.935  19.572   5.646  0.00  0.00     0.217 HD
ENDBRANCH  15  22
BRANCH  16  24
HETATM   24  C   UNK N   1      26.001  19.619   4.206  0.00  0.00    -0.021 C 
HETATM   25  C   UNK N   1      26.534  20.500   3.090  0.00  0.00     0.019 C 
HETATM   26  C   UNK N   1      24.495  19.487   4.003  0.00  0.00     0.019 C 
HETATM   27  C   UNK N   1      26.217  20.314   5.538  0.00  0.00     0.019 C 
ENDBRANCH  16  24
ENDBRANCH  11  12
ENDBRANCH   8  11
ENDBRANCH   7   8
ENDBRANCH   6   7
BRANCH   1  28
HETATM   28  C   UNK N   1      20.655  14.655   1.546  0.00  0.00    -0.021 C 
HETATM   29  C   UNK N   1      21.315  13.587   0.700  0.00  0.00     0.019 C 
HETATM   30  C   UNK N   1      19.178  14.288   1.644  0.00  0.00     0.019 C 
HETATM   31  C   UNK N   1      20.721  15.991   0.822  0.00  0.00     0.019 C 
ENDBRANCH   1  28
BRANCH   2  32
HETATM   32  C   UNK N   1      20.943  16.316   6.486  0.00  0.00    -0.021 C 
HETATM   33  C   UNK N   1      21.440  15.650   7.769  0.00  0.00     0.019 C 
HETATM   34  C   UNK N   1      19.430  16.331   6.602  0.00  0.00     0.019 C 
HETATM   35  C   UNK N   1      21.473  17.736   6.489  0.00  0.00     0.019 C 
ENDBRANCH   2  32
BRANCH   3  36
HETATM   36  O   UNK N   1      19.693  16.279   3.701  0.00  0.00    -0.278 OA
BRANCH  36  37
HETATM   37  C   UNK N   1      19.732  17.540   3.225  0.00  0.00     0.264 C 
HETATM   38  O   UNK N   1      18.718  18.107   2.862  0.00  0.00    -0.265 OA
BRANCH  37  39
HETATM   39  C   UNK N   1      21.003  18.307   3.306  0.00  0.00     0.122 C 
BRANCH  39  40
HETATM   40  C   UNK N   1      20.795  19.760   3.653  0.00  0.00     0.119 C 
BRANCH  40  41
HETATM   41  C   UNK N   1      21.282  20.540   2.484  0.00  0.00     0.139 C 
HETATM   42  O   UNK N   1      21.072  20.145   1.350  0.00  0.00    -0.650 OA
BRANCH  41  43
HETATM   43  O   UNK N   1      21.999  21.662   2.685  0.00  0.00    -0.776 OA
HETATM   44  H   UNK N   1      21.656  22.436   3.087  0.00  0.00     0.167 HD
ENDBRANCH  41  43
ENDBRANCH  40  41
ENDBRANCH  39  40
ENDBRANCH  37  39
ENDBRANCH  36  37
ENDBRANCH   3  36
TORSDOF 15
ENDMDL
MODEL 6
REMARK VINA RESULT:      -7.5      2.179      9.485
REMARK  15 active torsions:
REMARK  status: ('A' for Active; 'I' for Inactive)
REMARK    1  A    between atoms: S_1  and  C_20 
REMARK    2  A    between atoms: S_1  and  C_30 
REMARK    3  A    between atoms: S_2  and  C_27 
REMARK    4  A    between atoms: S_2  and  C_30 
REMARK    5  A    between atoms: O_3  and  C_16 
REMARK    6  A    between atoms: O_3  and  C_39 
REMARK    7  A    between atoms: O_4  and  C_17 
REMARK    8  A    between atoms: O_6  and  C_42 
REMARK    9  A    between atoms: C_8  and  C_12 
REMARK   10  A    between atoms: C_9  and  C_13 
REMARK   11  A    between atoms: C_10  and  C_14 
REMARK   12  A    between atoms: C_11  and  C_15 
REMARK   13  A    between atoms: C_39  and  C_40 
REMARK   14  A    between atoms: C_40  and  C_41 
REMARK   15  A    between atoms: C_41  and  C_42 
ROOT
HETATM    1  C   UNK N   1      31.576  16.446   6.411  0.00  0.00    -0.015 A 
HETATM    2  C   UNK N   1      32.665  14.835   4.876  0.00  0.00    -0.015 A 
HETATM    3  C   UNK N   1      32.539  15.422   6.180  0.00  0.00     0.093 A 
HETATM    4  C   UNK N   1      30.753  16.843   5.362  0.00  0.00     0.029 A 
HETATM    5  C   UNK N   1      31.795  15.275   3.873  0.00  0.00     0.029 A 
HETATM    6  C   UNK N   1      30.856  16.258   4.112  0.00  0.00     0.003 A 
ENDROOT
BRANCH   6   7
HETATM    7  S   UNK N   1      29.448  16.324   3.041  0.00  0.00    -0.109 SA
BRANCH   7   8
HETATM    8  C   UNK N   1      28.684  14.775   3.759  0.00  0.00     0.058 C 
HETATM    9  C   UNK N   1      27.485  14.344   2.934  0.00  0.00     0.039 C 
HETATM   10  C   UNK N   1      29.565  13.532   3.690  0.00  0.00     0.039 C 
BRANCH   8  11
HETATM   11  S   UNK N   1      28.295  15.084   5.538  0.00  0.00    -0.109 SA
BRANCH  11  12
HETATM   12  C   UNK N   1      26.950  16.261   5.358  0.00  0.00     0.003 A 
HETATM   13  C   UNK N   1      27.211  17.606   5.154  0.00  0.00     0.029 A 
HETATM   14  C   UNK N   1      26.215  18.524   4.852  0.00  0.00    -0.016 A 
HETATM   15  C   UNK N   1      24.873  18.062   4.803  0.00  0.00     0.079 A 
HETATM   16  C   UNK N   1      24.581  16.693   5.060  0.00  0.00    -0.016 A 
HETATM   17  C   UNK N   1      25.639  15.807   5.320  0.00  0.00     0.029 A 
BRANCH  14  18
HETATM   18  C   UNK N   1      26.679  19.949   4.554  0.00  0.00    -0.021 C 
HETATM   19  C   UNK N   1      28.202  19.988   4.546  0.00  0.00     0.019 C 
HETATM   20  C   UNK N   1      26.220  20.520   3.227  0.00  0.00     0.019 C 
HETATM   21  C   UNK N   1      26.193  20.884   5.650  0.00  0.00     0.019 C 
ENDBRANCH  14  18
BRANCH  15  22
HETATM   22  O   UNK N   1      23.868  18.907   4.513  0.00  0.00    -0.360 OA
HETATM   23  H   UNK N   1      23.489  19.442   5.183  0.00  0.00     0.217 HD
ENDBRANCH  15  22
BRANCH  16  24
HETATM   24  C   UNK N   1      23.150  16.171   5.028  0.00  0.00    -0.021 C 
HETATM   25  C   UNK N   1      22.566  16.353   3.639  0.00  0.00     0.019 C 
HETATM   26  C   UNK N   1      23.051  14.689   5.374  0.00  0.00     0.019 C 
HETATM   27  C   UNK N   1      22.297  16.927   6.031  0.00  0.00     0.019 C 
ENDBRANCH  16  24
ENDBRANCH  11  12
ENDBRANCH   8  11
ENDBRANCH   7   8
ENDBRANCH   6   7
BRANCH   1  28
HETATM   28  C   UNK N   1      31.349  17.058   7.794  0.00  0.00    -0.021 C 
HETATM   29  C   UNK N   1      32.426  18.072   8.114  0.00  0.00     0.019 C 
HETATM   30  C   UNK N   1      30.013  17.785   7.910  0.00  0.00     0.019 C 
HETATM   31  C   UNK N   1      31.342  15.971   8.858  0.00  0.00     0.019 C 
ENDBRANCH   1  28
BRANCH   2  32
HETATM   32  C   UNK N   1      33.582  13.663   4.518  0.00  0.00    -0.021 C 
HETATM   33  C   UNK N   1      33.181  13.041   3.181  0.00  0.00     0.019 C 
HETATM   34  C   UNK N   1      33.533  12.527   5.522  0.00  0.00     0.019 C 
HETATM   35  C   UNK N   1      35.008  14.156   4.369  0.00  0.00     0.019 C 
ENDBRANCH   2  32
BRANCH   3  36
HETATM   36  O   UNK N   1      33.281  15.018   7.238  0.00  0.00    -0.278 OA
BRANCH  36  37
HETATM   37  C   UNK N   1      34.536  15.464   7.452  0.00  0.00     0.264 C 
HETATM   38  O   UNK N   1      34.983  16.409   6.826  0.00  0.00    -0.265 OA
BRANCH  37  39
HETATM   39  C   UNK N   1      35.322  14.906   8.583  0.00  0.00     0.122 C 
BRANCH  39  40
HETATM   40  C   UNK N   1      34.808  15.344   9.931  0.00  0.00     0.119 C 
BRANCH  40  41
HETATM   41  C   UNK N   1      35.740  16.401  10.408  0.00  0.00     0.139 C 
HETATM   42  O   UNK N   1      35.465  17.579  10.251  0.00  0.00    -0.650 OA
BRANCH  41  43
HETATM   43  O   UNK N   1      36.911  16.052  10.972  0.00  0.00    -0.776 OA
HETATM   44  H   UNK N   1      37.732  16.066  10.521  0.00  0.00     0.167 HD
ENDBRANCH  41  43
ENDBRANCH  40  41
ENDBRANCH  39  40
ENDBRANCH  37  39
ENDBRANCH  36  37
ENDBRANCH   3  36
TORSDOF 15
ENDMDL
MODEL 7
REMARK VINA RESULT:      -7.4      2.129      9.600
REMARK  15 active torsions:
REMARK  status: ('A' for Active; 'I' for Inactive)
REMARK    1  A    between atoms: S_1  and  C_20 
REMARK    2  A    between atoms: S_1  and  C_30 
REMARK    3  A    between atoms: S_2  and  C_27 
REMARK    4  A    between atoms: S_2  and  C_30 
REMARK    5  A    between atoms: O_3  and  C_16 
REMARK    6  A    between atoms: O_3  and  C_39 
REMARK    7  A    between atoms: O_4  and  C_17 
REMARK    8  A    between atoms: O_6  and  C_42 
REMARK    9  A    between atoms: C_8  and  C_12 
REMARK   10  A    between atoms: C_9  and  C_13 
REMARK   11  A    between atoms: C_10  and  C_14 
REMARK   12  A    between atoms: C_11  and  C_15 
REMARK   13  A    between atoms: C_39  and  C_40 
REMARK   14  A    between atoms: C_40  and  C_41 
REMARK   15  A    between atoms: C_41  and  C_42 
ROOT
HETATM    1  C   UNK N   1      32.360  14.553   5.463  0.00  0.00    -0.015 A 
HETATM    2  C   UNK N   1      31.029  16.185   6.767  0.00  0.00    -0.015 A 
HETATM    3  C   UNK N   1      32.183  15.342   6.636  0.00  0.00     0.093 A 
HETATM    4  C   UNK N   1      31.413  14.637   4.448  0.00  0.00     0.029 A 
HETATM    5  C   UNK N   1      30.125  16.227   5.701  0.00  0.00     0.029 A 
HETATM    6  C   UNK N   1      30.314  15.469   4.563  0.00  0.00     0.003 A 
ENDROOT
BRANCH   6   7
HETATM    7  S   UNK N   1      29.517  16.008   3.077  0.00  0.00    -0.109 SA
BRANCH   7   8
HETATM    8  C   UNK N   1      28.268  14.616   3.105  0.00  0.00     0.058 C 
HETATM    9  C   UNK N   1      27.320  14.730   1.924  0.00  0.00     0.039 C 
HETATM   10  C   UNK N   1      28.853  13.223   2.893  0.00  0.00     0.039 C 
BRANCH   8  11
HETATM   11  S   UNK N   1      27.421  14.621   4.746  0.00  0.00    -0.109 SA
BRANCH  11  12
HETATM   12  C   UNK N   1      26.336  16.035   4.527  0.00  0.00     0.003 A 
HETATM   13  C   UNK N   1      24.962  15.870   4.482  0.00  0.00     0.029 A 
HETATM   14  C   UNK N   1      24.079  16.942   4.475  0.00  0.00    -0.016 A 
HETATM   15  C   UNK N   1      24.622  18.254   4.463  0.00  0.00     0.079 A 
HETATM   16  C   UNK N   1      26.032  18.442   4.458  0.00  0.00    -0.016 A 
HETATM   17  C   UNK N   1      26.871  17.316   4.506  0.00  0.00     0.029 A 
BRANCH  14  18
HETATM   18  C   UNK N   1      22.592  16.591   4.528  0.00  0.00    -0.021 C 
HETATM   19  C   UNK N   1      22.021  17.037   5.867  0.00  0.00     0.019 C 
HETATM   20  C   UNK N   1      21.734  17.227   3.452  0.00  0.00     0.019 C 
HETATM   21  C   UNK N   1      22.419  15.085   4.423  0.00  0.00     0.019 C 
ENDBRANCH  14  18
BRANCH  15  22
HETATM   22  O   UNK N   1      23.813  19.329   4.457  0.00  0.00    -0.360 OA
HETATM   23  H   UNK N   1      23.594  19.755   3.652  0.00  0.00     0.217 HD
ENDBRANCH  15  22
BRANCH  16  24
HETATM   24  C   UNK N   1      26.643  19.837   4.431  0.00  0.00    -0.021 C 
HETATM   25  C   UNK N   1      26.219  20.561   3.166  0.00  0.00     0.019 C 
HETATM   26  C   UNK N   1      26.212  20.696   5.614  0.00  0.00     0.019 C 
HETATM   27  C   UNK N   1      28.158  19.744   4.470  0.00  0.00     0.019 C 
ENDBRANCH  16  24
ENDBRANCH  11  12
ENDBRANCH   8  11
ENDBRANCH   7   8
ENDBRANCH   6   7
BRANCH   1  28
HETATM   28  C   UNK N   1      33.604  13.691   5.238  0.00  0.00    -0.021 C 
HETATM   29  C   UNK N   1      33.790  13.396   3.765  0.00  0.00     0.019 C 
HETATM   30  C   UNK N   1      34.886  14.362   5.717  0.00  0.00     0.019 C 
HETATM   31  C   UNK N   1      33.487  12.385   6.007  0.00  0.00     0.019 C 
ENDBRANCH   1  28
BRANCH   2  32
HETATM   32  C   UNK N   1      30.768  17.155   7.922  0.00  0.00    -0.021 C 
HETATM   33  C   UNK N   1      32.000  18.014   8.207  0.00  0.00     0.019 C 
HETATM   34  C   UNK N   1      30.450  16.463   9.234  0.00  0.00     0.019 C 
HETATM   35  C   UNK N   1      29.643  18.100   7.552  0.00  0.00     0.019 C 
ENDBRANCH   2  32
BRANCH   3  36
HETATM   36  O   UNK N   1      33.155  15.283   7.577  0.00  0.00    -0.278 OA
BRANCH  36  37
HETATM   37  C   UNK N   1      33.016  14.572   8.714  0.00  0.00     0.264 C 
HETATM   38  O   UNK N   1      32.300  13.588   8.758  0.00  0.00    -0.265 OA
BRANCH  37  39
HETATM   39  C   UNK N   1      33.879  14.893   9.881  0.00  0.00     0.122 C 
BRANCH  39  40
HETATM   40  C   UNK N   1      35.271  15.319   9.486  0.00  0.00     0.119 C 
BRANCH  40  41
HETATM   41  C   UNK N   1      35.742  16.243  10.552  0.00  0.00     0.139 C 
HETATM   42  O   UNK N   1      35.590  17.447  10.433  0.00  0.00    -0.650 OA
BRANCH  41  43
HETATM   43  O   UNK N   1      36.380  15.747  11.629  0.00  0.00    -0.776 OA
HETATM   44  H   UNK N   1      36.762  14.892  11.662  0.00  0.00     0.167 HD
ENDBRANCH  41  43
ENDBRANCH  40  41
ENDBRANCH  39  40
ENDBRANCH  37  39
ENDBRANCH  36  37
ENDBRANCH   3  36
TORSDOF 15
ENDMDL
MODEL 8
REMARK VINA RESULT:      -7.3      3.609      9.034
REMARK  15 active torsions:
REMARK  status: ('A' for Active; 'I' for Inactive)
REMARK    1  A    between atoms: S_1  and  C_20 
REMARK    2  A    between atoms: S_1  and  C_30 
REMARK    3  A    between atoms: S_2  and  C_27 
REMARK    4  A    between atoms: S_2  and  C_30 
REMARK    5  A    between atoms: O_3  and  C_16 
REMARK    6  A    between atoms: O_3  and  C_39 
REMARK    7  A    between atoms: O_4  and  C_17 
REMARK    8  A    between atoms: O_6  and  C_42 
REMARK    9  A    between atoms: C_8  and  C_12 
REMARK   10  A    between atoms: C_9  and  C_13 
REMARK   11  A    between atoms: C_10  and  C_14 
REMARK   12  A    between atoms: C_11  and  C_15 
REMARK   13  A    between atoms: C_39  and  C_40 
REMARK   14  A    between atoms: C_40  and  C_41 
REMARK   15  A    between atoms: C_41  and  C_42 
ROOT
HETATM    1  C   UNK N   1      25.404  18.425   4.654  0.00  0.00    -0.015 A 
HETATM    2  C   UNK N   1      25.122  16.089   5.430  0.00  0.00    -0.015 A 
HETATM    3  C   UNK N   1      25.974  17.183   5.060  0.00  0.00     0.093 A 
HETATM    4  C   UNK N   1      24.020  18.557   4.647  0.00  0.00     0.029 A 
HETATM    5  C   UNK N   1      23.740  16.300   5.411  0.00  0.00     0.029 A 
HETATM    6  C   UNK N   1      23.200  17.511   5.029  0.00  0.00     0.003 A 
ENDROOT
BRANCH   6   7
HETATM    7  S   UNK N   1      21.566  17.894   5.594  0.00  0.00    -0.109 SA
BRANCH   7   8
HETATM    8  C   UNK N   1      20.747  17.194   4.066  0.00  0.00     0.058 C 
HETATM    9  C   UNK N   1      20.427  18.302   3.080  0.00  0.00     0.039 C 
HETATM   10  C   UNK N   1      21.632  16.281   3.223  0.00  0.00     0.039 C 
BRANCH   8  11
HETATM   11  S   UNK N   1      19.274  16.211   4.589  0.00  0.00    -0.109 SA
BRANCH  11  12
HETATM   12  C   UNK N   1      20.096  14.817   5.368  0.00  0.00     0.003 A 
HETATM   13  C   UNK N   1      20.525  14.895   6.683  0.00  0.00     0.029 A 
HETATM   14  C   UNK N   1      21.020  13.798   7.375  0.00  0.00    -0.016 A 
HETATM   15  C   UNK N   1      21.132  12.564   6.681  0.00  0.00     0.079 A 
HETATM   16  C   UNK N   1      20.743  12.478   5.314  0.00  0.00    -0.016 A 
HETATM   17  C   UNK N   1      20.212  13.615   4.683  0.00  0.00     0.029 A 
BRANCH  14  18
HETATM   18  C   UNK N   1      21.354  14.026   8.850  0.00  0.00    -0.021 C 
HETATM   19  C   UNK N   1      21.101  15.486   9.200  0.00  0.00     0.019 C 
HETATM   20  C   UNK N   1      20.556  13.194   9.834  0.00  0.00     0.019 C 
HETATM   21  C   UNK N   1      22.826  13.734   9.089  0.00  0.00     0.019 C 
ENDBRANCH  14  18
BRANCH  15  22
HETATM   22  O   UNK N   1      21.602  11.468   7.302  0.00  0.00    -0.360 OA
HETATM   23  H   UNK N   1      21.855  11.506   8.204  0.00  0.00     0.217 HD
ENDBRANCH  15  22
BRANCH  16  24
HETATM   24  C   UNK N   1      20.864  11.172   4.540  0.00  0.00    -0.021 C 
HETATM   25  C   UNK N   1      19.979  10.113   5.173  0.00  0.00     0.019 C 
HETATM   26  C   UNK N   1      20.442  11.306   3.080  0.00  0.00     0.019 C 
HETATM   27  C   UNK N   1      22.304  10.691   4.551  0.00  0.00     0.019 C 
ENDBRANCH  16  24
ENDBRANCH  11  12
ENDBRANCH   8  11
ENDBRANCH   7   8
ENDBRANCH   6   7
BRANCH   1  28
HETATM   28  C   UNK N   1      26.261  19.646   4.317  0.00  0.00    -0.021 C 
HETATM   29  C   UNK N   1      26.378  20.564   5.515  0.00  0.00     0.019 C 
HETATM   30  C   UNK N   1      27.683  19.279   3.905  0.00  0.00     0.019 C 
HETATM   31  C   UNK N   1      25.657  20.409   3.149  0.00  0.00     0.019 C 
ENDBRANCH   1  28
BRANCH   2  32
HETATM   32  C   UNK N   1      25.600  14.742   5.979  0.00  0.00    -0.021 C 
HETATM   33  C   UNK N   1      24.507  13.681   5.858  0.00  0.00     0.019 C 
HETATM   34  C   UNK N   1      25.958  14.782   7.453  0.00  0.00     0.019 C 
HETATM   35  C   UNK N   1      26.786  14.253   5.174  0.00  0.00     0.019 C 
ENDBRANCH   2  32
BRANCH   3  36
HETATM   36  O   UNK N   1      27.325  17.108   5.114  0.00  0.00    -0.278 OA
BRANCH  36  37
HETATM   37  C   UNK N   1      28.003  17.110   6.279  0.00  0.00     0.264 C 
HETATM   38  O   UNK N   1      29.052  16.505   6.397  0.00  0.00    -0.265 OA
BRANCH  37  39
HETATM   39  C   UNK N   1      27.551  18.000   7.380  0.00  0.00     0.122 C 
BRANCH  39  40
HETATM   40  C   UNK N   1      28.689  18.704   8.075  0.00  0.00     0.119 C 
BRANCH  40  41
HETATM   41  C   UNK N   1      28.747  18.143   9.451  0.00  0.00     0.139 C 
HETATM   42  O   UNK N   1      27.955  17.284   9.799  0.00  0.00    -0.650 OA
BRANCH  41  43
HETATM   43  O   UNK N   1      29.650  18.623  10.328  0.00  0.00    -0.776 OA
HETATM   44  H   UNK N   1      29.710  18.344  11.220  0.00  0.00     0.167 HD
ENDBRANCH  41  43
ENDBRANCH  40  41
ENDBRANCH  39  40
ENDBRANCH  37  39
ENDBRANCH  36  37
ENDBRANCH   3  36
TORSDOF 15
ENDMDL
MODEL 9
REMARK VINA RESULT:      -7.2      2.352      4.545
REMARK  15 active torsions:
REMARK  status: ('A' for Active; 'I' for Inactive)
REMARK    1  A    between atoms: S_1  and  C_20 
REMARK    2  A    between atoms: S_1  and  C_30 
REMARK    3  A    between atoms: S_2  and  C_27 
REMARK    4  A    between atoms: S_2  and  C_30 
REMARK    5  A    between atoms: O_3  and  C_16 
REMARK    6  A    between atoms: O_3  and  C_39 
REMARK    7  A    between atoms: O_4  and  C_17 
REMARK    8  A    between atoms: O_6  and  C_42 
REMARK    9  A    between atoms: C_8  and  C_12 
REMARK   10  A    between atoms: C_9  and  C_13 
REMARK   11  A    between atoms: C_10  and  C_14 
REMARK   12  A    between atoms: C_11  and  C_15 
REMARK   13  A    between atoms: C_39  and  C_40 
REMARK   14  A    between atoms: C_40  and  C_41 
REMARK   15  A    between atoms: C_41  and  C_42 
ROOT
HETATM    1  C   UNK N   1      22.400  14.254   6.182  0.00  0.00    -0.015 A 
HETATM    2  C   UNK N   1      22.505  16.430   5.002  0.00  0.00    -0.015 A 
HETATM    3  C   UNK N   1      21.739  15.347   5.550  0.00  0.00     0.093 A 
HETATM    4  C   UNK N   1      23.787  14.273   6.277  0.00  0.00     0.029 A 
HETATM    5  C   UNK N   1      23.896  16.386   5.145  0.00  0.00     0.029 A 
HETATM    6  C   UNK N   1      24.524  15.329   5.772  0.00  0.00     0.003 A 
ENDROOT
BRANCH   6   7
HETATM    7  S   UNK N   1      26.138  15.615   6.440  0.00  0.00    -0.109 SA
BRANCH   7   8
HETATM    8  C   UNK N   1      27.001  15.248   4.821  0.00  0.00     0.058 C 
HETATM    9  C   UNK N   1      28.048  14.167   5.011  0.00  0.00     0.039 C 
HETATM   10  C   UNK N   1      26.113  14.629   3.746  0.00  0.00     0.039 C 
BRANCH   8  11
HETATM   11  S   UNK N   1      27.673  16.830   4.145  0.00  0.00    -0.109 SA
BRANCH  11  12
HETATM   12  C   UNK N   1      29.047  17.087   5.273  0.00  0.00     0.003 A 
HETATM   13  C   UNK N   1      28.820  17.475   6.584  0.00  0.00     0.029 A 
HETATM   14  C   UNK N   1      29.831  17.532   7.533  0.00  0.00    -0.016 A 
HETATM   15  C   UNK N   1      31.155  17.225   7.119  0.00  0.00     0.079 A 
HETATM   16  C   UNK N   1      31.414  16.873   5.764  0.00  0.00    -0.016 A 
HETATM   17  C   UNK N   1      30.339  16.795   4.862  0.00  0.00     0.029 A 
BRANCH  14  18
HETATM   18  C   UNK N   1      29.400  17.879   8.958  0.00  0.00    -0.021 C 
HETATM   19  C   UNK N   1      30.201  19.079   9.444  0.00  0.00     0.019 C 
HETATM   20  C   UNK N   1      27.936  18.232   9.127  0.00  0.00     0.019 C 
HETATM   21  C   UNK N   1      29.701  16.710   9.881  0.00  0.00     0.019 C 
ENDBRANCH  14  18
BRANCH  15  22
HETATM   22  O   UNK N   1      32.173  17.262   7.996  0.00  0.00    -0.360 OA
HETATM   23  H   UNK N   1      33.046  17.431   7.704  0.00  0.00     0.217 HD
ENDBRANCH  15  22
BRANCH  16  24
HETATM   24  C   UNK N   1      32.824  16.552   5.287  0.00  0.00    -0.021 C 
HETATM   25  C   UNK N   1      32.888  16.636   3.773  0.00  0.00     0.019 C 
HETATM   26  C   UNK N   1      33.871  17.512   5.843  0.00  0.00     0.019 C 
HETATM   27  C   UNK N   1      33.217  15.153   5.727  0.00  0.00     0.019 C 
ENDBRANCH  16  24
ENDBRANCH  11  12
ENDBRANCH   8  11
ENDBRANCH   7   8
ENDBRANCH   6   7
BRANCH   1  28
HETATM   28  C   UNK N   1      21.633  13.109   6.845  0.00  0.00    -0.021 C 
HETATM   29  C   UNK N   1      21.121  13.526   8.207  0.00  0.00     0.019 C 
HETATM   30  C   UNK N   1      20.420  12.660   6.038  0.00  0.00     0.019 C 
HETATM   31  C   UNK N   1      22.529  11.889   6.991  0.00  0.00     0.019 C 
ENDBRANCH   1  28
BRANCH   2  32
HETATM   32  C   UNK N   1      21.922  17.706   4.390  0.00  0.00    -0.021 C 
HETATM   33  C   UNK N   1      22.998  18.505   3.655  0.00  0.00     0.019 C 
HETATM   34  C   UNK N   1      21.345  18.662   5.418  0.00  0.00     0.019 C 
HETATM   35  C   UNK N   1      20.861  17.346   3.370  0.00  0.00     0.019 C 
ENDBRANCH   2  32
BRANCH   3  36
HETATM   36  O   UNK N   1      20.386  15.326   5.529  0.00  0.00    -0.278 OA
BRANCH  36  37
HETATM   37  C   UNK N   1      19.639  15.998   6.430  0.00  0.00     0.264 C 
HETATM   38  O   UNK N   1      18.424  16.012   6.354  0.00  0.00    -0.265 OA
BRANCH  37  39
HETATM   39  C   UNK N   1      20.299  16.586   7.625  0.00  0.00     0.122 C 
BRANCH  39  40
HETATM   40  C   UNK N   1      19.338  16.858   8.755  0.00  0.00     0.119 C 
BRANCH  40  41
HETATM   41  C   UNK N   1      19.494  18.296   9.098  0.00  0.00     0.139 C 
HETATM   42  O   UNK N   1      20.260  19.000   8.461  0.00  0.00    -0.650 OA
BRANCH  41  43
HETATM   43  O   UNK N   1      18.822  18.808  10.146  0.00  0.00    -0.776 OA
HETATM   44  H   UNK N   1      18.274  19.566  10.095  0.00  0.00     0.167 HD
ENDBRANCH  41  43
ENDBRANCH  40  41
ENDBRANCH  39  40
ENDBRANCH  37  39
ENDBRANCH  36  37
ENDBRANCH   3  36
TORSDOF 15
ENDMDL
