MODEL 1
REMARK VINA RESULT:      -7.2      0.000      0.000
REMARK  7 active torsions:
REMARK  status: ('A' for Active; 'I' for Inactive)
REMARK    1  A    between atoms: C_12  and  O_1 
REMARK    2  A    between atoms: C_4  and  C_9 
REMARK    3  A    between atoms: C_5  and  C_10 
REMARK    4  A    between atoms: C_9  and  C_12 
REMARK    5  A    between atoms: C_10  and  C_13 
REMARK    6  A    between atoms: C_12  and  C_14 
REMARK    7  A    between atoms: C_13  and  C_15 
ROOT
HETATM    1  N   UNK N   1      27.976  23.103  -5.541  0.00  0.00     0.094 N 
HETATM    2  C   UNK N   1      29.115  23.645  -4.776  0.00  0.00     0.226 C 
HETATM    3  C   UNK N   1      26.824  24.012  -5.664  0.00  0.00     0.230 C 
HETATM    4  C   UNK N   1      28.764  24.906  -3.965  0.00  0.00     0.036 C 
HETATM    5  C   UNK N   1      26.297  24.340  -4.258  0.00  0.00     0.036 C 
HETATM    6  C   UNK N   1      27.409  24.750  -3.278  0.00  0.00     0.004 C 
HETATM    7  C   UNK N   1      28.437  22.677  -6.855  0.00  0.00     0.310 C 
ENDROOT
BRANCH   2   8
HETATM    8  C   UNK N   1      29.643  22.573  -3.833  0.00  0.00     0.072 C 
BRANCH   8   9
HETATM    9  C   UNK N   1      30.830  23.120  -3.061  0.00  0.00     0.153 C 
BRANCH   9  10
HETATM   10  O   UNK N   1      30.621  22.931  -1.692  0.00  0.00    -0.391 OA
HETATM   11  H   UNK N   1      31.306  22.923  -1.005  0.00  0.00     0.210 HD
ENDBRANCH   9  10
BRANCH   9  12
HETATM   12  C   UNK N   1      32.103  22.471  -3.524  0.00  0.00    -0.030 A 
HETATM   13  C   UNK N   1      32.609  21.363  -2.828  0.00  0.00     0.010 A 
HETATM   14  C   UNK N   1      33.796  20.751  -3.243  0.00  0.00     0.001 A 
HETATM   15  C   UNK N   1      34.478  21.236  -4.362  0.00  0.00     0.000 A 
HETATM   16  C   UNK N   1      33.976  22.334  -5.066  0.00  0.00     0.001 A 
HETATM   17  C   UNK N   1      32.794  22.951  -4.647  0.00  0.00     0.010 A 
ENDBRANCH   9  12
ENDBRANCH   8   9
ENDBRANCH   2   8
BRANCH   3  18
HETATM   18  C   UNK N   1      27.155  25.302  -6.434  0.00  0.00     0.119 C 
BRANCH  18  19
HETATM   19  C   UNK N   1      26.106  26.341  -6.182  0.00  0.00     0.161 C 
HETATM   20  O   UNK N   1      24.947  26.098  -6.487  0.00  0.00    -0.292 OA
BRANCH  19  21
HETATM   21  C   UNK N   1      26.460  27.648  -5.592  0.00  0.00     0.010 A 
HETATM   22  C   UNK N   1      27.450  28.450  -6.181  0.00  0.00     0.015 A 
HETATM   23  C   UNK N   1      27.789  29.682  -5.617  0.00  0.00     0.001 A 
HETATM   24  C   UNK N   1      27.135  30.125  -4.465  0.00  0.00     0.000 A 
HETATM   25  C   UNK N   1      26.146  29.336  -3.874  0.00  0.00     0.001 A 
HETATM   26  C   UNK N   1      25.812  28.099  -4.433  0.00  0.00     0.015 A 
ENDBRANCH  19  21
ENDBRANCH  18  19
ENDBRANCH   3  18
TORSDOF 7
ENDMDL
MODEL 2
REMARK VINA RESULT:      -7.1     18.601     22.958
REMARK  7 active torsions:
REMARK  status: ('A' for Active; 'I' for Inactive)
REMARK    1  A    between atoms: C_12  and  O_1 
REMARK    2  A    between atoms: C_4  and  C_9 
REMARK    3  A    between atoms: C_5  and  C_10 
REMARK    4  A    between atoms: C_9  and  C_12 
REMARK    5  A    between atoms: C_10  and  C_13 
REMARK    6  A    between atoms: C_12  and  C_14 
REMARK    7  A    between atoms: C_13  and  C_15 
ROOT
HETATM    1  N   UNK N   1      35.435  11.837  11.781  0.00  0.00     0.094 N 
HETATM    2  C   UNK N   1      35.063  13.263  11.837  0.00  0.00     0.226 C 
HETATM    3  C   UNK N   1      35.780  11.235  13.080  0.00  0.00     0.230 C 
HETATM    4  C   UNK N   1      35.432  13.940  13.170  0.00  0.00     0.036 C 
HETATM    5  C   UNK N   1      36.985  11.983  13.670  0.00  0.00     0.036 C 
HETATM    6  C   UNK N   1      36.825  13.512  13.629  0.00  0.00     0.004 C 
HETATM    7  C   UNK N   1      34.367  11.086  11.134  0.00  0.00     0.310 C 
ENDROOT
BRANCH   2   8
HETATM    8  C   UNK N   1      35.739  14.005  10.694  0.00  0.00     0.072 C 
BRANCH   8   9
HETATM    9  C   UNK N   1      35.572  15.500  10.892  0.00  0.00     0.153 C 
BRANCH   9  10
HETATM   10  O   UNK N   1      36.819  16.124  10.801  0.00  0.00    -0.391 OA
HETATM   11  H   UNK N   1      37.277  16.370   9.982  0.00  0.00     0.210 HD
ENDBRANCH   9  10
BRANCH   9  12
HETATM   12  C   UNK N   1      34.598  16.057   9.893  0.00  0.00    -0.030 A 
HETATM   13  C   UNK N   1      33.444  15.328   9.568  0.00  0.00     0.010 A 
HETATM   14  C   UNK N   1      32.531  15.830   8.636  0.00  0.00     0.001 A 
HETATM   15  C   UNK N   1      32.761  17.068   8.030  0.00  0.00     0.000 A 
HETATM   16  C   UNK N   1      33.903  17.805   8.354  0.00  0.00     0.001 A 
HETATM   17  C   UNK N   1      34.820  17.300   9.280  0.00  0.00     0.010 A 
ENDBRANCH   9  12
ENDBRANCH   8   9
ENDBRANCH   2   8
BRANCH   3  18
HETATM   18  C   UNK N   1      34.604  11.231  14.072  0.00  0.00     0.119 C 
BRANCH  18  19
HETATM   19  C   UNK N   1      34.996  10.530  15.337  0.00  0.00     0.161 C 
HETATM   20  O   UNK N   1      35.222   9.329  15.302  0.00  0.00    -0.292 OA
BRANCH  19  21
HETATM   21  C   UNK N   1      35.089  11.267  16.614  0.00  0.00     0.010 A 
HETATM   22  C   UNK N   1      34.963  12.664  16.640  0.00  0.00     0.015 A 
HETATM   23  C   UNK N   1      35.060  13.359  17.848  0.00  0.00     0.001 A 
HETATM   24  C   UNK N   1      35.276  12.663  19.039  0.00  0.00     0.000 A 
HETATM   25  C   UNK N   1      35.399  11.271  19.023  0.00  0.00     0.001 A 
HETATM   26  C   UNK N   1      35.310  10.575  17.814  0.00  0.00     0.015 A 
ENDBRANCH  19  21
ENDBRANCH  18  19
ENDBRANCH   3  18
TORSDOF 7
ENDMDL
MODEL 3
REMARK VINA RESULT:      -7.0      0.911      7.755
REMARK  7 active torsions:
REMARK  status: ('A' for Active; 'I' for Inactive)
REMARK    1  A    between atoms: C_12  and  O_1 
REMARK    2  A    between atoms: C_4  and  C_9 
REMARK    3  A    between atoms: C_5  and  C_10 
REMARK    4  A    between atoms: C_9  and  C_12 
REMARK    5  A    between atoms: C_10  and  C_13 
REMARK    6  A    between atoms: C_12  and  C_14 
REMARK    7  A    between atoms: C_13  and  C_15 
ROOT
HETATM    1  N   UNK N   1      27.818  23.946  -4.662  0.00  0.00     0.094 N 
HETATM    2  C   UNK N   1      28.031  24.997  -5.675  0.00  0.00     0.226 C 
HETATM    3  C   UNK N   1      29.000  23.117  -4.372  0.00  0.00     0.230 C 
HETATM    4  C   UNK N   1      29.330  24.817  -6.481  0.00  0.00     0.036 C 
HETATM    5  C   UNK N   1      29.438  22.407  -5.662  0.00  0.00     0.036 C 
HETATM    6  C   UNK N   1      29.529  23.353  -6.870  0.00  0.00     0.004 C 
HETATM    7  C   UNK N   1      27.301  24.550  -3.442  0.00  0.00     0.310 C 
ENDROOT
BRANCH   2   8
HETATM    8  C   UNK N   1      26.847  25.023  -6.630  0.00  0.00     0.072 C 
BRANCH   8   9
HETATM    9  C   UNK N   1      26.737  26.399  -7.261  0.00  0.00     0.153 C 
BRANCH   9  10
HETATM   10  O   UNK N   1      25.639  26.428  -8.125  0.00  0.00    -0.391 OA
HETATM   11  H   UNK N   1      25.363  27.179  -8.674  0.00  0.00     0.210 HD
ENDBRANCH   9  10
BRANCH   9  12
HETATM   12  C   UNK N   1      26.637  27.458  -6.199  0.00  0.00    -0.030 A 
HETATM   13  C   UNK N   1      25.664  27.342  -5.195  0.00  0.00     0.010 A 
HETATM   14  C   UNK N   1      25.554  28.321  -4.203  0.00  0.00     0.001 A 
HETATM   15  C   UNK N   1      26.422  29.417  -4.204  0.00  0.00     0.000 A 
HETATM   16  C   UNK N   1      27.399  29.535  -5.196  0.00  0.00     0.001 A 
HETATM   17  C   UNK N   1      27.505  28.561  -6.192  0.00  0.00     0.010 A 
ENDBRANCH   9  12
ENDBRANCH   8   9
ENDBRANCH   2   8
BRANCH   3  18
HETATM   18  C   UNK N   1      30.167  23.921  -3.772  0.00  0.00     0.119 C 
BRANCH  18  19
HETATM   19  C   UNK N   1      31.008  23.042  -2.898  0.00  0.00     0.161 C 
HETATM   20  O   UNK N   1      30.688  22.890  -1.728  0.00  0.00    -0.292 OA
BRANCH  19  21
HETATM   21  C   UNK N   1      32.218  22.382  -3.430  0.00  0.00     0.010 A 
HETATM   22  C   UNK N   1      32.834  22.858  -4.596  0.00  0.00     0.015 A 
HETATM   23  C   UNK N   1      33.974  22.227  -5.101  0.00  0.00     0.001 A 
HETATM   24  C   UNK N   1      34.509  21.120  -4.439  0.00  0.00     0.000 A 
HETATM   25  C   UNK N   1      33.904  20.641  -3.274  0.00  0.00     0.001 A 
HETATM   26  C   UNK N   1      32.760  21.266  -2.773  0.00  0.00     0.015 A 
ENDBRANCH  19  21
ENDBRANCH  18  19
ENDBRANCH   3  18
TORSDOF 7
ENDMDL
MODEL 4
REMARK VINA RESULT:      -6.9     18.482     22.159
REMARK  7 active torsions:
REMARK  status: ('A' for Active; 'I' for Inactive)
REMARK    1  A    between atoms: C_12  and  O_1 
REMARK    2  A    between atoms: C_4  and  C_9 
REMARK    3  A    between atoms: C_5  and  C_10 
REMARK    4  A    between atoms: C_9  and  C_12 
REMARK    5  A    between atoms: C_10  and  C_13 
REMARK    6  A    between atoms: C_12  and  C_14 
REMARK    7  A    between atoms: C_13  and  C_15 
ROOT
HETATM    1  N   UNK N   1      36.530  13.685  13.140  0.00  0.00     0.094 N 
HETATM    2  C   UNK N   1      35.516  12.732  13.629  0.00  0.00     0.226 C 
HETATM    3  C   UNK N   1      36.465  13.974  11.697  0.00  0.00     0.230 C 
HETATM    4  C   UNK N   1      34.806  11.961  12.500  0.00  0.00     0.036 C 
HETATM    5  C   UNK N   1      36.675  12.667  10.919  0.00  0.00     0.036 C 
HETATM    6  C   UNK N   1      35.808  11.508  11.439  0.00  0.00     0.004 C 
HETATM    7  C   UNK N   1      36.448  14.916  13.915  0.00  0.00     0.310 C 
ENDROOT
BRANCH   2   8
HETATM    8  C   UNK N   1      36.173  11.741  14.577  0.00  0.00     0.072 C 
BRANCH   8   9
HETATM    9  C   UNK N   1      35.110  11.091  15.444  0.00  0.00     0.153 C 
BRANCH   9  10
HETATM   10  O   UNK N   1      35.260   9.702  15.401  0.00  0.00    -0.391 OA
HETATM   11  H   UNK N   1      36.098   9.220  15.317  0.00  0.00     0.210 HD
ENDBRANCH   9  10
BRANCH   9  12
HETATM   12  C   UNK N   1      35.187  11.614  16.851  0.00  0.00    -0.030 A 
HETATM   13  C   UNK N   1      35.090  12.994  17.084  0.00  0.00     0.010 A 
HETATM   14  C   UNK N   1      35.166  13.497  18.386  0.00  0.00     0.001 A 
HETATM   15  C   UNK N   1      35.329  12.623  19.464  0.00  0.00     0.000 A 
HETATM   16  C   UNK N   1      35.418  11.247  19.241  0.00  0.00     0.001 A 
HETATM   17  C   UNK N   1      35.350  10.743  17.939  0.00  0.00     0.010 A 
ENDBRANCH   9  12
ENDBRANCH   8   9
ENDBRANCH   2   8
BRANCH   3  18
HETATM   18  C   UNK N   1      35.148  14.650  11.278  0.00  0.00     0.119 C 
BRANCH  18  19
HETATM   19  C   UNK N   1      35.430  15.892  10.489  0.00  0.00     0.161 C 
HETATM   20  O   UNK N   1      36.486  16.481  10.670  0.00  0.00    -0.292 OA
BRANCH  19  21
HETATM   21  C   UNK N   1      34.445  16.414   9.520  0.00  0.00     0.010 A 
HETATM   22  C   UNK N   1      34.658  17.646   8.883  0.00  0.00     0.015 A 
HETATM   23  C   UNK N   1      33.721  18.140   7.972  0.00  0.00     0.001 A 
HETATM   24  C   UNK N   1      32.569  17.404   7.687  0.00  0.00     0.000 A 
HETATM   25  C   UNK N   1      32.351  16.175   8.314  0.00  0.00     0.001 A 
HETATM   26  C   UNK N   1      33.283  15.683   9.231  0.00  0.00     0.015 A 
ENDBRANCH  19  21
ENDBRANCH  18  19
ENDBRANCH   3  18
TORSDOF 7
ENDMDL
MODEL 5
REMARK VINA RESULT:      -6.8     17.085     21.498
REMARK  7 active torsions:
REMARK  status: ('A' for Active; 'I' for Inactive)
REMARK    1  A    between atoms: C_12  and  O_1 
REMARK    2  A    between atoms: C_4  and  C_9 
REMARK    3  A    between atoms: C_5  and  C_10 
REMARK    4  A    between atoms: C_9  and  C_12 
REMARK    5  A    between atoms: C_10  and  C_13 
REMARK    6  A    between atoms: C_12  and  C_14 
REMARK    7  A    between atoms: C_13  and  C_15 
ROOT
HETATM    1  N   UNK N   1      35.282  12.121  10.857  0.00  0.00     0.094 N 
HETATM    2  C   UNK N   1      34.544  13.283  10.327  0.00  0.00     0.226 C 
HETATM    3  C   UNK N   1      36.189  12.421  11.977  0.00  0.00     0.230 C 
HETATM    4  C   UNK N   1      35.106  14.635  10.805  0.00  0.00     0.036 C 
HETATM    5  C   UNK N   1      37.242  13.436  11.506  0.00  0.00     0.036 C 
HETATM    6  C   UNK N   1      36.633  14.635  10.760  0.00  0.00     0.004 C 
HETATM    7  C   UNK N   1      34.335  11.077  11.227  0.00  0.00     0.310 C 
ENDROOT
BRANCH   2   8
HETATM    8  C   UNK N   1      34.564  13.241   8.806  0.00  0.00     0.072 C 
BRANCH   8   9
HETATM    9  C   UNK N   1      33.220  13.700   8.271  0.00  0.00     0.153 C 
BRANCH   9  10
HETATM   10  O   UNK N   1      32.207  13.282   9.139  0.00  0.00    -0.391 OA
HETATM   11  H   UNK N   1      31.918  12.367   9.282  0.00  0.00     0.210 HD
ENDBRANCH   9  10
BRANCH   9  12
HETATM   12  C   UNK N   1      33.210  15.190   8.081  0.00  0.00    -0.030 A 
HETATM   13  C   UNK N   1      34.200  15.795   7.292  0.00  0.00     0.010 A 
HETATM   14  C   UNK N   1      34.208  17.181   7.110  0.00  0.00     0.001 A 
HETATM   15  C   UNK N   1      33.222  17.970   7.709  0.00  0.00     0.000 A 
HETATM   16  C   UNK N   1      32.228  17.374   8.490  0.00  0.00     0.001 A 
HETATM   17  C   UNK N   1      32.223  15.990   8.678  0.00  0.00     0.010 A 
ENDBRANCH   9  12
ENDBRANCH   8   9
ENDBRANCH   2   8
BRANCH   3  18
HETATM   18  C   UNK N   1      35.454  12.942  13.224  0.00  0.00     0.119 C 
BRANCH  18  19
HETATM   19  C   UNK N   1      36.242  12.630  14.459  0.00  0.00     0.161 C 
HETATM   20  O   UNK N   1      36.830  11.560  14.533  0.00  0.00    -0.292 OA
BRANCH  19  21
HETATM   21  C   UNK N   1      36.299  13.587  15.583  0.00  0.00     0.010 A 
HETATM   22  C   UNK N   1      37.141  14.708  15.522  0.00  0.00     0.015 A 
HETATM   23  C   UNK N   1      37.198  15.607  16.589  0.00  0.00     0.001 A 
HETATM   24  C   UNK N   1      36.409  15.398  17.722  0.00  0.00     0.000 A 
HETATM   25  C   UNK N   1      35.564  14.286  17.790  0.00  0.00     0.001 A 
HETATM   26  C   UNK N   1      35.512  13.382  16.726  0.00  0.00     0.015 A 
ENDBRANCH  19  21
ENDBRANCH  18  19
ENDBRANCH   3  18
TORSDOF 7
ENDMDL
MODEL 6
REMARK VINA RESULT:      -6.7     15.367     19.943
REMARK  7 active torsions:
REMARK  status: ('A' for Active; 'I' for Inactive)
REMARK    1  A    between atoms: C_12  and  O_1 
REMARK    2  A    between atoms: C_4  and  C_9 
REMARK    3  A    between atoms: C_5  and  C_10 
REMARK    4  A    between atoms: C_9  and  C_12 
REMARK    5  A    between atoms: C_10  and  C_13 
REMARK    6  A    between atoms: C_12  and  C_14 
REMARK    7  A    between atoms: C_13  and  C_15 
ROOT
HETATM    1  N   UNK N   1      35.025  14.011   8.942  0.00  0.00     0.094 N 
HETATM    2  C   UNK N   1      34.469  15.366   9.120  0.00  0.00     0.226 C 
HETATM    3  C   UNK N   1      35.652  13.436  10.144  0.00  0.00     0.230 C 
HETATM    4  C   UNK N   1      34.945  16.058  10.410  0.00  0.00     0.036 C 
HETATM    5  C   UNK N   1      36.818  14.338  10.576  0.00  0.00     0.036 C 
HETATM    6  C   UNK N   1      36.439  15.828  10.631  0.00  0.00     0.004 C 
HETATM    7  C   UNK N   1      33.984  13.127   8.432  0.00  0.00     0.310 C 
ENDROOT
BRANCH   2   8
HETATM    8  C   UNK N   1      34.845  16.225   7.921  0.00  0.00     0.072 C 
BRANCH   8   9
HETATM    9  C   UNK N   1      33.975  17.469   7.899  0.00  0.00     0.153 C 
BRANCH   9  10
HETATM   10  O   UNK N   1      34.788  18.603   7.814  0.00  0.00    -0.391 OA
HETATM   11  H   UNK N   1      34.576  19.423   7.340  0.00  0.00     0.210 HD
ENDBRANCH   9  10
BRANCH   9  12
HETATM   12  C   UNK N   1      32.993  17.402   6.763  0.00  0.00    -0.030 A 
HETATM   13  C   UNK N   1      31.626  17.242   7.038  0.00  0.00     0.010 A 
HETATM   14  C   UNK N   1      30.700  17.173   5.993  0.00  0.00     0.001 A 
HETATM   15  C   UNK N   1      31.134  17.273   4.668  0.00  0.00     0.000 A 
HETATM   16  C   UNK N   1      32.492  17.441   4.387  0.00  0.00     0.001 A 
HETATM   17  C   UNK N   1      33.419  17.503   5.430  0.00  0.00     0.010 A 
ENDBRANCH   9  12
ENDBRANCH   8   9
ENDBRANCH   2   8
BRANCH   3  18
HETATM   18  C   UNK N   1      34.660  13.237  11.303  0.00  0.00     0.119 C 
BRANCH  18  19
HETATM   19  C   UNK N   1      35.229  12.290  12.315  0.00  0.00     0.161 C 
HETATM   20  O   UNK N   1      35.520  11.155  11.966  0.00  0.00    -0.292 OA
BRANCH  19  21
HETATM   21  C   UNK N   1      35.420  12.708  13.719  0.00  0.00     0.010 A 
HETATM   22  C   UNK N   1      36.495  13.536  14.075  0.00  0.00     0.015 A 
HETATM   23  C   UNK N   1      36.678  13.923  15.405  0.00  0.00     0.001 A 
HETATM   24  C   UNK N   1      35.784  13.492  16.387  0.00  0.00     0.000 A 
HETATM   25  C   UNK N   1      34.708  12.669  16.041  0.00  0.00     0.001 A 
HETATM   26  C   UNK N   1      34.529  12.275  14.713  0.00  0.00     0.015 A 
ENDBRANCH  19  21
ENDBRANCH  18  19
ENDBRANCH   3  18
TORSDOF 7
ENDMDL
MODEL 7
REMARK VINA RESULT:      -6.7     15.560     19.150
REMARK  7 active torsions:
REMARK  status: ('A' for Active; 'I' for Inactive)
REMARK    1  A    between atoms: C_12  and  O_1 
REMARK    2  A    between atoms: C_4  and  C_9 
REMARK    3  A    between atoms: C_5  and  C_10 
REMARK    4  A    between atoms: C_9  and  C_12 
REMARK    5  A    between atoms: C_10  and  C_13 
REMARK    6  A    between atoms: C_12  and  C_14 
REMARK    7  A    between atoms: C_13  and  C_15 
ROOT
HETATM    1  N   UNK N   1      34.542  13.868   9.757  0.00  0.00     0.094 N 
HETATM    2  C   UNK N   1      35.986  13.594   9.887  0.00  0.00     0.226 C 
HETATM    3  C   UNK N   1      34.203  15.265   9.437  0.00  0.00     0.230 C 
HETATM    4  C   UNK N   1      36.843  14.868  10.004  0.00  0.00     0.036 C 
HETATM    5  C   UNK N   1      34.726  16.173  10.560  0.00  0.00     0.036 C 
HETATM    6  C   UNK N   1      36.186  15.879  10.943  0.00  0.00     0.004 C 
HETATM    7  C   UNK N   1      33.966  12.961   8.773  0.00  0.00     0.310 C 
ENDROOT
BRANCH   2   8
HETATM    8  C   UNK N   1      36.223  12.715  11.106  0.00  0.00     0.072 C 
BRANCH   8   9
HETATM    9  C   UNK N   1      34.973  12.699  11.967  0.00  0.00     0.153 C 
BRANCH   9  10
HETATM   10  O   UNK N   1      34.313  11.477  11.805  0.00  0.00    -0.391 OA
HETATM   11  H   UNK N   1      34.702  10.660  11.455  0.00  0.00     0.210 HD
ENDBRANCH   9  10
BRANCH   9  12
HETATM   12  C   UNK N   1      35.323  12.955  13.406  0.00  0.00    -0.030 A 
HETATM   13  C   UNK N   1      36.386  13.815  13.719  0.00  0.00     0.010 A 
HETATM   14  C   UNK N   1      36.727  14.059  15.052  0.00  0.00     0.001 A 
HETATM   15  C   UNK N   1      36.002  13.452  16.081  0.00  0.00     0.000 A 
HETATM   16  C   UNK N   1      34.937  12.600  15.778  0.00  0.00     0.001 A 
HETATM   17  C   UNK N   1      34.599  12.350  14.446  0.00  0.00     0.010 A 
ENDBRANCH   9  12
ENDBRANCH   8   9
ENDBRANCH   2   8
BRANCH   3  18
HETATM   18  C   UNK N   1      34.749  15.720   8.072  0.00  0.00     0.119 C 
BRANCH  18  19
HETATM   19  C   UNK N   1      34.064  16.977   7.632  0.00  0.00     0.161 C 
HETATM   20  O   UNK N   1      34.745  17.936   7.298  0.00  0.00    -0.292 OA
BRANCH  19  21
HETATM   21  C   UNK N   1      32.590  17.071   7.617  0.00  0.00     0.010 A 
HETATM   22  C   UNK N   1      31.923  17.925   8.508  0.00  0.00     0.015 A 
HETATM   23  C   UNK N   1      30.528  18.006   8.497  0.00  0.00     0.001 A 
HETATM   24  C   UNK N   1      29.791  17.241   7.590  0.00  0.00     0.000 A 
HETATM   25  C   UNK N   1      30.448  16.391   6.696  0.00  0.00     0.001 A 
HETATM   26  C   UNK N   1      31.843  16.303   6.712  0.00  0.00     0.015 A 
ENDBRANCH  19  21
ENDBRANCH  18  19
ENDBRANCH   3  18
TORSDOF 7
ENDMDL
MODEL 8
REMARK VINA RESULT:      -6.6      2.025      8.763
REMARK  7 active torsions:
REMARK  status: ('A' for Active; 'I' for Inactive)
REMARK    1  A    between atoms: C_12  and  O_1 
REMARK    2  A    between atoms: C_4  and  C_9 
REMARK    3  A    between atoms: C_5  and  C_10 
REMARK    4  A    between atoms: C_9  and  C_12 
REMARK    5  A    between atoms: C_10  and  C_13 
REMARK    6  A    between atoms: C_12  and  C_14 
REMARK    7  A    between atoms: C_13  and  C_15 
ROOT
HETATM    1  N   UNK N   1      29.925  22.426  -3.495  0.00  0.00     0.094 N 
HETATM    2  C   UNK N   1      29.771  23.566  -4.419  0.00  0.00     0.226 C 
HETATM    3  C   UNK N   1      30.882  21.398  -3.934  0.00  0.00     0.230 C 
HETATM    4  C   UNK N   1      30.369  23.309  -5.814  0.00  0.00     0.036 C 
HETATM    5  C   UNK N   1      30.409  20.818  -5.276  0.00  0.00     0.036 C 
HETATM    6  C   UNK N   1      30.028  21.901  -6.300  0.00  0.00     0.004 C 
HETATM    7  C   UNK N   1      30.276  22.924  -2.171  0.00  0.00     0.310 C 
ENDROOT
BRANCH   2   8
HETATM    8  C   UNK N   1      28.294  23.902  -4.560  0.00  0.00     0.072 C 
BRANCH   8   9
HETATM    9  C   UNK N   1      27.997  25.195  -3.823  0.00  0.00     0.153 C 
BRANCH   9  10
HETATM   10  O   UNK N   1      29.155  25.977  -3.770  0.00  0.00    -0.391 OA
HETATM   11  H   UNK N   1      29.215  26.924  -3.971  0.00  0.00     0.210 HD
ENDBRANCH   9  10
BRANCH   9  12
HETATM   12  C   UNK N   1      26.862  25.928  -4.481  0.00  0.00    -0.030 A 
HETATM   13  C   UNK N   1      26.330  25.443  -5.685  0.00  0.00     0.010 A 
HETATM   14  C   UNK N   1      25.278  26.116  -6.313  0.00  0.00     0.001 A 
HETATM   15  C   UNK N   1      24.745  27.272  -5.736  0.00  0.00     0.000 A 
HETATM   16  C   UNK N   1      25.264  27.757  -4.533  0.00  0.00     0.001 A 
HETATM   17  C   UNK N   1      26.321  27.089  -3.908  0.00  0.00     0.010 A 
ENDBRANCH   9  12
ENDBRANCH   8   9
ENDBRANCH   2   8
BRANCH   3  18
HETATM   18  C   UNK N   1      32.323  21.927  -4.049  0.00  0.00     0.119 C 
BRANCH  18  19
HETATM   19  C   UNK N   1      33.258  21.060  -3.262  0.00  0.00     0.161 C 
HETATM   20  O   UNK N   1      33.229  21.115  -2.041  0.00  0.00    -0.292 OA
BRANCH  19  21
HETATM   21  C   UNK N   1      34.216  20.166  -3.943  0.00  0.00     0.010 A 
HETATM   22  C   UNK N   1      33.933  18.799  -4.090  0.00  0.00     0.015 A 
HETATM   23  C   UNK N   1      34.844  17.954  -4.728  0.00  0.00     0.001 A 
HETATM   24  C   UNK N   1      36.040  18.469  -5.231  0.00  0.00     0.000 A 
HETATM   25  C   UNK N   1      36.329  19.830  -5.093  0.00  0.00     0.001 A 
HETATM   26  C   UNK N   1      35.422  20.675  -4.448  0.00  0.00     0.015 A 
ENDBRANCH  19  21
ENDBRANCH  18  19
ENDBRANCH   3  18
TORSDOF 7
ENDMDL
MODEL 9
REMARK VINA RESULT:      -6.5     14.359     16.705
REMARK  7 active torsions:
REMARK  status: ('A' for Active; 'I' for Inactive)
REMARK    1  A    between atoms: C_12  and  O_1 
REMARK    2  A    between atoms: C_4  and  C_9 
REMARK    3  A    between atoms: C_5  and  C_10 
REMARK    4  A    between atoms: C_9  and  C_12 
REMARK    5  A    between atoms: C_10  and  C_13 
REMARK    6  A    between atoms: C_12  and  C_14 
REMARK    7  A    between atoms: C_13  and  C_15 
ROOT
HETATM    1  N   UNK N   1      22.128  15.752   5.471  0.00  0.00     0.094 N 
HETATM    2  C   UNK N   1      23.564  16.085   5.518  0.00  0.00     0.226 C 
HETATM    3  C   UNK N   1      21.716  14.662   6.371  0.00  0.00     0.230 C 
HETATM    4  C   UNK N   1      24.417  15.021   6.231  0.00  0.00     0.036 C 
HETATM    5  C   UNK N   1      22.479  13.385   5.988  0.00  0.00     0.036 C 
HETATM    6  C   UNK N   1      23.989  13.614   5.815  0.00  0.00     0.004 C 
HETATM    7  C   UNK N   1      21.346  16.954   5.728  0.00  0.00     0.310 C 
ENDROOT
BRANCH   2   8
HETATM    8  C   UNK N   1      24.082  16.276   4.100  0.00  0.00     0.072 C 
BRANCH   8   9
HETATM    9  C   UNK N   1      25.588  16.467   4.134  0.00  0.00     0.153 C 
BRANCH   9  10
HETATM   10  O   UNK N   1      26.181  15.657   3.162  0.00  0.00    -0.391 OA
HETATM   11  H   UNK N   1      27.131  15.587   2.978  0.00  0.00     0.210 HD
ENDBRANCH   9  10
BRANCH   9  12
HETATM   12  C   UNK N   1      25.938  17.916   3.940  0.00  0.00    -0.030 A 
HETATM   13  C   UNK N   1      24.952  18.816   3.509  0.00  0.00     0.010 A 
HETATM   14  C   UNK N   1      25.264  20.165   3.319  0.00  0.00     0.001 A 
HETATM   15  C   UNK N   1      26.560  20.624   3.567  0.00  0.00     0.000 A 
HETATM   16  C   UNK N   1      27.546  19.736   4.004  0.00  0.00     0.001 A 
HETATM   17  C   UNK N   1      27.237  18.385   4.187  0.00  0.00     0.010 A 
ENDBRANCH   9  12
ENDBRANCH   8   9
ENDBRANCH   2   8
BRANCH   3  18
HETATM   18  C   UNK N   1      21.929  14.996   7.858  0.00  0.00     0.119 C 
BRANCH  18  19
HETATM   19  C   UNK N   1      21.438  13.872   8.718  0.00  0.00     0.161 C 
HETATM   20  O   UNK N   1      20.268  13.528   8.632  0.00  0.00    -0.292 OA
BRANCH  19  21
HETATM   21  C   UNK N   1      22.342  13.198   9.673  0.00  0.00     0.010 A 
HETATM   22  C   UNK N   1      21.831  12.594  10.832  0.00  0.00     0.015 A 
HETATM   23  C   UNK N   1      22.689  11.964  11.736  0.00  0.00     0.001 A 
HETATM   24  C   UNK N   1      24.062  11.926  11.485  0.00  0.00     0.000 A 
HETATM   25  C   UNK N   1      24.579  12.521  10.331  0.00  0.00     0.001 A 
HETATM   26  C   UNK N   1      23.723  13.159   9.430  0.00  0.00     0.015 A 
ENDBRANCH  19  21
ENDBRANCH  18  19
ENDBRANCH   3  18
TORSDOF 7
ENDMDL
