MODEL 1
REMARK VINA RESULT:      -6.2      0.000      0.000
REMARK  22 active torsions:
REMARK  status: ('A' for Active; 'I' for Inactive)
REMARK    1  A    between atoms: C_3  and  C_2 
REMARK    2  A    between atoms: C_4  and  C_3 
REMARK    3  A    between atoms: C_5  and  C_4 
REMARK    4  A    between atoms: C_6  and  C_5 
REMARK    5  A    between atoms: C_7  and  C_6 
REMARK    6  A    between atoms: C_8  and  C_7 
REMARK    7  A    between atoms: C_9  and  C_8 
REMARK    8  A    between atoms: C_11  and  C_10 
REMARK    9  A    between atoms: C_12  and  C_11 
REMARK   10  A    between atoms: C_13  and  C_12 
REMARK   11  A    between atoms: C_14  and  C_13 
REMARK   12  A    between atoms: C_15  and  C_14 
REMARK   13  A    between atoms: C_16  and  C_15 
REMARK   14  A    between atoms: C_17  and  C_16 
REMARK   15  A    between atoms: C_23  and  C_17 
REMARK   16  A    between atoms: C_21  and  C_20 
REMARK   17  A    between atoms: O_37  and  C_20 
REMARK   18  A    between atoms: O_37  and  C_23 
REMARK   19  A    between atoms: C_24  and  O_34 
REMARK   20  A    between atoms: C_25  and  O_35 
REMARK   21  A    between atoms: C_26  and  N_32 
REMARK   22  A    between atoms: O_36  and  C_27 
ROOT
HETATM    1  C   UNK N   1      34.005  15.352  10.075  0.00  0.00     0.180 C 
HETATM    2  C   UNK N   1      34.993  16.503  10.138  0.00  0.00     0.182 C 
HETATM    3  C   UNK N   1      34.359  17.380   9.113  0.00  0.00     0.198 C 
HETATM    4  C   UNK N   1      34.131  16.324   8.024  0.00  0.00     0.262 C 
HETATM    5  O   UNK N   1      33.712  15.141   8.703  0.00  0.00    -0.353 OA
ENDROOT
BRANCH   1   6
HETATM    6  C   UNK N   1      34.609  14.123  10.757  0.00  0.00     0.213 C 
BRANCH   6   7
HETATM    7  O   UNK N   1      34.544  14.188  12.134  0.00  0.00    -0.319 OA
BRANCH   7   8
HETATM    8  C   UNK N   1      35.603  13.916  12.946  0.00  0.00     0.258 C 
HETATM    9  O   UNK N   1      36.732  14.155  12.552  0.00  0.00    -0.265 OA
BRANCH   8  10
HETATM   10  C   UNK N   1      35.416  13.298  14.308  0.00  0.00     0.111 C 
BRANCH  10  11
HETATM   11  C   UNK N   1      36.569  13.597  15.252  0.00  0.00     0.010 C 
BRANCH  11  12
HETATM   12  C   UNK N   1      36.050  14.126  16.576  0.00  0.00     0.000 C 
BRANCH  12  13
HETATM   13  C   UNK N   1      34.946  13.227  17.087  0.00  0.00     0.000 C 
BRANCH  13  14
HETATM   14  C   UNK N   1      35.249  12.802  18.507  0.00  0.00     0.000 C 
BRANCH  14  15
HETATM   15  C   UNK N   1      35.343  11.291  18.584  0.00  0.00     0.004 C 
BRANCH  15  16
HETATM   16  C   UNK N   1      34.873  10.661  17.275  0.00  0.00     0.027 C 
BRANCH  16  17
HETATM   17  C   UNK N   1      35.808   9.661  16.637  0.00  0.00    -0.031 C 
HETATM   18  C   UNK N   1      37.041   9.960  16.200  0.00  0.00    -0.031 C 
BRANCH  18  19
HETATM   19  C   UNK N   1      37.914   8.889  15.622  0.00  0.00     0.027 C 
BRANCH  19  20
HETATM   20  C   UNK N   1      38.464   9.300  14.260  0.00  0.00     0.004 C 
BRANCH  20  21
HETATM   21  C   UNK N   1      38.143  10.750  13.918  0.00  0.00     0.000 C 
BRANCH  21  22
HETATM   22  C   UNK N   1      37.763  10.853  12.457  0.00  0.00     0.000 C 
BRANCH  22  23
HETATM   23  C   UNK N   1      36.742   9.785  12.137  0.00  0.00     0.000 C 
BRANCH  23  24
HETATM   24  C   UNK N   1      35.385  10.418  11.931  0.00  0.00    -0.000 C 
BRANCH  24  25
HETATM   25  C   UNK N   1      34.354   9.615  12.692  0.00  0.00    -0.005 C 
HETATM   26  C   UNK N   1      33.727  10.479  13.764  0.00  0.00     0.005 C 
ENDBRANCH  24  25
ENDBRANCH  23  24
ENDBRANCH  22  23
ENDBRANCH  21  22
ENDBRANCH  20  21
ENDBRANCH  19  20
ENDBRANCH  18  19
ENDBRANCH  16  17
ENDBRANCH  15  16
ENDBRANCH  14  15
ENDBRANCH  13  14
ENDBRANCH  12  13
ENDBRANCH  11  12
ENDBRANCH  10  11
ENDBRANCH   8  10
ENDBRANCH   7   8
ENDBRANCH   6   7
ENDBRANCH   1   6
BRANCH   2  27
HETATM   27  O   UNK N   1      35.055  17.094  11.401  0.00  0.00    -0.390 OA
HETATM   28  H   UNK N   1      34.368  17.123  12.086  0.00  0.00     0.210 HD
ENDBRANCH   2  27
BRANCH   3  29
HETATM   29  O   UNK N   1      35.196  18.421   8.706  0.00  0.00    -0.388 OA
HETATM   30  H   UNK N   1      35.007  19.362   8.849  0.00  0.00     0.210 HD
ENDBRANCH   3  29
BRANCH   4  31
HETATM   31  N   UNK N   1      33.198  16.667   6.917  0.00  0.00    -0.293 N 
HETATM   32  C   UNK N   1      33.790  16.983   5.726  0.00  0.00     0.101 A 
HETATM   33  C   UNK N   1      33.034  17.340   4.614  0.00  0.00     0.065 A 
HETATM   34  C   UNK N   1      31.654  17.373   4.735  0.00  0.00     0.102 A 
HETATM   35  N   UNK N   1      30.929  17.699   3.735  0.00  0.00    -0.385 N 
HETATM   36  N   UNK N   1      31.077  17.061   5.919  0.00  0.00    -0.308 N 
HETATM   37  H   UNK N   1      30.080  18.185   3.845  0.00  0.00     0.157 HD
ATOM     38  HN  UNK N   1      31.240  17.451   2.795  1.00  0.00     0.157 HD
HETATM   39  C   UNK N   1      31.819  16.714   7.004  0.00  0.00     0.227 A 
ATOM     40  HN  UNK N   1      30.060  17.088   5.998  1.00  0.00     0.171 HD
BRANCH  39  41
HETATM   41  O   UNK N   1      31.169  16.436   8.146  0.00  0.00    -0.332 OA
HETATM   42  H   UNK N   1      30.243  16.368   8.265  0.00  0.00     0.221 HD
ENDBRANCH  39  41
ENDBRANCH   4  31
TORSDOF 22
ENDMDL
MODEL 2
REMARK VINA RESULT:      -6.0      9.115     13.486
REMARK  22 active torsions:
REMARK  status: ('A' for Active; 'I' for Inactive)
REMARK    1  A    between atoms: C_3  and  C_2 
REMARK    2  A    between atoms: C_4  and  C_3 
REMARK    3  A    between atoms: C_5  and  C_4 
REMARK    4  A    between atoms: C_6  and  C_5 
REMARK    5  A    between atoms: C_7  and  C_6 
REMARK    6  A    between atoms: C_8  and  C_7 
REMARK    7  A    between atoms: C_9  and  C_8 
REMARK    8  A    between atoms: C_11  and  C_10 
REMARK    9  A    between atoms: C_12  and  C_11 
REMARK   10  A    between atoms: C_13  and  C_12 
REMARK   11  A    between atoms: C_14  and  C_13 
REMARK   12  A    between atoms: C_15  and  C_14 
REMARK   13  A    between atoms: C_16  and  C_15 
REMARK   14  A    between atoms: C_17  and  C_16 
REMARK   15  A    between atoms: C_23  and  C_17 
REMARK   16  A    between atoms: C_21  and  C_20 
REMARK   17  A    between atoms: O_37  and  C_20 
REMARK   18  A    between atoms: O_37  and  C_23 
REMARK   19  A    between atoms: C_24  and  O_34 
REMARK   20  A    between atoms: C_25  and  O_35 
REMARK   21  A    between atoms: C_26  and  N_32 
REMARK   22  A    between atoms: O_36  and  C_27 
ROOT
HETATM    1  C   UNK N   1      21.768  15.549   5.538  0.00  0.00     0.180 C 
HETATM    2  C   UNK N   1      21.708  16.470   6.744  0.00  0.00     0.182 C 
HETATM    3  C   UNK N   1      21.060  17.639   6.084  0.00  0.00     0.198 C 
HETATM    4  C   UNK N   1      21.938  17.703   4.828  0.00  0.00     0.262 C 
HETATM    5  O   UNK N   1      22.164  16.349   4.435  0.00  0.00    -0.353 OA
ENDROOT
BRANCH   1   6
HETATM    6  C   UNK N   1      22.735  14.399   5.823  0.00  0.00     0.213 C 
BRANCH   6   7
HETATM    7  O   UNK N   1      23.639  14.694   6.824  0.00  0.00    -0.319 OA
BRANCH   7   8
HETATM    8  C   UNK N   1      24.941  15.010   6.584  0.00  0.00     0.258 C 
HETATM    9  O   UNK N   1      25.719  15.081   7.521  0.00  0.00    -0.265 OA
BRANCH   8  10
HETATM   10  C   UNK N   1      25.440  15.304   5.193  0.00  0.00     0.111 C 
BRANCH  10  11
HETATM   11  C   UNK N   1      26.166  16.637   5.098  0.00  0.00     0.010 C 
BRANCH  11  12
HETATM   12  C   UNK N   1      26.297  17.070   3.649  0.00  0.00     0.000 C 
BRANCH  12  13
HETATM   13  C   UNK N   1      25.744  18.469   3.485  0.00  0.00     0.000 C 
BRANCH  13  14
HETATM   14  C   UNK N   1      25.629  19.135   4.838  0.00  0.00     0.000 C 
BRANCH  14  15
HETATM   15  C   UNK N   1      26.222  20.530   4.778  0.00  0.00     0.004 C 
BRANCH  15  16
HETATM   16  C   UNK N   1      27.547  20.577   5.535  0.00  0.00     0.027 C 
BRANCH  16  17
HETATM   17  C   UNK N   1      27.544  19.997   6.930  0.00  0.00    -0.031 C 
HETATM   18  C   UNK N   1      28.249  18.914   7.294  0.00  0.00    -0.031 C 
BRANCH  18  19
HETATM   19  C   UNK N   1      28.219  18.440   8.714  0.00  0.00     0.027 C 
BRANCH  19  20
HETATM   20  C   UNK N   1      29.612  18.469   9.336  0.00  0.00     0.004 C 
BRANCH  20  21
HETATM   21  C   UNK N   1      30.491  17.326   8.845  0.00  0.00     0.000 C 
BRANCH  21  22
HETATM   22  C   UNK N   1      31.840  17.868   8.423  0.00  0.00     0.000 C 
BRANCH  22  23
HETATM   23  C   UNK N   1      32.292  17.148   7.174  0.00  0.00     0.000 C 
BRANCH  23  24
HETATM   24  C   UNK N   1      31.194  17.186   6.135  0.00  0.00    -0.000 C 
BRANCH  24  25
HETATM   25  C   UNK N   1      31.417  16.059   5.151  0.00  0.00    -0.005 C 
HETATM   26  C   UNK N   1      30.771  14.795   5.674  0.00  0.00     0.005 C 
ENDBRANCH  24  25
ENDBRANCH  23  24
ENDBRANCH  22  23
ENDBRANCH  21  22
ENDBRANCH  20  21
ENDBRANCH  19  20
ENDBRANCH  18  19
ENDBRANCH  16  17
ENDBRANCH  15  16
ENDBRANCH  14  15
ENDBRANCH  13  14
ENDBRANCH  12  13
ENDBRANCH  11  12
ENDBRANCH  10  11
ENDBRANCH   8  10
ENDBRANCH   7   8
ENDBRANCH   6   7
ENDBRANCH   1   6
BRANCH   2  27
HETATM   27  O   UNK N   1      20.949  15.942   7.790  0.00  0.00    -0.390 OA
HETATM   28  H   UNK N   1      20.818  15.010   8.027  0.00  0.00     0.210 HD
ENDBRANCH   2  27
BRANCH   3  29
HETATM   29  O   UNK N   1      21.123  18.798   6.861  0.00  0.00    -0.388 OA
HETATM   30  H   UNK N   1      21.914  19.352   6.952  0.00  0.00     0.210 HD
ENDBRANCH   3  29
BRANCH   4  31
HETATM   31  N   UNK N   1      21.447  18.518   3.685  0.00  0.00    -0.293 N 
HETATM   32  C   UNK N   1      22.181  19.636   3.403  0.00  0.00     0.101 A 
HETATM   33  C   UNK N   1      21.822  20.497   2.370  0.00  0.00     0.065 A 
HETATM   34  C   UNK N   1      20.692  20.201   1.625  0.00  0.00     0.102 A 
HETATM   35  N   UNK N   1      20.331  20.971   0.672  0.00  0.00    -0.385 N 
HETATM   36  N   UNK N   1      19.969  19.094   1.914  0.00  0.00    -0.308 N 
HETATM   37  H   UNK N   1      19.383  21.107   0.443  0.00  0.00     0.157 HD
ATOM     38  HN  UNK N   1      21.045  21.461   0.133  1.00  0.00     0.157 HD
HETATM   39  C   UNK N   1      20.322  18.256   2.924  0.00  0.00     0.227 A 
ATOM     40  HN  UNK N   1      19.138  18.884   1.360  1.00  0.00     0.171 HD
BRANCH  39  41
HETATM   41  O   UNK N   1      19.542  17.188   3.157  0.00  0.00    -0.332 OA
HETATM   42  H   UNK N   1      19.781  16.286   3.073  0.00  0.00     0.221 HD
ENDBRANCH  39  41
ENDBRANCH   4  31
TORSDOF 22
ENDMDL
MODEL 3
REMARK VINA RESULT:      -5.9     11.879     14.360
REMARK  22 active torsions:
REMARK  status: ('A' for Active; 'I' for Inactive)
REMARK    1  A    between atoms: C_3  and  C_2 
REMARK    2  A    between atoms: C_4  and  C_3 
REMARK    3  A    between atoms: C_5  and  C_4 
REMARK    4  A    between atoms: C_6  and  C_5 
REMARK    5  A    between atoms: C_7  and  C_6 
REMARK    6  A    between atoms: C_8  and  C_7 
REMARK    7  A    between atoms: C_9  and  C_8 
REMARK    8  A    between atoms: C_11  and  C_10 
REMARK    9  A    between atoms: C_12  and  C_11 
REMARK   10  A    between atoms: C_13  and  C_12 
REMARK   11  A    between atoms: C_14  and  C_13 
REMARK   12  A    between atoms: C_15  and  C_14 
REMARK   13  A    between atoms: C_16  and  C_15 
REMARK   14  A    between atoms: C_17  and  C_16 
REMARK   15  A    between atoms: C_23  and  C_17 
REMARK   16  A    between atoms: C_21  and  C_20 
REMARK   17  A    between atoms: O_37  and  C_20 
REMARK   18  A    between atoms: O_37  and  C_23 
REMARK   19  A    between atoms: C_24  and  O_34 
REMARK   20  A    between atoms: C_25  and  O_35 
REMARK   21  A    between atoms: C_26  and  N_32 
REMARK   22  A    between atoms: O_36  and  C_27 
ROOT
HETATM    1  C   UNK N   1      20.450  15.325   7.115  0.00  0.00     0.180 C 
HETATM    2  C   UNK N   1      20.698  16.500   8.044  0.00  0.00     0.182 C 
HETATM    3  C   UNK N   1      20.374  17.596   7.088  0.00  0.00     0.198 C 
HETATM    4  C   UNK N   1      21.183  17.092   5.886  0.00  0.00     0.262 C 
HETATM    5  O   UNK N   1      21.007  15.676   5.858  0.00  0.00    -0.353 OA
ENDROOT
BRANCH   1   6
HETATM    6  C   UNK N   1      21.068  14.061   7.715  0.00  0.00     0.213 C 
BRANCH   6   7
HETATM    7  O   UNK N   1      21.282  14.163   9.075  0.00  0.00    -0.319 OA
BRANCH   7   8
HETATM    8  C   UNK N   1      20.539  13.494  10.000  0.00  0.00     0.258 C 
HETATM    9  O   UNK N   1      19.354  13.758  10.116  0.00  0.00    -0.265 OA
BRANCH   8  10
HETATM   10  C   UNK N   1      21.152  12.455  10.904  0.00  0.00     0.111 C 
BRANCH  10  11
HETATM   11  C   UNK N   1      22.671  12.462  10.862  0.00  0.00     0.010 C 
BRANCH  11  12
HETATM   12  C   UNK N   1      23.187  11.295  10.041  0.00  0.00     0.000 C 
BRANCH  12  13
HETATM   13  C   UNK N   1      23.951  11.814   8.843  0.00  0.00     0.000 C 
BRANCH  13  14
HETATM   14  C   UNK N   1      24.704  13.070   9.222  0.00  0.00     0.000 C 
BRANCH  14  15
HETATM   15  C   UNK N   1      24.853  13.968   8.009  0.00  0.00     0.004 C 
BRANCH  15  16
HETATM   16  C   UNK N   1      25.183  13.138   6.771  0.00  0.00     0.027 C 
BRANCH  16  17
HETATM   17  C   UNK N   1      26.242  13.697   5.851  0.00  0.00    -0.031 C 
HETATM   18  C   UNK N   1      26.586  14.993   5.803  0.00  0.00    -0.031 C 
BRANCH  18  19
HETATM   19  C   UNK N   1      27.683  15.448   4.889  0.00  0.00     0.027 C 
BRANCH  19  20
HETATM   20  C   UNK N   1      27.118  16.068   3.615  0.00  0.00     0.004 C 
BRANCH  20  21
HETATM   21  C   UNK N   1      27.142  17.590   3.650  0.00  0.00     0.000 C 
BRANCH  21  22
HETATM   22  C   UNK N   1      25.730  18.116   3.794  0.00  0.00     0.000 C 
BRANCH  22  23
HETATM   23  C   UNK N   1      25.679  19.078   4.959  0.00  0.00     0.000 C 
BRANCH  23  24
HETATM   24  C   UNK N   1      26.180  20.436   4.525  0.00  0.00    -0.000 C 
BRANCH  24  25
HETATM   25  C   UNK N   1      27.417  20.776   5.326  0.00  0.00    -0.005 C 
HETATM   26  C   UNK N   1      27.364  20.072   6.664  0.00  0.00     0.005 C 
ENDBRANCH  24  25
ENDBRANCH  23  24
ENDBRANCH  22  23
ENDBRANCH  21  22
ENDBRANCH  20  21
ENDBRANCH  19  20
ENDBRANCH  18  19
ENDBRANCH  16  17
ENDBRANCH  15  16
ENDBRANCH  14  15
ENDBRANCH  13  14
ENDBRANCH  12  13
ENDBRANCH  11  12
ENDBRANCH  10  11
ENDBRANCH   8  10
ENDBRANCH   7   8
ENDBRANCH   6   7
ENDBRANCH   1   6
BRANCH   2  27
HETATM   27  O   UNK N   1      19.865  16.488   9.165  0.00  0.00    -0.390 OA
HETATM   28  H   UNK N   1      19.722  17.193   9.815  0.00  0.00     0.210 HD
ENDBRANCH   2  27
BRANCH   3  29
HETATM   29  O   UNK N   1      20.789  18.849   7.546  0.00  0.00    -0.388 OA
HETATM   30  H   UNK N   1      21.468  18.985   8.225  0.00  0.00     0.210 HD
ENDBRANCH   3  29
BRANCH   4  31
HETATM   31  N   UNK N   1      20.892  17.695   4.558  0.00  0.00    -0.293 N 
HETATM   32  C   UNK N   1      21.803  18.614   4.117  0.00  0.00     0.101 A 
HETATM   33  C   UNK N   1      21.642  19.267   2.900  0.00  0.00     0.065 A 
HETATM   34  C   UNK N   1      20.528  18.970   2.132  0.00  0.00     0.102 A 
HETATM   35  N   UNK N   1      20.347  19.553   1.009  0.00  0.00    -0.385 N 
HETATM   36  N   UNK N   1      19.629  18.062   2.577  0.00  0.00    -0.308 N 
HETATM   37  H   UNK N   1      19.446  19.763   0.671  0.00  0.00     0.157 HD
ATOM     38  HN  UNK N   1      21.159  19.811   0.448  1.00  0.00     0.157 HD
HETATM   39  C   UNK N   1      19.789  17.426   3.768  0.00  0.00     0.227 A 
ATOM     40  HN  UNK N   1      18.811  17.850   2.005  1.00  0.00     0.171 HD
BRANCH  39  41
HETATM   41  O   UNK N   1      18.842  16.552   4.146  0.00  0.00    -0.332 OA
HETATM   42  H   UNK N   1      18.955  15.637   4.313  0.00  0.00     0.221 HD
ENDBRANCH  39  41
ENDBRANCH   4  31
TORSDOF 22
ENDMDL
MODEL 4
REMARK VINA RESULT:      -5.9     11.049     14.432
REMARK  22 active torsions:
REMARK  status: ('A' for Active; 'I' for Inactive)
REMARK    1  A    between atoms: C_3  and  C_2 
REMARK    2  A    between atoms: C_4  and  C_3 
REMARK    3  A    between atoms: C_5  and  C_4 
REMARK    4  A    between atoms: C_6  and  C_5 
REMARK    5  A    between atoms: C_7  and  C_6 
REMARK    6  A    between atoms: C_8  and  C_7 
REMARK    7  A    between atoms: C_9  and  C_8 
REMARK    8  A    between atoms: C_11  and  C_10 
REMARK    9  A    between atoms: C_12  and  C_11 
REMARK   10  A    between atoms: C_13  and  C_12 
REMARK   11  A    between atoms: C_14  and  C_13 
REMARK   12  A    between atoms: C_15  and  C_14 
REMARK   13  A    between atoms: C_16  and  C_15 
REMARK   14  A    between atoms: C_17  and  C_16 
REMARK   15  A    between atoms: C_23  and  C_17 
REMARK   16  A    between atoms: C_21  and  C_20 
REMARK   17  A    between atoms: O_37  and  C_20 
REMARK   18  A    between atoms: O_37  and  C_23 
REMARK   19  A    between atoms: C_24  and  O_34 
REMARK   20  A    between atoms: C_25  and  O_35 
REMARK   21  A    between atoms: C_26  and  N_32 
REMARK   22  A    between atoms: O_36  and  C_27 
ROOT
HETATM    1  C   UNK N   1      20.859  15.522   5.777  0.00  0.00     0.180 C 
HETATM    2  C   UNK N   1      21.082  16.463   6.947  0.00  0.00     0.182 C 
HETATM    3  C   UNK N   1      20.684  17.733   6.275  0.00  0.00     0.198 C 
HETATM    4  C   UNK N   1      21.480  17.557   4.976  0.00  0.00     0.262 C 
HETATM    5  O   UNK N   1      21.364  16.179   4.625  0.00  0.00    -0.353 OA
ENDROOT
BRANCH   1   6
HETATM    6  C   UNK N   1      21.548  14.186   6.059  0.00  0.00     0.213 C 
BRANCH   6   7
HETATM    7  O   UNK N   1      22.091  14.120   7.327  0.00  0.00    -0.319 OA
BRANCH   7   8
HETATM    8  C   UNK N   1      21.821  13.114   8.203  0.00  0.00     0.258 C 
HETATM    9  O   UNK N   1      20.703  13.025   8.683  0.00  0.00    -0.265 OA
BRANCH   8  10
HETATM   10  C   UNK N   1      22.878  12.122   8.617  0.00  0.00     0.111 C 
BRANCH  10  11
HETATM   11  C   UNK N   1      24.290  12.643   8.401  0.00  0.00     0.010 C 
BRANCH  11  12
HETATM   12  C   UNK N   1      24.831  12.176   7.063  0.00  0.00     0.000 C 
BRANCH  12  13
HETATM   13  C   UNK N   1      25.305  13.369   6.262  0.00  0.00     0.000 C 
BRANCH  13  14
HETATM   14  C   UNK N   1      25.579  14.531   7.190  0.00  0.00     0.000 C 
BRANCH  14  15
HETATM   15  C   UNK N   1      26.111  15.710   6.398  0.00  0.00     0.004 C 
BRANCH  15  16
HETATM   16  C   UNK N   1      25.716  15.584   4.928  0.00  0.00     0.027 C 
BRANCH  16  17
HETATM   17  C   UNK N   1      25.935  16.806   4.067  0.00  0.00    -0.031 C 
HETATM   18  C   UNK N   1      25.281  17.967   4.232  0.00  0.00    -0.031 C 
BRANCH  18  19
HETATM   19  C   UNK N   1      25.600  19.140   3.357  0.00  0.00     0.027 C 
BRANCH  19  20
HETATM   20  C   UNK N   1      26.711  19.993   3.961  0.00  0.00     0.004 C 
BRANCH  20  21
HETATM   21  C   UNK N   1      26.369  20.484   5.362  0.00  0.00     0.000 C 
BRANCH  21  22
HETATM   22  C   UNK N   1      27.505  20.155   6.306  0.00  0.00     0.000 C 
BRANCH  22  23
HETATM   23  C   UNK N   1      28.341  19.048   5.704  0.00  0.00     0.000 C 
BRANCH  23  24
HETATM   24  C   UNK N   1      28.772  18.085   6.786  0.00  0.00    -0.000 C 
BRANCH  24  25
HETATM   25  C   UNK N   1      28.719  18.798   8.119  0.00  0.00    -0.005 C 
HETATM   26  C   UNK N   1      28.114  17.881   9.160  0.00  0.00     0.005 C 
ENDBRANCH  24  25
ENDBRANCH  23  24
ENDBRANCH  22  23
ENDBRANCH  21  22
ENDBRANCH  20  21
ENDBRANCH  19  20
ENDBRANCH  18  19
ENDBRANCH  16  17
ENDBRANCH  15  16
ENDBRANCH  14  15
ENDBRANCH  13  14
ENDBRANCH  12  13
ENDBRANCH  11  12
ENDBRANCH  10  11
ENDBRANCH   8  10
ENDBRANCH   7   8
ENDBRANCH   6   7
ENDBRANCH   1   6
BRANCH   2  27
HETATM   27  O   UNK N   1      20.283  16.154   8.050  0.00  0.00    -0.390 OA
HETATM   28  H   UNK N   1      19.508  16.633   8.384  0.00  0.00     0.210 HD
ENDBRANCH   2  27
BRANCH   3  29
HETATM   29  O   UNK N   1      21.058  18.866   7.002  0.00  0.00    -0.388 OA
HETATM   30  H   UNK N   1      20.433  19.519   7.354  0.00  0.00     0.210 HD
ENDBRANCH   3  29
BRANCH   4  31
HETATM   31  N   UNK N   1      21.126  18.434   3.827  0.00  0.00    -0.293 N 
HETATM   32  C   UNK N   1      21.979  19.476   3.598  0.00  0.00     0.101 A 
HETATM   33  C   UNK N   1      21.756  20.383   2.567  0.00  0.00     0.065 A 
HETATM   34  C   UNK N   1      20.638  20.213   1.768  0.00  0.00     0.102 A 
HETATM   35  N   UNK N   1      20.400  21.028   0.813  0.00  0.00    -0.385 N 
HETATM   36  N   UNK N   1      19.795  19.180   2.003  0.00  0.00    -0.308 N 
HETATM   37  H   UNK N   1      19.481  21.262   0.546  0.00  0.00     0.157 HD
ATOM     38  HN  UNK N   1      21.183  21.451   0.316  1.00  0.00     0.157 HD
HETATM   39  C   UNK N   1      20.017  18.296   3.012  0.00  0.00     0.227 A 
ATOM     40  HN  UNK N   1      18.974  19.062   1.409  1.00  0.00     0.171 HD
BRANCH  39  41
HETATM   41  O   UNK N   1      19.123  17.309   3.191  0.00  0.00    -0.332 OA
HETATM   42  H   UNK N   1      18.952  16.841   3.983  0.00  0.00     0.221 HD
ENDBRANCH  39  41
ENDBRANCH   4  31
TORSDOF 22
ENDMDL
MODEL 5
REMARK VINA RESULT:      -5.7      4.089     11.552
REMARK  22 active torsions:
REMARK  status: ('A' for Active; 'I' for Inactive)
REMARK    1  A    between atoms: C_3  and  C_2 
REMARK    2  A    between atoms: C_4  and  C_3 
REMARK    3  A    between atoms: C_5  and  C_4 
REMARK    4  A    between atoms: C_6  and  C_5 
REMARK    5  A    between atoms: C_7  and  C_6 
REMARK    6  A    between atoms: C_8  and  C_7 
REMARK    7  A    between atoms: C_9  and  C_8 
REMARK    8  A    between atoms: C_11  and  C_10 
REMARK    9  A    between atoms: C_12  and  C_11 
REMARK   10  A    between atoms: C_13  and  C_12 
REMARK   11  A    between atoms: C_14  and  C_13 
REMARK   12  A    between atoms: C_15  and  C_14 
REMARK   13  A    between atoms: C_16  and  C_15 
REMARK   14  A    between atoms: C_17  and  C_16 
REMARK   15  A    between atoms: C_23  and  C_17 
REMARK   16  A    between atoms: C_21  and  C_20 
REMARK   17  A    between atoms: O_37  and  C_20 
REMARK   18  A    between atoms: O_37  and  C_23 
REMARK   19  A    between atoms: C_24  and  O_34 
REMARK   20  A    between atoms: C_25  and  O_35 
REMARK   21  A    between atoms: C_26  and  N_32 
REMARK   22  A    between atoms: O_36  and  C_27 
ROOT
HETATM    1  C   UNK N   1      35.420  14.205  10.431  0.00  0.00     0.180 C 
HETATM    2  C   UNK N   1      35.890  15.244  11.432  0.00  0.00     0.182 C 
HETATM    3  C   UNK N   1      36.348  14.314  12.502  0.00  0.00     0.198 C 
HETATM    4  C   UNK N   1      35.127  13.386  12.532  0.00  0.00     0.262 C 
HETATM    5  O   UNK N   1      34.735  13.207  11.171  0.00  0.00    -0.353 OA
ENDROOT
BRANCH   1   6
HETATM    6  C   UNK N   1      34.544  14.876   9.372  0.00  0.00     0.213 C 
BRANCH   6   7
HETATM    7  O   UNK N   1      34.093  16.121   9.761  0.00  0.00    -0.319 OA
BRANCH   7   8
HETATM    8  C   UNK N   1      34.185  17.228   8.974  0.00  0.00     0.258 C 
HETATM    9  O   UNK N   1      35.124  17.991   9.127  0.00  0.00    -0.265 OA
BRANCH   8  10
HETATM   10  C   UNK N   1      33.140  17.550   7.937  0.00  0.00     0.111 C 
BRANCH  10  11
HETATM   11  C   UNK N   1      33.394  16.855   6.610  0.00  0.00     0.010 C 
BRANCH  11  12
HETATM   12  C   UNK N   1      32.805  17.657   5.465  0.00  0.00     0.000 C 
BRANCH  12  13
HETATM   13  C   UNK N   1      33.202  17.031   4.146  0.00  0.00     0.000 C 
BRANCH  13  14
HETATM   14  C   UNK N   1      31.962  16.618   3.383  0.00  0.00     0.000 C 
BRANCH  14  15
HETATM   15  C   UNK N   1      30.742  17.297   3.976  0.00  0.00     0.004 C 
BRANCH  15  16
HETATM   16  C   UNK N   1      29.576  16.316   4.058  0.00  0.00     0.027 C 
BRANCH  16  17
HETATM   17  C   UNK N   1      28.705  16.410   5.289  0.00  0.00    -0.031 C 
HETATM   18  C   UNK N   1      28.987  17.182   6.350  0.00  0.00    -0.031 C 
BRANCH  18  19
HETATM   19  C   UNK N   1      28.039  17.245   7.508  0.00  0.00     0.027 C 
BRANCH  19  20
HETATM   20  C   UNK N   1      28.123  18.593   8.217  0.00  0.00     0.004 C 
BRANCH  20  21
HETATM   21  C   UNK N   1      28.333  19.748   7.246  0.00  0.00     0.000 C 
BRANCH  21  22
HETATM   22  C   UNK N   1      27.012  20.441   6.990  0.00  0.00     0.000 C 
BRANCH  22  23
HETATM   23  C   UNK N   1      27.037  21.051   5.607  0.00  0.00     0.000 C 
BRANCH  23  24
HETATM   24  C   UNK N   1      27.699  20.098   4.638  0.00  0.00    -0.000 C 
BRANCH  24  25
HETATM   25  C   UNK N   1      26.627  19.414   3.820  0.00  0.00    -0.005 C 
HETATM   26  C   UNK N   1      25.939  20.429   2.934  0.00  0.00     0.005 C 
ENDBRANCH  24  25
ENDBRANCH  23  24
ENDBRANCH  22  23
ENDBRANCH  21  22
ENDBRANCH  20  21
ENDBRANCH  19  20
ENDBRANCH  18  19
ENDBRANCH  16  17
ENDBRANCH  15  16
ENDBRANCH  14  15
ENDBRANCH  13  14
ENDBRANCH  12  13
ENDBRANCH  11  12
ENDBRANCH  10  11
ENDBRANCH   8  10
ENDBRANCH   7   8
ENDBRANCH   6   7
ENDBRANCH   1   6
BRANCH   2  27
HETATM   27  O   UNK N   1      36.914  16.052  10.933  0.00  0.00    -0.390 OA
HETATM   28  H   UNK N   1      37.216  16.912  11.264  0.00  0.00     0.210 HD
ENDBRANCH   2  27
BRANCH   3  29
HETATM   29  O   UNK N   1      36.578  14.963  13.718  0.00  0.00    -0.388 OA
HETATM   30  H   UNK N   1      36.665  15.925  13.816  0.00  0.00     0.210 HD
ENDBRANCH   3  29
BRANCH   4  31
HETATM   31  N   UNK N   1      35.272  12.078  13.225  0.00  0.00    -0.293 N 
HETATM   32  C   UNK N   1      34.539  11.935  14.370  0.00  0.00     0.101 A 
HETATM   33  C   UNK N   1      34.595  10.769  15.125  0.00  0.00     0.065 A 
HETATM   34  C   UNK N   1      35.420   9.742  14.696  0.00  0.00     0.102 A 
HETATM   35  N   UNK N   1      35.498   8.657  15.367  0.00  0.00    -0.385 N 
HETATM   36  N   UNK N   1      36.145   9.893  13.563  0.00  0.00    -0.308 N 
HETATM   37  H   UNK N   1      36.332   8.136  15.417  0.00  0.00     0.157 HD
ATOM     38  HN  UNK N   1      34.674   8.323  15.867  1.00  0.00     0.157 HD
HETATM   39  C   UNK N   1      36.088  11.034  12.828  0.00  0.00     0.227 A 
ATOM     40  HN  UNK N   1      36.749   9.131  13.255  1.00  0.00     0.171 HD
BRANCH  39  41
HETATM   41  O   UNK N   1      36.852  11.111  11.726  0.00  0.00    -0.332 OA
HETATM   42  H   UNK N   1      36.561  11.088  10.836  0.00  0.00     0.221 HD
ENDBRANCH  39  41
ENDBRANCH   4  31
TORSDOF 22
ENDMDL
MODEL 6
REMARK VINA RESULT:      -5.6      3.158      5.534
REMARK  22 active torsions:
REMARK  status: ('A' for Active; 'I' for Inactive)
REMARK    1  A    between atoms: C_3  and  C_2 
REMARK    2  A    between atoms: C_4  and  C_3 
REMARK    3  A    between atoms: C_5  and  C_4 
REMARK    4  A    between atoms: C_6  and  C_5 
REMARK    5  A    between atoms: C_7  and  C_6 
REMARK    6  A    between atoms: C_8  and  C_7 
REMARK    7  A    between atoms: C_9  and  C_8 
REMARK    8  A    between atoms: C_11  and  C_10 
REMARK    9  A    between atoms: C_12  and  C_11 
REMARK   10  A    between atoms: C_13  and  C_12 
REMARK   11  A    between atoms: C_14  and  C_13 
REMARK   12  A    between atoms: C_15  and  C_14 
REMARK   13  A    between atoms: C_16  and  C_15 
REMARK   14  A    between atoms: C_17  and  C_16 
REMARK   15  A    between atoms: C_23  and  C_17 
REMARK   16  A    between atoms: C_21  and  C_20 
REMARK   17  A    between atoms: O_37  and  C_20 
REMARK   18  A    between atoms: O_37  and  C_23 
REMARK   19  A    between atoms: C_24  and  O_34 
REMARK   20  A    between atoms: C_25  and  O_35 
REMARK   21  A    between atoms: C_26  and  N_32 
REMARK   22  A    between atoms: O_36  and  C_27 
ROOT
HETATM    1  C   UNK N   1      33.482  15.668   9.465  0.00  0.00     0.180 C 
HETATM    2  C   UNK N   1      34.578  16.696   9.246  0.00  0.00     0.182 C 
HETATM    3  C   UNK N   1      33.857  17.569   8.278  0.00  0.00     0.198 C 
HETATM    4  C   UNK N   1      33.320  16.475   7.346  0.00  0.00     0.262 C 
HETATM    5  O   UNK N   1      32.916  15.399   8.192  0.00  0.00    -0.353 OA
ENDROOT
BRANCH   1   6
HETATM    6  C   UNK N   1      34.073  14.426  10.134  0.00  0.00     0.213 C 
BRANCH   6   7
HETATM    7  O   UNK N   1      34.247  14.583  11.495  0.00  0.00    -0.319 OA
BRANCH   7   8
HETATM    8  C   UNK N   1      35.461  14.505  12.106  0.00  0.00     0.258 C 
HETATM    9  O   UNK N   1      36.057  15.533  12.382  0.00  0.00    -0.265 OA
BRANCH   8  10
HETATM   10  C   UNK N   1      36.102  13.178  12.426  0.00  0.00     0.111 C 
BRANCH  10  11
HETATM   11  C   UNK N   1      36.299  12.965  13.918  0.00  0.00     0.010 C 
BRANCH  11  12
HETATM   12  C   UNK N   1      34.970  13.031  14.647  0.00  0.00     0.000 C 
BRANCH  12  13
HETATM   13  C   UNK N   1      35.024  12.163  15.885  0.00  0.00     0.000 C 
BRANCH  13  14
HETATM   14  C   UNK N   1      36.179  11.193  15.778  0.00  0.00     0.000 C 
BRANCH  14  15
HETATM   15  C   UNK N   1      36.329  10.424  17.077  0.00  0.00     0.004 C 
BRANCH  15  16
HETATM   16  C   UNK N   1      35.470  11.056  18.170  0.00  0.00     0.027 C 
BRANCH  16  17
HETATM   17  C   UNK N   1      34.835  10.105  19.157  0.00  0.00    -0.031 C 
HETATM   18  C   UNK N   1      33.935   9.168  18.824  0.00  0.00    -0.031 C 
BRANCH  18  19
HETATM   19  C   UNK N   1      33.394   8.239  19.867  0.00  0.00     0.027 C 
BRANCH  19  20
HETATM   20  C   UNK N   1      32.035   8.709  20.374  0.00  0.00     0.004 C 
BRANCH  20  21
HETATM   21  C   UNK N   1      32.042   9.004  21.868  0.00  0.00     0.000 C 
BRANCH  21  22
HETATM   22  C   UNK N   1      32.585  10.396  22.108  0.00  0.00     0.000 C 
BRANCH  22  23
HETATM   23  C   UNK N   1      32.921  10.549  23.574  0.00  0.00     0.000 C 
BRANCH  23  24
HETATM   24  C   UNK N   1      32.469   9.322  24.333  0.00  0.00    -0.000 C 
BRANCH  24  25
HETATM   25  C   UNK N   1      32.076   9.736  25.734  0.00  0.00    -0.005 C 
HETATM   26  C   UNK N   1      30.643  10.221  25.737  0.00  0.00     0.005 C 
ENDBRANCH  24  25
ENDBRANCH  23  24
ENDBRANCH  22  23
ENDBRANCH  21  22
ENDBRANCH  20  21
ENDBRANCH  19  20
ENDBRANCH  18  19
ENDBRANCH  16  17
ENDBRANCH  15  16
ENDBRANCH  14  15
ENDBRANCH  13  14
ENDBRANCH  12  13
ENDBRANCH  11  12
ENDBRANCH  10  11
ENDBRANCH   8  10
ENDBRANCH   7   8
ENDBRANCH   6   7
ENDBRANCH   1   6
BRANCH   2  27
HETATM   27  O   UNK N   1      34.938  17.361  10.420  0.00  0.00    -0.390 OA
HETATM   28  H   UNK N   1      34.903  17.032  11.332  0.00  0.00     0.210 HD
ENDBRANCH   2  27
BRANCH   3  29
HETATM   29  O   UNK N   1      34.706  18.474   7.635  0.00  0.00    -0.388 OA
HETATM   30  H   UNK N   1      35.343  19.044   8.093  0.00  0.00     0.210 HD
ENDBRANCH   3  29
BRANCH   4  31
HETATM   31  N   UNK N   1      32.236  16.849   6.399  0.00  0.00    -0.293 N 
HETATM   32  C   UNK N   1      30.975  16.475   6.771  0.00  0.00     0.101 A 
HETATM   33  C   UNK N   1      29.872  16.746   5.968  0.00  0.00     0.065 A 
HETATM   34  C   UNK N   1      30.074  17.408   4.768  0.00  0.00     0.102 A 
HETATM   35  N   UNK N   1      29.084  17.671   4.005  0.00  0.00    -0.385 N 
HETATM   36  N   UNK N   1      31.326  17.772   4.405  0.00  0.00    -0.308 N 
HETATM   37  H   UNK N   1      29.171  17.680   3.024  0.00  0.00     0.157 HD
ATOM     38  HN  UNK N   1      28.176  17.875   4.423  1.00  0.00     0.157 HD
HETATM   39  C   UNK N   1      32.402  17.504   5.192  0.00  0.00     0.227 A 
ATOM     40  HN  UNK N   1      31.465  18.259   3.520  1.00  0.00     0.171 HD
BRANCH  39  41
HETATM   41  O   UNK N   1      33.612  17.883   4.751  0.00  0.00    -0.332 OA
HETATM   42  H   UNK N   1      34.425  17.821   5.213  0.00  0.00     0.221 HD
ENDBRANCH  39  41
ENDBRANCH   4  31
TORSDOF 22
ENDMDL
MODEL 7
REMARK VINA RESULT:      -5.6      2.513      4.485
REMARK  22 active torsions:
REMARK  status: ('A' for Active; 'I' for Inactive)
REMARK    1  A    between atoms: C_3  and  C_2 
REMARK    2  A    between atoms: C_4  and  C_3 
REMARK    3  A    between atoms: C_5  and  C_4 
REMARK    4  A    between atoms: C_6  and  C_5 
REMARK    5  A    between atoms: C_7  and  C_6 
REMARK    6  A    between atoms: C_8  and  C_7 
REMARK    7  A    between atoms: C_9  and  C_8 
REMARK    8  A    between atoms: C_11  and  C_10 
REMARK    9  A    between atoms: C_12  and  C_11 
REMARK   10  A    between atoms: C_13  and  C_12 
REMARK   11  A    between atoms: C_14  and  C_13 
REMARK   12  A    between atoms: C_15  and  C_14 
REMARK   13  A    between atoms: C_16  and  C_15 
REMARK   14  A    between atoms: C_17  and  C_16 
REMARK   15  A    between atoms: C_23  and  C_17 
REMARK   16  A    between atoms: C_21  and  C_20 
REMARK   17  A    between atoms: O_37  and  C_20 
REMARK   18  A    between atoms: O_37  and  C_23 
REMARK   19  A    between atoms: C_24  and  O_34 
REMARK   20  A    between atoms: C_25  and  O_35 
REMARK   21  A    between atoms: C_26  and  N_32 
REMARK   22  A    between atoms: O_36  and  C_27 
ROOT
HETATM    1  C   UNK N   1      33.336  15.780   9.385  0.00  0.00     0.180 C 
HETATM    2  C   UNK N   1      34.478  16.738   9.102  0.00  0.00     0.182 C 
HETATM    3  C   UNK N   1      33.764  17.645   8.160  0.00  0.00     0.198 C 
HETATM    4  C   UNK N   1      33.119  16.578   7.267  0.00  0.00     0.262 C 
HETATM    5  O   UNK N   1      32.694  15.535   8.143  0.00  0.00    -0.353 OA
ENDROOT
BRANCH   1   6
HETATM    6  C   UNK N   1      33.885  14.510  10.038  0.00  0.00     0.213 C 
BRANCH   6   7
HETATM    7  O   UNK N   1      34.023  14.629  11.406  0.00  0.00    -0.319 OA
BRANCH   7   8
HETATM    8  C   UNK N   1      35.215  14.495  12.051  0.00  0.00     0.258 C 
HETATM    9  O   UNK N   1      36.211  15.016  11.577  0.00  0.00    -0.265 OA
BRANCH   8  10
HETATM   10  C   UNK N   1      35.341  13.692  13.321  0.00  0.00     0.111 C 
BRANCH  10  11
HETATM   11  C   UNK N   1      36.673  13.906  14.022  0.00  0.00     0.010 C 
BRANCH  11  12
HETATM   12  C   UNK N   1      36.568  13.537  15.490  0.00  0.00     0.000 C 
BRANCH  12  13
HETATM   13  C   UNK N   1      35.180  13.013  15.786  0.00  0.00     0.000 C 
BRANCH  13  14
HETATM   14  C   UNK N   1      35.144  12.420  17.177  0.00  0.00     0.000 C 
BRANCH  14  15
HETATM   15  C   UNK N   1      35.018  10.911  17.091  0.00  0.00     0.004 C 
BRANCH  15  16
HETATM   16  C   UNK N   1      36.364  10.249  17.377  0.00  0.00     0.027 C 
BRANCH  16  17
HETATM   17  C   UNK N   1      36.587   9.766  18.791  0.00  0.00    -0.031 C 
HETATM   18  C   UNK N   1      35.772  10.051  19.819  0.00  0.00    -0.031 C 
BRANCH  18  19
HETATM   19  C   UNK N   1      36.050   9.488  21.178  0.00  0.00     0.027 C 
BRANCH  19  20
HETATM   20  C   UNK N   1      34.820   9.581  22.076  0.00  0.00     0.004 C 
BRANCH  20  21
HETATM   21  C   UNK N   1      33.725  10.450  21.472  0.00  0.00     0.000 C 
BRANCH  21  22
HETATM   22  C   UNK N   1      32.388  10.071  22.073  0.00  0.00     0.000 C 
BRANCH  22  23
HETATM   23  C   UNK N   1      32.027   8.672  21.630  0.00  0.00     0.000 C 
BRANCH  23  24
HETATM   24  C   UNK N   1      31.866   8.636  20.127  0.00  0.00    -0.000 C 
BRANCH  24  25
HETATM   25  C   UNK N   1      32.613   7.437  19.588  0.00  0.00    -0.005 C 
HETATM   26  C   UNK N   1      31.662   6.268  19.446  0.00  0.00     0.005 C 
ENDBRANCH  24  25
ENDBRANCH  23  24
ENDBRANCH  22  23
ENDBRANCH  21  22
ENDBRANCH  20  21
ENDBRANCH  19  20
ENDBRANCH  18  19
ENDBRANCH  16  17
ENDBRANCH  15  16
ENDBRANCH  14  15
ENDBRANCH  13  14
ENDBRANCH  12  13
ENDBRANCH  11  12
ENDBRANCH  10  11
ENDBRANCH   8  10
ENDBRANCH   7   8
ENDBRANCH   6   7
ENDBRANCH   1   6
BRANCH   2  27
HETATM   27  O   UNK N   1      34.934  17.390  10.251  0.00  0.00    -0.390 OA
HETATM   28  H   UNK N   1      34.892  17.086  11.170  0.00  0.00     0.210 HD
ENDBRANCH   2  27
BRANCH   3  29
HETATM   29  O   UNK N   1      34.633  18.493   7.468  0.00  0.00    -0.388 OA
HETATM   30  H   UNK N   1      35.359  18.188   6.902  0.00  0.00     0.210 HD
ENDBRANCH   3  29
BRANCH   4  31
HETATM   31  N   UNK N   1      32.014  17.008   6.369  0.00  0.00    -0.293 N 
HETATM   32  C   UNK N   1      30.763  16.972   6.918  0.00  0.00     0.101 A 
HETATM   33  C   UNK N   1      29.638  17.332   6.182  0.00  0.00     0.065 A 
HETATM   34  C   UNK N   1      29.808  17.729   4.866  0.00  0.00     0.102 A 
HETATM   35  N   UNK N   1      28.797  18.063   4.160  0.00  0.00    -0.385 N 
HETATM   36  N   UNK N   1      31.050  17.758   4.329  0.00  0.00    -0.308 N 
HETATM   37  H   UNK N   1      28.760  17.892   3.191  0.00  0.00     0.157 HD
ATOM     38  HN  UNK N   1      28.004  18.518   4.613  1.00  0.00     0.157 HD
HETATM   39  C   UNK N   1      32.147  17.406   5.051  0.00  0.00     0.227 A 
ATOM     40  HN  UNK N   1      31.166  18.052   3.359  1.00  0.00     0.171 HD
BRANCH  39  41
HETATM   41  O   UNK N   1      33.341  17.446   4.439  0.00  0.00    -0.332 OA
HETATM   42  H   UNK N   1      34.112  16.969   4.676  0.00  0.00     0.221 HD
ENDBRANCH  39  41
ENDBRANCH   4  31
TORSDOF 22
ENDMDL
MODEL 8
REMARK VINA RESULT:      -5.6      4.263     11.884
REMARK  22 active torsions:
REMARK  status: ('A' for Active; 'I' for Inactive)
REMARK    1  A    between atoms: C_3  and  C_2 
REMARK    2  A    between atoms: C_4  and  C_3 
REMARK    3  A    between atoms: C_5  and  C_4 
REMARK    4  A    between atoms: C_6  and  C_5 
REMARK    5  A    between atoms: C_7  and  C_6 
REMARK    6  A    between atoms: C_8  and  C_7 
REMARK    7  A    between atoms: C_9  and  C_8 
REMARK    8  A    between atoms: C_11  and  C_10 
REMARK    9  A    between atoms: C_12  and  C_11 
REMARK   10  A    between atoms: C_13  and  C_12 
REMARK   11  A    between atoms: C_14  and  C_13 
REMARK   12  A    between atoms: C_15  and  C_14 
REMARK   13  A    between atoms: C_16  and  C_15 
REMARK   14  A    between atoms: C_17  and  C_16 
REMARK   15  A    between atoms: C_23  and  C_17 
REMARK   16  A    between atoms: C_21  and  C_20 
REMARK   17  A    between atoms: O_37  and  C_20 
REMARK   18  A    between atoms: O_37  and  C_23 
REMARK   19  A    between atoms: C_24  and  O_34 
REMARK   20  A    between atoms: C_25  and  O_35 
REMARK   21  A    between atoms: C_26  and  N_32 
REMARK   22  A    between atoms: O_36  and  C_27 
ROOT
HETATM    1  C   UNK N   1      35.291  13.406  11.960  0.00  0.00     0.180 C 
HETATM    2  C   UNK N   1      36.617  12.671  11.882  0.00  0.00     0.182 C 
HETATM    3  C   UNK N   1      36.787  12.390  13.336  0.00  0.00     0.198 C 
HETATM    4  C   UNK N   1      36.455  13.786  13.875  0.00  0.00     0.262 C 
HETATM    5  O   UNK N   1      35.368  14.267  13.086  0.00  0.00    -0.353 OA
ENDROOT
BRANCH   1   6
HETATM    6  C   UNK N   1      35.043  14.153  10.649  0.00  0.00     0.213 C 
BRANCH   6   7
HETATM    7  O   UNK N   1      34.571  15.435  10.843  0.00  0.00    -0.319 OA
BRANCH   7   8
HETATM    8  C   UNK N   1      35.033  16.514  10.154  0.00  0.00     0.258 C 
HETATM    9  O   UNK N   1      35.907  17.207  10.647  0.00  0.00    -0.265 OA
BRANCH   8  10
HETATM   10  C   UNK N   1      34.470  16.891   8.807  0.00  0.00     0.111 C 
BRANCH  10  11
HETATM   11  C   UNK N   1      33.018  16.475   8.638  0.00  0.00     0.010 C 
BRANCH  11  12
HETATM   12  C   UNK N   1      32.387  17.202   7.465  0.00  0.00     0.000 C 
BRANCH  12  13
HETATM   13  C   UNK N   1      33.470  17.707   6.537  0.00  0.00     0.000 C 
BRANCH  13  14
HETATM   14  C   UNK N   1      33.471  16.891   5.263  0.00  0.00     0.000 C 
BRANCH  14  15
HETATM   15  C   UNK N   1      32.752  17.650   4.164  0.00  0.00     0.004 C 
BRANCH  15  16
HETATM   16  C   UNK N   1      32.173  16.679   3.139  0.00  0.00     0.027 C 
BRANCH  16  17
HETATM   17  C   UNK N   1      30.783  16.158   3.418  0.00  0.00    -0.031 C 
HETATM   18  C   UNK N   1      29.686  16.554   2.754  0.00  0.00    -0.031 C 
BRANCH  18  19
HETATM   19  C   UNK N   1      28.354  15.946   3.071  0.00  0.00     0.027 C 
BRANCH  19  20
HETATM   20  C   UNK N   1      27.478  16.915   3.859  0.00  0.00     0.004 C 
BRANCH  20  21
HETATM   21  C   UNK N   1      27.825  16.936   5.342  0.00  0.00     0.000 C 
BRANCH  21  22
HETATM   22  C   UNK N   1      27.803  18.363   5.848  0.00  0.00     0.000 C 
BRANCH  22  23
HETATM   23  C   UNK N   1      28.066  19.300   4.691  0.00  0.00     0.000 C 
BRANCH  23  24
HETATM   24  C   UNK N   1      27.010  20.381   4.658  0.00  0.00    -0.000 C 
BRANCH  24  25
HETATM   25  C   UNK N   1      26.457  20.477   3.253  0.00  0.00    -0.005 C 
HETATM   26  C   UNK N   1      24.964  20.234   3.279  0.00  0.00     0.005 C 
ENDBRANCH  24  25
ENDBRANCH  23  24
ENDBRANCH  22  23
ENDBRANCH  21  22
ENDBRANCH  20  21
ENDBRANCH  19  20
ENDBRANCH  18  19
ENDBRANCH  16  17
ENDBRANCH  15  16
ENDBRANCH  14  15
ENDBRANCH  13  14
ENDBRANCH  12  13
ENDBRANCH  11  12
ENDBRANCH  10  11
ENDBRANCH   8  10
ENDBRANCH   7   8
ENDBRANCH   6   7
ENDBRANCH   1   6
BRANCH   2  27
HETATM   27  O   UNK N   1      36.549  11.514  11.105  0.00  0.00    -0.390 OA
HETATM   28  H   UNK N   1      35.768  11.109  10.696  0.00  0.00     0.210 HD
ENDBRANCH   2  27
BRANCH   3  29
HETATM   29  O   UNK N   1      38.081  11.968  13.653  0.00  0.00    -0.388 OA
HETATM   30  H   UNK N   1      38.842  12.563  13.747  0.00  0.00     0.210 HD
ENDBRANCH   3  29
BRANCH   4  31
HETATM   31  N   UNK N   1      36.160  13.911  15.328  0.00  0.00    -0.293 N 
HETATM   32  C   UNK N   1      35.196  13.068  15.806  0.00  0.00     0.101 A 
HETATM   33  C   UNK N   1      34.810  13.092  17.142  0.00  0.00     0.065 A 
HETATM   34  C   UNK N   1      35.424  13.999  17.992  0.00  0.00     0.102 A 
HETATM   35  N   UNK N   1      35.092  14.050  19.224  0.00  0.00    -0.385 N 
HETATM   36  N   UNK N   1      36.375  14.833  17.509  0.00  0.00    -0.308 N 
HETATM   37  H   UNK N   1      35.101  14.895  19.730  0.00  0.00     0.157 HD
ATOM     38  HN  UNK N   1      34.807  13.193  19.698  1.00  0.00     0.157 HD
HETATM   39  C   UNK N   1      36.748  14.806  16.202  0.00  0.00     0.227 A 
ATOM     40  HN  UNK N   1      36.821  15.497  18.142  1.00  0.00     0.171 HD
BRANCH  39  41
HETATM   41  O   UNK N   1      37.687  15.679  15.800  0.00  0.00    -0.332 OA
HETATM   42  H   UNK N   1      38.188  16.256  16.341  0.00  0.00     0.221 HD
ENDBRANCH  39  41
ENDBRANCH   4  31
TORSDOF 22
ENDMDL
MODEL 9
REMARK VINA RESULT:      -5.6     11.834     14.756
REMARK  22 active torsions:
REMARK  status: ('A' for Active; 'I' for Inactive)
REMARK    1  A    between atoms: C_3  and  C_2 
REMARK    2  A    between atoms: C_4  and  C_3 
REMARK    3  A    between atoms: C_5  and  C_4 
REMARK    4  A    between atoms: C_6  and  C_5 
REMARK    5  A    between atoms: C_7  and  C_6 
REMARK    6  A    between atoms: C_8  and  C_7 
REMARK    7  A    between atoms: C_9  and  C_8 
REMARK    8  A    between atoms: C_11  and  C_10 
REMARK    9  A    between atoms: C_12  and  C_11 
REMARK   10  A    between atoms: C_13  and  C_12 
REMARK   11  A    between atoms: C_14  and  C_13 
REMARK   12  A    between atoms: C_15  and  C_14 
REMARK   13  A    between atoms: C_16  and  C_15 
REMARK   14  A    between atoms: C_17  and  C_16 
REMARK   15  A    between atoms: C_23  and  C_17 
REMARK   16  A    between atoms: C_21  and  C_20 
REMARK   17  A    between atoms: O_37  and  C_20 
REMARK   18  A    between atoms: O_37  and  C_23 
REMARK   19  A    between atoms: C_24  and  O_34 
REMARK   20  A    between atoms: C_25  and  O_35 
REMARK   21  A    between atoms: C_26  and  N_32 
REMARK   22  A    between atoms: O_36  and  C_27 
ROOT
HETATM    1  C   UNK N   1      20.769  16.975   2.547  0.00  0.00     0.180 C 
HETATM    2  C   UNK N   1      19.874  18.065   3.108  0.00  0.00     0.182 C 
HETATM    3  C   UNK N   1      20.914  19.116   3.296  0.00  0.00     0.198 C 
HETATM    4  C   UNK N   1      21.982  18.255   3.983  0.00  0.00     0.262 C 
HETATM    5  O   UNK N   1      21.964  16.995   3.313  0.00  0.00    -0.353 OA
ENDROOT
BRANCH   1   6
HETATM    6  C   UNK N   1      20.039  15.633   2.608  0.00  0.00     0.213 C 
BRANCH   6   7
HETATM    7  O   UNK N   1      19.264  15.496   3.742  0.00  0.00    -0.319 OA
BRANCH   7   8
HETATM    8  C   UNK N   1      19.187  14.341   4.459  0.00  0.00     0.258 C 
HETATM    9  O   UNK N   1      18.109  13.992   4.912  0.00  0.00    -0.265 OA
BRANCH   8  10
HETATM   10  C   UNK N   1      20.405  13.496   4.731  0.00  0.00     0.111 C 
BRANCH  10  11
HETATM   11  C   UNK N   1      20.766  13.443   6.206  0.00  0.00     0.010 C 
BRANCH  11  12
HETATM   12  C   UNK N   1      21.591  14.655   6.598  0.00  0.00     0.000 C 
BRANCH  12  13
HETATM   13  C   UNK N   1      20.753  15.590   7.443  0.00  0.00     0.000 C 
BRANCH  13  14
HETATM   14  C   UNK N   1      21.068  15.375   8.907  0.00  0.00     0.000 C 
BRANCH  14  15
HETATM   15  C   UNK N   1      20.006  14.497   9.540  0.00  0.00     0.004 C 
BRANCH  15  16
HETATM   16  C   UNK N   1      20.655  13.377  10.348  0.00  0.00     0.027 C 
BRANCH  16  17
HETATM   17  C   UNK N   1      21.613  12.479   9.600  0.00  0.00    -0.031 C 
HETATM   18  C   UNK N   1      22.937  12.450   9.817  0.00  0.00    -0.031 C 
BRANCH  18  19
HETATM   19  C   UNK N   1      23.803  11.491   9.058  0.00  0.00     0.027 C 
BRANCH  19  20
HETATM   20  C   UNK N   1      24.276  12.099   7.741  0.00  0.00     0.004 C 
BRANCH  20  21
HETATM   21  C   UNK N   1      24.840  13.502   7.919  0.00  0.00     0.000 C 
BRANCH  21  22
HETATM   22  C   UNK N   1      25.333  14.023   6.586  0.00  0.00     0.000 C 
BRANCH  22  23
HETATM   23  C   UNK N   1      25.815  12.860   5.750  0.00  0.00     0.000 C 
BRANCH  23  24
HETATM   24  C   UNK N   1      25.512  13.117   4.291  0.00  0.00    -0.000 C 
BRANCH  24  25
HETATM   25  C   UNK N   1      24.350  14.080   4.199  0.00  0.00    -0.005 C 
HETATM   26  C   UNK N   1      23.594  13.841   2.911  0.00  0.00     0.005 C 
ENDBRANCH  24  25
ENDBRANCH  23  24
ENDBRANCH  22  23
ENDBRANCH  21  22
ENDBRANCH  20  21
ENDBRANCH  19  20
ENDBRANCH  18  19
ENDBRANCH  16  17
ENDBRANCH  15  16
ENDBRANCH  14  15
ENDBRANCH  13  14
ENDBRANCH  12  13
ENDBRANCH  11  12
ENDBRANCH  10  11
ENDBRANCH   8  10
ENDBRANCH   7   8
ENDBRANCH   6   7
ENDBRANCH   1   6
BRANCH   2  27
HETATM   27  O   UNK N   1      18.865  18.446   2.221  0.00  0.00    -0.390 OA
HETATM   28  H   UNK N   1      18.050  17.970   1.998  0.00  0.00     0.210 HD
ENDBRANCH   2  27
BRANCH   3  29
HETATM   29  O   UNK N   1      20.469  20.178   4.086  0.00  0.00    -0.388 OA
HETATM   30  H   UNK N   1      20.946  21.016   4.195  0.00  0.00     0.210 HD
ENDBRANCH   3  29
BRANCH   4  31
HETATM   31  N   UNK N   1      23.363  18.802   4.060  0.00  0.00    -0.293 N 
HETATM   32  C   UNK N   1      23.619  19.869   3.244  0.00  0.00     0.101 A 
HETATM   33  C   UNK N   1      24.875  20.465   3.205  0.00  0.00     0.065 A 
HETATM   34  C   UNK N   1      25.876  19.953   4.013  0.00  0.00     0.102 A 
HETATM   35  N   UNK N   1      27.043  20.475   4.000  0.00  0.00    -0.385 N 
HETATM   36  N   UNK N   1      25.615  18.895   4.816  0.00  0.00    -0.308 N 
HETATM   37  H   UNK N   1      27.855  19.935   4.138  0.00  0.00     0.157 HD
ATOM     38  HN  UNK N   1      27.136  21.478   3.840  1.00  0.00     0.157 HD
HETATM   39  C   UNK N   1      24.387  18.314   4.851  0.00  0.00     0.227 A 
ATOM     40  HN  UNK N   1      26.359  18.524   5.408  1.00  0.00     0.171 HD
BRANCH  39  41
HETATM   41  O   UNK N   1      24.215  17.257   5.661  0.00  0.00    -0.332 OA
HETATM   42  H   UNK N   1      23.825  16.435   5.439  0.00  0.00     0.221 HD
ENDBRANCH  39  41
ENDBRANCH   4  31
TORSDOF 22
ENDMDL
