MODEL 1
REMARK VINA RESULT:      -8.0      0.000      0.000
REMARK  4 active torsions:
REMARK  status: ('A' for Active; 'I' for Inactive)
REMARK    1  A    between atoms: C_5  and  C_8 
REMARK    2  A    between atoms: C_11  and  C_9 
REMARK    3  A    between atoms: C_19  and  O_33 
REMARK    4  A    between atoms: C_24  and  O_29 
ROOT
HETATM    1  C   UNK N   1      33.226  15.171   6.803  0.00  0.00     0.164 C 
HETATM    2  C   UNK N   1      32.638  14.112   5.887  0.00  0.00     0.064 C 
HETATM    3  C   UNK N   1      33.418  14.030   4.605  0.00  0.00    -0.021 C 
HETATM    4  C   UNK N   1      33.483  15.037   3.714  0.00  0.00    -0.084 C 
HETATM    5  C   UNK N   1      32.804  16.367   3.936  0.00  0.00     0.060 C 
HETATM    6  C   UNK N   1      31.349  16.171   4.203  0.00  0.00    -0.026 C 
HETATM    7  C   UNK N   1      30.402  16.810   3.536  0.00  0.00    -0.024 C 
HETATM    8  C   UNK N   1      28.985  16.453   3.838  0.00  0.00     0.033 C 
HETATM    9  C   UNK N   1      28.122  17.625   4.313  0.00  0.00     0.136 C 
HETATM   10  C   UNK N   1      28.395  18.232   5.712  0.00  0.00     0.081 C 
HETATM   11  C   UNK N   1      28.563  17.224   6.853  0.00  0.00     0.143 C 
HETATM   12  O   UNK N   1      28.603  16.030   6.591  0.00  0.00    -0.297 OA
HETATM   13  C   UNK N   1      28.677  17.641   8.328  0.00  0.00     0.040 C 
HETATM   14  C   UNK N   1      30.019  17.169   8.926  0.00  0.00     0.142 C 
HETATM   15  C   UNK N   1      31.198  17.921   8.320  0.00  0.00     0.144 C 
HETATM   16  C   UNK N   1      32.361  17.017   8.118  0.00  0.00     0.262 C 
HETATM   17  O   UNK N   1      33.444  17.294   8.607  0.00  0.00    -0.265 OA
HETATM   18  O   UNK N   1      32.199  15.925   7.331  0.00  0.00    -0.311 OA
HETATM   19  C   UNK N   1      27.535  16.963   9.073  0.00  0.00     0.026 C 
HETATM   20  C   UNK N   1      28.533  19.144   8.560  0.00  0.00     0.026 C 
HETATM   21  C   UNK N   1      27.208  19.141   5.993  0.00  0.00     0.020 C 
HETATM   22  C   UNK N   1      28.362  15.816   2.608  0.00  0.00     0.017 C 
HETATM   23  C   UNK N   1      34.272  14.833   2.467  0.00  0.00     0.043 C 
ENDROOT
BRANCH   1  24
HETATM   24  C   UNK N   1      34.078  14.512   7.837  0.00  0.00    -0.052 C 
HETATM   25  C   UNK N   1      33.447  13.892   8.844  0.00  0.00     0.035 C 
HETATM   26  C   UNK N   1      35.549  14.803   7.882  0.00  0.00     0.046 C 
BRANCH  25  27
HETATM   27  C   UNK N   1      34.106  13.292  10.010  0.00  0.00     0.039 A 
HETATM   28  N   UNK N   1      34.401  14.066  11.111  0.00  0.00    -0.354 N 
HETATM   29  C   UNK N   1      35.071  13.371  12.055  0.00  0.00     0.047 A 
ATOM     30  HN  UNK N   1      34.143  15.049  11.201  1.00  0.00     0.166 HD
HETATM   31  C   UNK N   1      35.584  13.959  13.318  0.00  0.00     0.076 C 
HETATM   32  S   UNK N   1      35.283  11.820  11.546  0.00  0.00    -0.087 SA
HETATM   33  C   UNK N   1      34.538  11.951  10.072  0.00  0.00     0.081 A 
ENDBRANCH  25  27
ENDBRANCH   1  24
BRANCH  14  34
HETATM   34  O   UNK N   1      30.046  17.332  10.315  0.00  0.00    -0.394 OA
HETATM   35  H   UNK N   1      29.530  16.740  10.886  0.00  0.00     0.210 HD
ENDBRANCH  14  34
BRANCH   9  36
HETATM   36  O   UNK N   1      28.093  18.633   3.343  0.00  0.00    -0.394 OA
HETATM   37  H   UNK N   1      28.717  19.123   2.785  0.00  0.00     0.210 HD
ENDBRANCH   9  36
TORSDOF 4
ENDMDL
MODEL 2
REMARK VINA RESULT:      -7.6      5.796      8.531
REMARK  4 active torsions:
REMARK  status: ('A' for Active; 'I' for Inactive)
REMARK    1  A    between atoms: C_5  and  C_8 
REMARK    2  A    between atoms: C_11  and  C_9 
REMARK    3  A    between atoms: C_19  and  O_33 
REMARK    4  A    between atoms: C_24  and  O_29 
ROOT
HETATM    1  C   UNK N   1      25.943  16.580   4.865  0.00  0.00     0.164 C 
HETATM    2  C   UNK N   1      25.738  16.931   3.402  0.00  0.00     0.064 C 
HETATM    3  C   UNK N   1      25.698  18.422   3.216  0.00  0.00    -0.021 C 
HETATM    4  C   UNK N   1      24.734  19.205   3.736  0.00  0.00    -0.084 C 
HETATM    5  C   UNK N   1      23.615  18.662   4.591  0.00  0.00     0.060 C 
HETATM    6  C   UNK N   1      22.891  17.573   3.871  0.00  0.00    -0.026 C 
HETATM    7  C   UNK N   1      21.577  17.561   3.717  0.00  0.00    -0.024 C 
HETATM    8  C   UNK N   1      20.989  16.462   2.896  0.00  0.00     0.033 C 
HETATM    9  C   UNK N   1      19.960  15.601   3.632  0.00  0.00     0.136 C 
HETATM   10  C   UNK N   1      20.447  14.662   4.763  0.00  0.00     0.081 C 
HETATM   11  C   UNK N   1      21.683  13.817   4.441  0.00  0.00     0.143 C 
HETATM   12  O   UNK N   1      22.281  14.015   3.392  0.00  0.00    -0.297 OA
HETATM   13  C   UNK N   1      22.211  12.715   5.373  0.00  0.00     0.040 C 
HETATM   14  C   UNK N   1      23.657  13.023   5.817  0.00  0.00     0.142 C 
HETATM   15  C   UNK N   1      23.713  14.236   6.738  0.00  0.00     0.144 C 
HETATM   16  C   UNK N   1      24.915  15.065   6.456  0.00  0.00     0.262 C 
HETATM   17  O   UNK N   1      25.702  15.328   7.351  0.00  0.00    -0.265 OA
HETATM   18  O   UNK N   1      25.073  15.566   5.206  0.00  0.00    -0.311 OA
HETATM   19  C   UNK N   1      22.202  11.415   4.579  0.00  0.00     0.026 C 
HETATM   20  C   UNK N   1      21.350  12.489   6.615  0.00  0.00     0.026 C 
HETATM   21  C   UNK N   1      19.264  13.755   5.068  0.00  0.00     0.020 C 
HETATM   22  C   UNK N   1      20.368  17.057   1.645  0.00  0.00     0.017 C 
HETATM   23  C   UNK N   1      24.787  20.669   3.469  0.00  0.00     0.043 C 
ENDROOT
BRANCH   1  24
HETATM   24  C   UNK N   1      27.378  16.240   5.095  0.00  0.00    -0.052 C 
HETATM   25  C   UNK N   1      28.152  17.191   5.637  0.00  0.00     0.035 C 
HETATM   26  C   UNK N   1      27.958  15.006   4.468  0.00  0.00     0.046 C 
BRANCH  25  27
HETATM   27  C   UNK N   1      29.603  17.087   5.830  0.00  0.00     0.039 A 
HETATM   28  N   UNK N   1      30.463  17.493   4.834  0.00  0.00    -0.354 N 
HETATM   29  C   UNK N   1      31.754  17.258   5.150  0.00  0.00     0.047 A 
ATOM     30  HN  UNK N   1      30.159  17.920   3.958  1.00  0.00     0.166 HD
HETATM   31  C   UNK N   1      32.899  17.524   4.242  0.00  0.00     0.076 C 
HETATM   32  S   UNK N   1      31.836  16.574   6.646  0.00  0.00    -0.087 SA
HETATM   33  C   UNK N   1      30.212  16.525   6.972  0.00  0.00     0.081 A 
ENDBRANCH  25  27
ENDBRANCH   1  24
BRANCH  14  34
HETATM   34  O   UNK N   1      24.235  11.930   6.472  0.00  0.00    -0.394 OA
HETATM   35  H   UNK N   1      25.183  11.750   6.375  0.00  0.00     0.210 HD
ENDBRANCH  14  34
BRANCH   9  36
HETATM   36  O   UNK N   1      18.896  16.392   4.082  0.00  0.00    -0.394 OA
HETATM   37  H   UNK N   1      18.120  16.307   4.658  0.00  0.00     0.210 HD
ENDBRANCH   9  36
TORSDOF 4
ENDMDL
MODEL 3
REMARK VINA RESULT:      -7.6     13.252     17.078
REMARK  4 active torsions:
REMARK  status: ('A' for Active; 'I' for Inactive)
REMARK    1  A    between atoms: C_5  and  C_8 
REMARK    2  A    between atoms: C_11  and  C_9 
REMARK    3  A    between atoms: C_19  and  O_33 
REMARK    4  A    between atoms: C_24  and  O_29 
ROOT
HETATM    1  C   UNK N   1      27.087  25.871  -5.776  0.00  0.00     0.164 C 
HETATM    2  C   UNK N   1      27.632  26.279  -7.133  0.00  0.00     0.064 C 
HETATM    3  C   UNK N   1      26.546  26.249  -8.170  0.00  0.00    -0.021 C 
HETATM    4  C   UNK N   1      25.918  25.120  -8.550  0.00  0.00    -0.084 C 
HETATM    5  C   UNK N   1      26.223  23.773  -7.939  0.00  0.00     0.060 C 
HETATM    6  C   UNK N   1      27.680  23.469  -8.049  0.00  0.00    -0.026 C 
HETATM    7  C   UNK N   1      28.144  22.341  -8.563  0.00  0.00    -0.024 C 
HETATM    8  C   UNK N   1      29.623  22.203  -8.699  0.00  0.00     0.033 C 
HETATM    9  C   UNK N   1      30.219  21.003  -7.959  0.00  0.00     0.136 C 
HETATM   10  C   UNK N   1      30.240  21.018  -6.411  0.00  0.00     0.081 C 
HETATM   11  C   UNK N   1      30.736  22.314  -5.764  0.00  0.00     0.143 C 
HETATM   12  O   UNK N   1      30.959  23.285  -6.474  0.00  0.00    -0.297 OA
HETATM   13  C   UNK N   1      30.979  22.457  -4.253  0.00  0.00     0.040 C 
HETATM   14  C   UNK N   1      30.088  23.569  -3.660  0.00  0.00     0.142 C 
HETATM   15  C   UNK N   1      28.615  23.178  -3.682  0.00  0.00     0.144 C 
HETATM   16  C   UNK N   1      27.757  24.346  -4.013  0.00  0.00     0.262 C 
HETATM   17  O   UNK N   1      26.852  24.674  -3.262  0.00  0.00    -0.265 OA
HETATM   18  O   UNK N   1      27.968  24.987  -5.188  0.00  0.00    -0.311 OA
HETATM   19  C   UNK N   1      32.441  22.842  -4.070  0.00  0.00     0.026 C 
HETATM   20  C   UNK N   1      30.753  21.168  -3.464  0.00  0.00     0.026 C 
HETATM   21  C   UNK N   1      31.143  19.860  -6.011  0.00  0.00     0.020 C 
HETATM   22  C   UNK N   1      29.980  22.134 -10.173  0.00  0.00     0.017 C 
HETATM   23  C   UNK N   1      24.870  25.210  -9.604  0.00  0.00     0.043 C 
ENDROOT
BRANCH   1  24
HETATM   24  C   UNK N   1      26.831  27.093  -4.958  0.00  0.00    -0.052 C 
HETATM   25  C   UNK N   1      27.901  27.767  -4.515  0.00  0.00     0.035 C 
HETATM   26  C   UNK N   1      25.452  27.355  -4.427  0.00  0.00     0.046 C 
BRANCH  25  27
HETATM   27  C   UNK N   1      27.855  28.917  -3.605  0.00  0.00     0.039 A 
HETATM   28  N   UNK N   1      28.331  28.800  -2.318  0.00  0.00    -0.354 N 
HETATM   29  C   UNK N   1      28.142  29.928  -1.601  0.00  0.00     0.047 A 
ATOM     30  HN  UNK N   1      28.773  27.957  -1.949  1.00  0.00     0.166 HD
HETATM   31  C   UNK N   1      28.487  30.074  -0.164  0.00  0.00     0.076 C 
HETATM   32  S   UNK N   1      27.414  31.062  -2.547  0.00  0.00    -0.087 SA
HETATM   33  C   UNK N   1      27.283  30.165  -3.934  0.00  0.00     0.081 A 
ENDBRANCH  25  27
ENDBRANCH   1  24
BRANCH  14  34
HETATM   34  O   UNK N   1      30.456  23.872  -2.344  0.00  0.00    -0.394 OA
HETATM   35  H   UNK N   1      30.173  23.299  -1.614  0.00  0.00     0.210 HD
ENDBRANCH  14  34
BRANCH   9  36
HETATM   36  O   UNK N   1      29.651  19.812  -8.426  0.00  0.00    -0.394 OA
HETATM   37  H   UNK N   1      29.718  19.228  -9.198  0.00  0.00     0.210 HD
ENDBRANCH   9  36
TORSDOF 4
ENDMDL
MODEL 4
REMARK VINA RESULT:      -7.5      2.960      4.835
REMARK  4 active torsions:
REMARK  status: ('A' for Active; 'I' for Inactive)
REMARK    1  A    between atoms: C_5  and  C_8 
REMARK    2  A    between atoms: C_11  and  C_9 
REMARK    3  A    between atoms: C_19  and  O_33 
REMARK    4  A    between atoms: C_24  and  O_29 
ROOT
HETATM    1  C   UNK N   1      35.226  12.265   9.556  0.00  0.00     0.164 C 
HETATM    2  C   UNK N   1      34.049  11.325   9.358  0.00  0.00     0.064 C 
HETATM    3  C   UNK N   1      34.498  10.043   8.716  0.00  0.00    -0.021 C 
HETATM    4  C   UNK N   1      35.005   9.978   7.471  0.00  0.00    -0.084 C 
HETATM    5  C   UNK N   1      35.206  11.200   6.608  0.00  0.00     0.060 C 
HETATM    6  C   UNK N   1      33.927  11.958   6.473  0.00  0.00    -0.026 C 
HETATM    7  C   UNK N   1      33.421  12.315   5.304  0.00  0.00    -0.024 C 
HETATM    8  C   UNK N   1      32.089  12.988   5.305  0.00  0.00     0.033 C 
HETATM    9  C   UNK N   1      32.079  14.379   4.667  0.00  0.00     0.136 C 
HETATM   10  C   UNK N   1      32.802  15.539   5.396  0.00  0.00     0.081 C 
HETATM   11  C   UNK N   1      32.517  15.663   6.896  0.00  0.00     0.143 C 
HETATM   12  O   UNK N   1      31.859  14.792   7.449  0.00  0.00    -0.297 OA
HETATM   13  C   UNK N   1      33.012  16.842   7.748  0.00  0.00     0.040 C 
HETATM   14  C   UNK N   1      33.928  16.345   8.886  0.00  0.00     0.142 C 
HETATM   15  C   UNK N   1      35.246  15.802   8.348  0.00  0.00     0.144 C 
HETATM   16  C   UNK N   1      35.683  14.605   9.114  0.00  0.00     0.262 C 
HETATM   17  O   UNK N   1      36.787  14.580   9.634  0.00  0.00    -0.265 OA
HETATM   18  O   UNK N   1      34.855  13.533   9.162  0.00  0.00    -0.311 OA
HETATM   19  C   UNK N   1      31.781  17.503   8.354  0.00  0.00     0.026 C 
HETATM   20  C   UNK N   1      33.751  17.916   6.951  0.00  0.00     0.026 C 
HETATM   21  C   UNK N   1      32.358  16.804   4.677  0.00  0.00     0.020 C 
HETATM   22  C   UNK N   1      31.081  12.091   4.610  0.00  0.00     0.017 C 
HETATM   23  C   UNK N   1      35.399   8.646   6.933  0.00  0.00     0.043 C 
ENDROOT
BRANCH   1  24
HETATM   24  C   UNK N   1      35.684  12.189  10.975  0.00  0.00    -0.052 C 
HETATM   25  C   UNK N   1      34.966  12.861  11.886  0.00  0.00     0.035 C 
HETATM   26  C   UNK N   1      37.044  11.636  11.287  0.00  0.00     0.046 C 
BRANCH  25  27
HETATM   27  C   UNK N   1      35.323  13.003  13.302  0.00  0.00     0.039 A 
HETATM   28  N   UNK N   1      36.093  14.067  13.717  0.00  0.00    -0.354 N 
HETATM   29  C   UNK N   1      36.386  13.999  15.033  0.00  0.00     0.047 A 
ATOM     30  HN  UNK N   1      36.407  14.818  13.101  1.00  0.00     0.166 HD
HETATM   31  C   UNK N   1      37.259  14.967  15.745  0.00  0.00     0.076 C 
HETATM   32  S   UNK N   1      35.690  12.655  15.680  0.00  0.00    -0.087 SA
HETATM   33  C   UNK N   1      34.981  12.069  14.302  0.00  0.00     0.081 A 
ENDBRANCH  25  27
ENDBRANCH   1  24
BRANCH  14  34
HETATM   34  O   UNK N   1      34.201  17.364   9.805  0.00  0.00    -0.394 OA
HETATM   35  H   UNK N   1      33.484  17.751  10.332  0.00  0.00     0.210 HD
ENDBRANCH  14  34
BRANCH   9  36
HETATM   36  O   UNK N   1      32.501  14.306   3.334  0.00  0.00    -0.394 OA
HETATM   37  H   UNK N   1      32.853  14.896   2.650  0.00  0.00     0.210 HD
ENDBRANCH   9  36
TORSDOF 4
ENDMDL
MODEL 5
REMARK VINA RESULT:      -7.3      5.026      7.536
REMARK  4 active torsions:
REMARK  status: ('A' for Active; 'I' for Inactive)
REMARK    1  A    between atoms: C_5  and  C_8 
REMARK    2  A    between atoms: C_11  and  C_9 
REMARK    3  A    between atoms: C_19  and  O_33 
REMARK    4  A    between atoms: C_24  and  O_29 
ROOT
HETATM    1  C   UNK N   1      26.589  16.159   5.042  0.00  0.00     0.164 C 
HETATM    2  C   UNK N   1      26.630  14.642   4.990  0.00  0.00     0.064 C 
HETATM    3  C   UNK N   1      27.684  14.174   4.026  0.00  0.00    -0.021 C 
HETATM    4  C   UNK N   1      27.630  14.409   2.702  0.00  0.00    -0.084 C 
HETATM    5  C   UNK N   1      26.518  15.201   2.059  0.00  0.00     0.060 C 
HETATM    6  C   UNK N   1      25.191  14.613   2.408  0.00  0.00    -0.026 C 
HETATM    7  C   UNK N   1      24.282  14.296   1.500  0.00  0.00    -0.024 C 
HETATM    8  C   UNK N   1      23.035  13.630   1.977  0.00  0.00     0.033 C 
HETATM    9  C   UNK N   1      21.744  14.378   1.633  0.00  0.00     0.136 C 
HETATM   10  C   UNK N   1      21.447  15.719   2.348  0.00  0.00     0.081 C 
HETATM   11  C   UNK N   1      21.651  15.723   3.866  0.00  0.00     0.143 C 
HETATM   12  O   UNK N   1      22.146  14.741   4.402  0.00  0.00    -0.297 OA
HETATM   13  C   UNK N   1      21.252  16.907   4.762  0.00  0.00     0.040 C 
HETATM   14  C   UNK N   1      22.483  17.466   5.506  0.00  0.00     0.142 C 
HETATM   15  C   UNK N   1      23.458  18.141   4.549  0.00  0.00     0.144 C 
HETATM   16  C   UNK N   1      24.866  17.862   4.938  0.00  0.00     0.262 C 
HETATM   17  O   UNK N   1      25.641  18.785   5.135  0.00  0.00    -0.265 OA
HETATM   18  O   UNK N   1      25.274  16.572   5.002  0.00  0.00    -0.311 OA
HETATM   19  C   UNK N   1      20.252  16.379   5.782  0.00  0.00     0.026 C 
HETATM   20  C   UNK N   1      20.567  18.048   4.012  0.00  0.00     0.026 C 
HETATM   21  C   UNK N   1      19.996  16.036   2.019  0.00  0.00     0.020 C 
HETATM   22  C   UNK N   1      22.982  12.220   1.417  0.00  0.00     0.017 C 
HETATM   23  C   UNK N   1      28.724  13.878   1.841  0.00  0.00     0.043 C 
ENDROOT
BRANCH   1  24
HETATM   24  C   UNK N   1      27.327  16.631   6.251  0.00  0.00    -0.052 C 
HETATM   25  C   UNK N   1      28.478  17.287   6.047  0.00  0.00     0.035 C 
HETATM   26  C   UNK N   1      26.933  16.123   7.607  0.00  0.00     0.046 C 
BRANCH  25  27
HETATM   27  C   UNK N   1      29.399  17.723   7.103  0.00  0.00     0.039 A 
HETATM   28  N   UNK N   1      30.688  17.240   7.139  0.00  0.00    -0.354 N 
HETATM   29  C   UNK N   1      31.368  17.687   8.216  0.00  0.00     0.047 A 
ATOM     30  HN  UNK N   1      31.083  16.617   6.434  1.00  0.00     0.166 HD
HETATM   31  C   UNK N   1      32.755  17.278   8.558  0.00  0.00     0.076 C 
HETATM   32  S   UNK N   1      30.398  18.677   9.104  0.00  0.00    -0.087 SA
HETATM   33  C   UNK N   1      29.037  18.580   8.164  0.00  0.00     0.081 A 
ENDBRANCH  25  27
ENDBRANCH   1  24
BRANCH  14  34
HETATM   34  O   UNK N   1      22.110  18.384   6.494  0.00  0.00    -0.394 OA
HETATM   35  H   UNK N   1      21.212  18.368   6.861  0.00  0.00     0.210 HD
ENDBRANCH  14  34
BRANCH   9  36
HETATM   36  O   UNK N   1      21.624  14.530   0.247  0.00  0.00    -0.394 OA
HETATM   37  H   UNK N   1      20.973  14.852  -0.396  0.00  0.00     0.210 HD
ENDBRANCH   9  36
TORSDOF 4
ENDMDL
MODEL 6
REMARK VINA RESULT:      -7.3      4.012      6.568
REMARK  4 active torsions:
REMARK  status: ('A' for Active; 'I' for Inactive)
REMARK    1  A    between atoms: C_5  and  C_8 
REMARK    2  A    between atoms: C_11  and  C_9 
REMARK    3  A    between atoms: C_19  and  O_33 
REMARK    4  A    between atoms: C_24  and  O_29 
ROOT
HETATM    1  C   UNK N   1      33.048  15.198   4.695  0.00  0.00     0.164 C 
HETATM    2  C   UNK N   1      32.896  16.695   4.490  0.00  0.00     0.064 C 
HETATM    3  C   UNK N   1      33.574  17.451   5.597  0.00  0.00    -0.021 C 
HETATM    4  C   UNK N   1      33.176  17.394   6.882  0.00  0.00    -0.084 C 
HETATM    5  C   UNK N   1      32.027  16.530   7.342  0.00  0.00     0.060 C 
HETATM    6  C   UNK N   1      30.794  16.846   6.562  0.00  0.00    -0.026 C 
HETATM    7  C   UNK N   1      29.635  17.135   7.133  0.00  0.00    -0.024 C 
HETATM    8  C   UNK N   1      28.505  17.522   6.239  0.00  0.00     0.033 C 
HETATM    9  C   UNK N   1      27.265  16.633   6.360  0.00  0.00     0.136 C 
HETATM   10  C   UNK N   1      27.339  15.177   5.838  0.00  0.00     0.081 C 
HETATM   11  C   UNK N   1      27.962  14.998   4.451  0.00  0.00     0.143 C 
HETATM   12  O   UNK N   1      28.472  15.964   3.899  0.00  0.00    -0.297 OA
HETATM   13  C   UNK N   1      27.972  13.655   3.703  0.00  0.00     0.040 C 
HETATM   14  C   UNK N   1      29.419  13.203   3.414  0.00  0.00     0.142 C 
HETATM   15  C   UNK N   1      30.156  12.829   4.695  0.00  0.00     0.144 C 
HETATM   16  C   UNK N   1      31.575  13.272   4.644  0.00  0.00     0.262 C 
HETATM   17  O   UNK N   1      32.475  12.466   4.819  0.00  0.00    -0.265 OA
HETATM   18  O   UNK N   1      31.832  14.590   4.463  0.00  0.00    -0.311 OA
HETATM   19  C   UNK N   1      27.247  13.873   2.382  0.00  0.00     0.026 C 
HETATM   20  C   UNK N   1      27.241  12.532   4.437  0.00  0.00     0.026 C 
HETATM   21  C   UNK N   1      25.901  14.681   5.829  0.00  0.00     0.020 C 
HETATM   22  C   UNK N   1      28.134  18.969   6.510  0.00  0.00     0.017 C 
HETATM   23  C   UNK N   1      33.914  18.204   7.891  0.00  0.00     0.043 C 
ENDROOT
BRANCH   1  24
HETATM   24  C   UNK N   1      34.146  14.688   3.822  0.00  0.00    -0.052 C 
HETATM   25  C   UNK N   1      33.866  14.520   2.522  0.00  0.00     0.035 C 
HETATM   26  C   UNK N   1      35.388  14.121   4.446  0.00  0.00     0.046 C 
BRANCH  25  27
HETATM   27  C   UNK N   1      34.773  13.923   1.535  0.00  0.00     0.039 A 
HETATM   28  N   UNK N   1      35.382  14.715   0.588  0.00  0.00    -0.354 N 
HETATM   29  C   UNK N   1      36.120  13.992  -0.282  0.00  0.00     0.047 A 
ATOM     30  HN  UNK N   1      35.287  15.730   0.547  1.00  0.00     0.166 HD
HETATM   31  C   UNK N   1      36.833  14.565  -1.451  0.00  0.00     0.076 C 
HETATM   32  S   UNK N   1      36.035  12.398   0.122  0.00  0.00    -0.087 SA
HETATM   33  C   UNK N   1      35.031  12.539   1.433  0.00  0.00     0.081 A 
ENDBRANCH  25  27
ENDBRANCH   1  24
BRANCH  14  34
HETATM   34  O   UNK N   1      29.450  12.111   2.540  0.00  0.00    -0.394 OA
HETATM   35  H   UNK N   1      28.802  12.044   1.821  0.00  0.00     0.210 HD
ENDBRANCH  14  34
BRANCH   9  36
HETATM   36  O   UNK N   1      26.777  16.654   7.672  0.00  0.00    -0.394 OA
HETATM   37  H   UNK N   1      26.469  17.304   8.322  0.00  0.00     0.210 HD
ENDBRANCH   9  36
TORSDOF 4
ENDMDL
MODEL 7
REMARK VINA RESULT:      -7.2      2.611      4.543
REMARK  4 active torsions:
REMARK  status: ('A' for Active; 'I' for Inactive)
REMARK    1  A    between atoms: C_5  and  C_8 
REMARK    2  A    between atoms: C_11  and  C_9 
REMARK    3  A    between atoms: C_19  and  O_33 
REMARK    4  A    between atoms: C_24  and  O_29 
ROOT
HETATM    1  C   UNK N   1      35.426  14.398   8.961  0.00  0.00     0.164 C 
HETATM    2  C   UNK N   1      35.406  12.958   8.480  0.00  0.00     0.064 C 
HETATM    3  C   UNK N   1      36.798  12.482   8.176  0.00  0.00    -0.021 C 
HETATM    4  C   UNK N   1      37.558  13.000   7.193  0.00  0.00    -0.084 C 
HETATM    5  C   UNK N   1      37.094  14.140   6.319  0.00  0.00     0.060 C 
HETATM    6  C   UNK N   1      35.790  13.805   5.674  0.00  0.00    -0.026 C 
HETATM    7  C   UNK N   1      35.586  13.902   4.370  0.00  0.00    -0.024 C 
HETATM    8  C   UNK N   1      34.266  13.447   3.844  0.00  0.00     0.033 C 
HETATM    9  C   UNK N   1      33.478  14.521   3.090  0.00  0.00     0.136 C 
HETATM   10  C   UNK N   1      32.888  15.710   3.888  0.00  0.00     0.081 C 
HETATM   11  C   UNK N   1      32.147  15.344   5.177  0.00  0.00     0.143 C 
HETATM   12  O   UNK N   1      32.170  14.185   5.567  0.00  0.00    -0.297 OA
HETATM   13  C   UNK N   1      31.360  16.368   6.010  0.00  0.00     0.040 C 
HETATM   14  C   UNK N   1      31.933  16.464   7.440  0.00  0.00     0.142 C 
HETATM   15  C   UNK N   1      33.322  17.091   7.446  0.00  0.00     0.144 C 
HETATM   16  C   UNK N   1      34.203  16.427   8.443  0.00  0.00     0.262 C 
HETATM   17  O   UNK N   1      34.757  17.088   9.307  0.00  0.00    -0.265 OA
HETATM   18  O   UNK N   1      34.420  15.094   8.325  0.00  0.00    -0.311 OA
HETATM   19  C   UNK N   1      29.922  15.873   6.084  0.00  0.00     0.026 C 
HETATM   20  C   UNK N   1      31.322  17.768   5.398  0.00  0.00     0.026 C 
HETATM   21  C   UNK N   1      31.940  16.408   2.924  0.00  0.00     0.020 C 
HETATM   22  C   UNK N   1      34.479  12.238   2.952  0.00  0.00     0.017 C 
HETATM   23  C   UNK N   1      38.918  12.433   6.972  0.00  0.00     0.043 C 
ENDROOT
BRANCH   1  24
HETATM   24  C   UNK N   1      35.323  14.423  10.449  0.00  0.00    -0.052 C 
HETATM   25  C   UNK N   1      36.410  14.058  11.144  0.00  0.00     0.035 C 
HETATM   26  C   UNK N   1      33.977  14.561  11.098  0.00  0.00     0.046 C 
BRANCH  25  27
HETATM   27  C   UNK N   1      36.467  13.907  12.602  0.00  0.00     0.039 A 
HETATM   28  N   UNK N   1      36.773  14.989  13.398  0.00  0.00    -0.354 N 
HETATM   29  C   UNK N   1      36.854  14.653  14.703  0.00  0.00     0.047 A 
ATOM     30  HN  UNK N   1      36.922  15.934  13.042  1.00  0.00     0.166 HD
HETATM   31  C   UNK N   1      37.238  15.594  15.786  0.00  0.00     0.076 C 
HETATM   32  S   UNK N   1      36.537  13.047  14.876  0.00  0.00    -0.087 SA
HETATM   33  C   UNK N   1      36.290  12.681  13.278  0.00  0.00     0.081 A 
ENDBRANCH  25  27
ENDBRANCH   1  24
BRANCH  14  34
HETATM   34  O   UNK N   1      31.097  17.210   8.278  0.00  0.00    -0.394 OA
HETATM   35  H   UNK N   1      31.280  18.149   8.439  0.00  0.00     0.210 HD
ENDBRANCH  14  34
BRANCH   9  36
HETATM   36  O   UNK N   1      34.217  14.989   1.997  0.00  0.00    -0.394 OA
HETATM   37  H   UNK N   1      34.719  14.627   1.250  0.00  0.00     0.210 HD
ENDBRANCH   9  36
TORSDOF 4
ENDMDL
MODEL 8
REMARK VINA RESULT:      -7.1      4.115      8.475
REMARK  4 active torsions:
REMARK  status: ('A' for Active; 'I' for Inactive)
REMARK    1  A    between atoms: C_5  and  C_8 
REMARK    2  A    between atoms: C_11  and  C_9 
REMARK    3  A    between atoms: C_19  and  O_33 
REMARK    4  A    between atoms: C_24  and  O_29 
ROOT
HETATM    1  C   UNK N   1      30.865  16.392   5.659  0.00  0.00     0.164 C 
HETATM    2  C   UNK N   1      31.104  16.132   7.135  0.00  0.00     0.064 C 
HETATM    3  C   UNK N   1      31.957  17.215   7.732  0.00  0.00    -0.021 C 
HETATM    4  C   UNK N   1      33.234  17.434   7.369  0.00  0.00    -0.084 C 
HETATM    5  C   UNK N   1      33.925  16.630   6.294  0.00  0.00     0.060 C 
HETATM    6  C   UNK N   1      33.848  15.172   6.604  0.00  0.00    -0.026 C 
HETATM    7  C   UNK N   1      34.911  14.383   6.626  0.00  0.00    -0.024 C 
HETATM    8  C   UNK N   1      34.708  12.965   7.042  0.00  0.00     0.033 C 
HETATM    9  C   UNK N   1      35.136  11.930   5.999  0.00  0.00     0.136 C 
HETATM   10  C   UNK N   1      34.306  11.795   4.698  0.00  0.00     0.081 C 
HETATM   11  C   UNK N   1      32.787  11.738   4.881  0.00  0.00     0.143 C 
HETATM   12  O   UNK N   1      32.315  11.926   5.994  0.00  0.00    -0.297 OA
HETATM   13  C   UNK N   1      31.815  11.443   3.728  0.00  0.00     0.040 C 
HETATM   14  C   UNK N   1      30.835  12.619   3.527  0.00  0.00     0.142 C 
HETATM   15  C   UNK N   1      31.548  13.858   2.997  0.00  0.00     0.144 C 
HETATM   16  C   UNK N   1      30.999  15.094   3.614  0.00  0.00     0.262 C 
HETATM   17  O   UNK N   1      30.576  15.995   2.908  0.00  0.00    -0.265 OA
HETATM   18  O   UNK N   1      31.042  15.214   4.964  0.00  0.00    -0.311 OA
HETATM   19  C   UNK N   1      31.025  10.200   4.115  0.00  0.00     0.026 C 
HETATM   20  C   UNK N   1      32.504  11.141   2.398  0.00  0.00     0.026 C 
HETATM   21  C   UNK N   1      34.798  10.515   4.039  0.00  0.00     0.020 C 
HETATM   22  C   UNK N   1      35.444  12.722   8.347  0.00  0.00     0.017 C 
HETATM   23  C   UNK N   1      33.988  18.526   8.045  0.00  0.00     0.043 C 
ENDROOT
BRANCH   1  24
HETATM   24  C   UNK N   1      29.512  16.997   5.476  0.00  0.00    -0.052 C 
HETATM   25  C   UNK N   1      29.462  18.300   5.167  0.00  0.00     0.035 C 
HETATM   26  C   UNK N   1      28.295  16.238   5.915  0.00  0.00     0.046 C 
BRANCH  25  27
HETATM   27  C   UNK N   1      28.233  19.095   5.065  0.00  0.00     0.039 A 
HETATM   28  N   UNK N   1      27.626  19.275   3.841  0.00  0.00    -0.354 N 
HETATM   29  C   UNK N   1      26.554  20.091   3.920  0.00  0.00     0.047 A 
ATOM     30  HN  UNK N   1      27.951  18.843   2.975  1.00  0.00     0.166 HD
HETATM   31  C   UNK N   1      25.746  20.524   2.752  0.00  0.00     0.076 C 
HETATM   32  S   UNK N   1      26.345  20.570   5.481  0.00  0.00    -0.087 SA
HETATM   33  C   UNK N   1      27.632  19.769   6.149  0.00  0.00     0.081 A 
ENDBRANCH  25  27
ENDBRANCH   1  24
BRANCH  14  34
HETATM   34  O   UNK N   1      29.803  12.280   2.645  0.00  0.00    -0.394 OA
HETATM   35  H   UNK N   1      29.069  11.721   2.945  0.00  0.00     0.210 HD
ENDBRANCH  14  34
BRANCH   9  36
HETATM   36  O   UNK N   1      36.495  12.078   5.695  0.00  0.00    -0.394 OA
HETATM   37  H   UNK N   1      37.054  12.221   4.916  0.00  0.00     0.210 HD
ENDBRANCH   9  36
TORSDOF 4
ENDMDL
MODEL 9
REMARK VINA RESULT:      -6.9      4.995      8.476
REMARK  4 active torsions:
REMARK  status: ('A' for Active; 'I' for Inactive)
REMARK    1  A    between atoms: C_5  and  C_8 
REMARK    2  A    between atoms: C_11  and  C_9 
REMARK    3  A    between atoms: C_19  and  O_33 
REMARK    4  A    between atoms: C_24  and  O_29 
ROOT
HETATM    1  C   UNK N   1      35.924  10.921  12.822  0.00  0.00     0.164 C 
HETATM    2  C   UNK N   1      35.620   9.604  12.129  0.00  0.00     0.064 C 
HETATM    3  C   UNK N   1      36.788   8.665  12.242  0.00  0.00    -0.021 C 
HETATM    4  C   UNK N   1      37.986   8.905  11.676  0.00  0.00    -0.084 C 
HETATM    5  C   UNK N   1      38.283  10.165  10.900  0.00  0.00     0.060 C 
HETATM    6  C   UNK N   1      37.286  10.350   9.804  0.00  0.00    -0.026 C 
HETATM    7  C   UNK N   1      37.632  10.559   8.544  0.00  0.00    -0.024 C 
HETATM    8  C   UNK N   1      36.538  10.634   7.533  0.00  0.00     0.033 C 
HETATM    9  C   UNK N   1      36.488  11.947   6.747  0.00  0.00     0.136 C 
HETATM   10  C   UNK N   1      36.062  13.241   7.483  0.00  0.00     0.081 C 
HETATM   11  C   UNK N   1      34.814  13.125   8.364  0.00  0.00     0.143 C 
HETATM   12  O   UNK N   1      34.310  12.024   8.539  0.00  0.00    -0.297 OA
HETATM   13  C   UNK N   1      34.150  14.336   9.038  0.00  0.00     0.040 C 
HETATM   14  C   UNK N   1      34.139  14.167  10.572  0.00  0.00     0.142 C 
HETATM   15  C   UNK N   1      35.545  14.245  11.154  0.00  0.00     0.144 C 
HETATM   16  C   UNK N   1      35.718  13.273  12.266  0.00  0.00     0.262 C 
HETATM   17  O   UNK N   1      36.087  13.657  13.364  0.00  0.00    -0.265 OA
HETATM   18  O   UNK N   1      35.517  11.957  12.008  0.00  0.00    -0.311 OA
HETATM   19  C   UNK N   1      32.714  14.395   8.535  0.00  0.00     0.026 C 
HETATM   20  C   UNK N   1      34.802  15.673   8.692  0.00  0.00     0.026 C 
HETATM   21  C   UNK N   1      35.829  14.269   6.386  0.00  0.00     0.020 C 
HETATM   22  C   UNK N   1      36.666   9.462   6.577  0.00  0.00     0.017 C 
HETATM   23  C   UNK N   1      39.064   7.891  11.839  0.00  0.00     0.043 C 
ENDROOT
BRANCH   1  24
HETATM   24  C   UNK N   1      35.282  10.931  14.169  0.00  0.00    -0.052 C 
HETATM   25  C   UNK N   1      36.087  10.791  15.231  0.00  0.00     0.035 C 
HETATM   26  C   UNK N   1      33.791  10.802  14.281  0.00  0.00     0.046 C 
BRANCH  25  27
HETATM   27  C   UNK N   1      35.634  10.659  16.621  0.00  0.00     0.039 A 
HETATM   28  N   UNK N   1      35.619  11.759  17.450  0.00  0.00    -0.354 N 
HETATM   29  C   UNK N   1      35.246  11.441  18.708  0.00  0.00     0.047 A 
ATOM     30  HN  UNK N   1      35.862  12.703  17.148  1.00  0.00     0.166 HD
HETATM   31  C   UNK N   1      35.207  12.406  19.836  0.00  0.00     0.076 C 
HETATM   32  S   UNK N   1      34.924   9.829  18.793  0.00  0.00    -0.087 SA
HETATM   33  C   UNK N   1      35.258   9.437  17.218  0.00  0.00     0.081 A 
ENDBRANCH  25  27
ENDBRANCH   1  24
BRANCH  14  34
HETATM   34  O   UNK N   1      33.340  15.137  11.188  0.00  0.00    -0.394 OA
HETATM   35  H   UNK N   1      32.382  15.004  11.263  0.00  0.00     0.210 HD
ENDBRANCH  14  34
BRANCH   9  36
HETATM   36  O   UNK N   1      37.693  12.151   6.064  0.00  0.00    -0.394 OA
HETATM   37  H   UNK N   1      38.637  12.241   6.266  0.00  0.00     0.210 HD
ENDBRANCH   9  36
TORSDOF 4
ENDMDL
