REMARK  4 active torsions:
REMARK  status: ('A' for Active; 'I' for Inactive)
REMARK    1  A    between atoms: S_2  and  C_13 
REMARK    2  A    between atoms: S_3  and  C_19 
REMARK    3  A    between atoms: N_4  and  C_8 
REMARK       I    between atoms: N_4  and  C_10 
REMARK    4  A    between atoms: N_5  and  C_14 
REMARK       I    between atoms: N_7  and  C_10 
ROOT
HETATM    1  N   UNK N   1       3.427   2.180   0.018  0.00  0.00    -0.188 N 
HETATM    2  N   UNK N   1       2.363   0.057   0.173  0.00  0.00    -0.190 N 
ATOM      3  HN  UNK N   1       1.544   0.545   0.535  1.00  0.00     0.184 HD
HETATM    4  N   UNK N   1       4.451   0.133  -0.910  0.00  0.00    -0.234 N 
HETATM    5  C   UNK N   1       3.382   0.762  -0.216  0.00  0.00     0.678 C 
HETATM    6  C   UNK N   1       2.225   2.861   0.449  0.00  0.00     0.175 C 
HETATM    7  H   UNK N   1       4.444  -0.726  -1.391  0.00  0.00     0.174 HD
HETATM    8  H   UNK N   1       5.307   0.619  -0.910  0.00  0.00     0.174 HD
ENDROOT
BRANCH   1   9
HETATM    9  C   UNK N   1       4.659   2.918  -0.095  0.00  0.00     0.052 A 
HETATM   10  C   UNK N   1       5.889   2.250  -0.243  0.00  0.00     0.048 A 
HETATM   11  C   UNK N   1       7.091   2.941  -0.341  0.00  0.00     0.002 A 
HETATM   12  C   UNK N   1       7.086   4.336  -0.299  0.00  0.00     0.018 A 
HETATM   13  C   UNK N   1       5.880   5.025  -0.131  0.00  0.00     0.004 A 
HETATM   14  C   UNK N   1       4.672   4.321  -0.023  0.00  0.00     0.030 A 
BRANCH  11  15
HETATM   15  S   UNK N   1       8.612   2.018  -0.587  0.00  0.00    -0.134 SA
HETATM   16  C   UNK N   1       9.484   2.779   0.812  0.00  0.00     0.095 C 
ENDBRANCH  11  15
ENDBRANCH   1   9
BRANCH   2  17
HETATM   17  C   UNK N   1       2.336  -1.373   0.118  0.00  0.00     0.072 A 
HETATM   18  C   UNK N   1       3.533  -2.104   0.216  0.00  0.00     0.050 A 
HETATM   19  C   UNK N   1       3.551  -3.490   0.186  0.00  0.00     0.002 A 
HETATM   20  C   UNK N   1       2.341  -4.183   0.065  0.00  0.00     0.020 A 
HETATM   21  C   UNK N   1       1.133  -3.477  -0.018  0.00  0.00     0.027 A 
HETATM   22  C   UNK N   1       1.124  -2.075   0.016  0.00  0.00     0.061 A 
HETATM   23 Cl   UNK N   1      -0.409  -1.227  -0.087  0.00  0.00    -0.082 Cl
BRANCH  19  24
HETATM   24  S   UNK N   1       5.153  -4.308   0.327  0.00  0.00    -0.134 SA
HETATM   25  C   UNK N   1       4.595  -6.012   0.042  0.00  0.00     0.095 C 
ENDBRANCH  19  24
ENDBRANCH   2  17
TORSDOF 4
