MODEL 1
REMARK VINA RESULT:      -7.9      0.000      0.000
REMARK  6 active torsions:
REMARK  status: ('A' for Active; 'I' for Inactive)
REMARK    1  A    between atoms: C_4  and  C_7 
REMARK    2  A    between atoms: C_10  and  C_13 
REMARK    3  A    between atoms: C_13  and  C_14 
REMARK    4  A    between atoms: C_14  and  N_15 
REMARK    5  A    between atoms: C_18  and  C_21 
REMARK    6  A    between atoms: C_25  and  C_27 
ROOT
HETATM    1  N   UNK N   1      26.217  29.180  -4.300  0.00  0.00     0.092 N 
HETATM    2  C   UNK N   1      27.074  29.480  -3.146  0.00  0.00     0.277 C 
HETATM    3  C   UNK N   1      28.199  28.441  -2.950  0.00  0.00     0.069 C 
HETATM    4  C   UNK N   1      28.637  27.756  -4.232  0.00  0.00    -0.048 C 
HETATM    5  C   UNK N   1      28.102  28.110  -5.415  0.00  0.00     0.011 C 
HETATM    6  C   UNK N   1      27.063  29.187  -5.499  0.00  0.00     0.300 C 
ENDROOT
BRANCH   1   7
HETATM    7  C   UNK N   1      25.564  27.876  -4.103  0.00  0.00     0.277 C 
BRANCH   7   8
HETATM    8  C   UNK N   1      24.913  27.340  -5.377  0.00  0.00     0.068 C 
BRANCH   8   9
HETATM    9  C   UNK N   1      25.555  26.065  -5.795  0.00  0.00    -0.057 A 
HETATM   10  C   UNK N   1      25.959  25.891  -7.121  0.00  0.00     0.008 A 
HETATM   11  C   UNK N   1      26.609  24.723  -7.506  0.00  0.00     0.013 A 
HETATM   12  C   UNK N   1      26.848  23.702  -6.569  0.00  0.00    -0.026 A 
HETATM   13  C   UNK N   1      26.416  23.873  -5.246  0.00  0.00     0.013 A 
HETATM   14  C   UNK N   1      25.779  25.055  -4.856  0.00  0.00     0.008 A 
BRANCH  12  15
HETATM   15  C   UNK N   1      27.566  22.479  -6.988  0.00  0.00    -0.026 A 
HETATM   16  C   UNK N   1      26.986  21.592  -7.905  0.00  0.00     0.012 A 
HETATM   17  C   UNK N   1      27.670  20.447  -8.318  0.00  0.00     0.001 A 
HETATM   18  C   UNK N   1      28.944  20.176  -7.812  0.00  0.00     0.000 A 
HETATM   19  C   UNK N   1      29.531  21.051  -6.895  0.00  0.00     0.001 A 
HETATM   20  C   UNK N   1      28.851  22.201  -6.486  0.00  0.00     0.012 A 
ENDBRANCH  12  15
ENDBRANCH   8   9
ENDBRANCH   7   8
ENDBRANCH   1   7
BRANCH   4  21
HETATM   21  C   UNK N   1      29.524  26.574  -4.165  0.00  0.00    -0.029 A 
HETATM   22  C   UNK N   1      30.854  26.647  -4.603  0.00  0.00     0.012 A 
HETATM   23  C   UNK N   1      31.709  25.551  -4.443  0.00  0.00     0.002 A 
HETATM   24  C   UNK N   1      31.248  24.388  -3.819  0.00  0.00     0.016 A 
HETATM   25  C   UNK N   1      29.923  24.308  -3.369  0.00  0.00     0.048 A 
HETATM   26  C   UNK N   1      29.070  25.398  -3.552  0.00  0.00     0.028 A 
BRANCH  25  27
HETATM   27  C   UNK N   1      29.435  23.079  -2.660  0.00  0.00     0.417 C 
HETATM   28  F   UNK N   1      28.069  23.178  -2.465  0.00  0.00    -0.166 F 
HETATM   29  F   UNK N   1      29.693  21.939  -3.404  0.00  0.00    -0.166 F 
HETATM   30  F   UNK N   1      30.064  22.965  -1.436  0.00  0.00    -0.166 F 
ENDBRANCH  25  27
ENDBRANCH   4  21
TORSDOF 6
ENDMDL
MODEL 2
REMARK VINA RESULT:      -7.7      2.458      6.154
REMARK  6 active torsions:
REMARK  status: ('A' for Active; 'I' for Inactive)
REMARK    1  A    between atoms: C_4  and  C_7 
REMARK    2  A    between atoms: C_10  and  C_13 
REMARK    3  A    between atoms: C_13  and  C_14 
REMARK    4  A    between atoms: C_14  and  N_15 
REMARK    5  A    between atoms: C_18  and  C_21 
REMARK    6  A    between atoms: C_25  and  C_27 
ROOT
HETATM    1  N   UNK N   1      27.796  20.981  -9.278  0.00  0.00     0.092 N 
HETATM    2  C   UNK N   1      28.621  22.196  -9.274  0.00  0.00     0.277 C 
HETATM    3  C   UNK N   1      29.357  22.414  -7.935  0.00  0.00     0.069 C 
HETATM    4  C   UNK N   1      29.652  21.133  -7.176  0.00  0.00    -0.048 C 
HETATM    5  C   UNK N   1      29.335  19.936  -7.703  0.00  0.00     0.011 C 
HETATM    6  C   UNK N   1      28.683  19.835  -9.050  0.00  0.00     0.300 C 
ENDROOT
BRANCH   1   7
HETATM    7  C   UNK N   1      26.762  21.085  -8.235  0.00  0.00     0.277 C 
BRANCH   7   8
HETATM    8  C   UNK N   1      25.630  22.036  -8.616  0.00  0.00     0.068 C 
BRANCH   8   9
HETATM    9  C   UNK N   1      25.735  23.308  -7.852  0.00  0.00    -0.057 A 
HETATM   10  C   UNK N   1      25.899  23.277  -6.465  0.00  0.00     0.008 A 
HETATM   11  C   UNK N   1      26.054  24.462  -5.753  0.00  0.00     0.013 A 
HETATM   12  C   UNK N   1      26.029  25.700  -6.420  0.00  0.00    -0.026 A 
HETATM   13  C   UNK N   1      25.838  25.725  -7.809  0.00  0.00     0.013 A 
HETATM   14  C   UNK N   1      25.700  24.532  -8.526  0.00  0.00     0.008 A 
BRANCH  12  15
HETATM   15  C   UNK N   1      26.224  26.948  -5.651  0.00  0.00    -0.026 A 
HETATM   16  C   UNK N   1      25.637  27.105  -4.389  0.00  0.00     0.012 A 
HETATM   17  C   UNK N   1      25.837  28.274  -3.652  0.00  0.00     0.001 A 
HETATM   18  C   UNK N   1      26.625  29.302  -4.176  0.00  0.00     0.000 A 
HETATM   19  C   UNK N   1      27.212  29.159  -5.435  0.00  0.00     0.001 A 
HETATM   20  C   UNK N   1      27.020  27.986  -6.171  0.00  0.00     0.012 A 
ENDBRANCH  12  15
ENDBRANCH   8   9
ENDBRANCH   7   8
ENDBRANCH   1   7
BRANCH   4  21
HETATM   21  C   UNK N   1      30.127  21.203  -5.777  0.00  0.00    -0.029 A 
HETATM   22  C   UNK N   1      31.188  20.399  -5.337  0.00  0.00     0.012 A 
HETATM   23  C   UNK N   1      31.692  20.546  -4.040  0.00  0.00     0.002 A 
HETATM   24  C   UNK N   1      31.157  21.516  -3.186  0.00  0.00     0.016 A 
HETATM   25  C   UNK N   1      30.102  22.330  -3.619  0.00  0.00     0.048 A 
HETATM   26  C   UNK N   1      29.591  22.163  -4.907  0.00  0.00     0.028 A 
BRANCH  25  27
HETATM   27  C   UNK N   1      29.552  23.402  -2.724  0.00  0.00     0.417 C 
HETATM   28  F   UNK N   1      30.317  24.546  -2.858  0.00  0.00    -0.166 F 
HETATM   29  F   UNK N   1      28.242  23.705  -3.057  0.00  0.00    -0.166 F 
HETATM   30  F   UNK N   1      29.591  22.978  -1.409  0.00  0.00    -0.166 F 
ENDBRANCH  25  27
ENDBRANCH   4  21
TORSDOF 6
ENDMDL
MODEL 3
REMARK VINA RESULT:      -7.5      2.822      7.103
REMARK  6 active torsions:
REMARK  status: ('A' for Active; 'I' for Inactive)
REMARK    1  A    between atoms: C_4  and  C_7 
REMARK    2  A    between atoms: C_10  and  C_13 
REMARK    3  A    between atoms: C_13  and  C_14 
REMARK    4  A    between atoms: C_14  and  N_15 
REMARK    5  A    between atoms: C_18  and  C_21 
REMARK    6  A    between atoms: C_25  and  C_27 
ROOT
HETATM    1  N   UNK N   1      32.179  20.993  -4.961  0.00  0.00     0.092 N 
HETATM    2  C   UNK N   1      31.879  19.825  -5.799  0.00  0.00     0.277 C 
HETATM    3  C   UNK N   1      30.527  19.946  -6.533  0.00  0.00     0.069 C 
HETATM    4  C   UNK N   1      30.102  21.377  -6.813  0.00  0.00    -0.048 C 
HETATM    5  C   UNK N   1      30.905  22.406  -6.485  0.00  0.00     0.011 C 
HETATM    6  C   UNK N   1      32.236  22.170  -5.837  0.00  0.00     0.300 C 
ENDROOT
BRANCH   1   7
HETATM    7  C   UNK N   1      31.143  21.135  -3.926  0.00  0.00     0.277 C 
BRANCH   7   8
HETATM    8  C   UNK N   1      31.425  22.283  -2.959  0.00  0.00     0.068 C 
BRANCH   8   9
HETATM    9  C   UNK N   1      30.484  23.410  -3.196  0.00  0.00    -0.057 A 
HETATM   10  C   UNK N   1      30.979  24.695  -3.433  0.00  0.00     0.008 A 
HETATM   11  C   UNK N   1      30.105  25.742  -3.709  0.00  0.00     0.013 A 
HETATM   12  C   UNK N   1      28.717  25.519  -3.734  0.00  0.00    -0.026 A 
HETATM   13  C   UNK N   1      28.225  24.233  -3.470  0.00  0.00     0.013 A 
HETATM   14  C   UNK N   1      29.105  23.178  -3.210  0.00  0.00     0.008 A 
BRANCH  12  15
HETATM   15  C   UNK N   1      27.804  26.636  -4.059  0.00  0.00    -0.026 A 
HETATM   16  C   UNK N   1      28.233  27.692  -4.873  0.00  0.00     0.012 A 
HETATM   17  C   UNK N   1      27.367  28.738  -5.198  0.00  0.00     0.001 A 
HETATM   18  C   UNK N   1      26.059  28.737  -4.706  0.00  0.00     0.000 A 
HETATM   19  C   UNK N   1      25.620  27.692  -3.890  0.00  0.00     0.001 A 
HETATM   20  C   UNK N   1      26.484  26.641  -3.570  0.00  0.00     0.012 A 
ENDBRANCH  12  15
ENDBRANCH   8   9
ENDBRANCH   7   8
ENDBRANCH   1   7
BRANCH   4  21
HETATM   21  C   UNK N   1      28.728  21.654  -7.285  0.00  0.00    -0.029 A 
HETATM   22  C   UNK N   1      27.996  20.680  -7.979  0.00  0.00     0.012 A 
HETATM   23  C   UNK N   1      26.664  20.921  -8.333  0.00  0.00     0.002 A 
HETATM   24  C   UNK N   1      26.048  22.123  -7.970  0.00  0.00     0.016 A 
HETATM   25  C   UNK N   1      26.768  23.099  -7.268  0.00  0.00     0.048 A 
HETATM   26  C   UNK N   1      28.104  22.860  -6.938  0.00  0.00     0.028 A 
BRANCH  25  27
HETATM   27  C   UNK N   1      26.102  24.372  -6.838  0.00  0.00     0.417 C 
HETATM   28  F   UNK N   1      27.052  25.373  -6.736  0.00  0.00    -0.166 F 
HETATM   29  F   UNK N   1      25.142  24.767  -7.757  0.00  0.00    -0.166 F 
HETATM   30  F   UNK N   1      25.496  24.191  -5.610  0.00  0.00    -0.166 F 
ENDBRANCH  25  27
ENDBRANCH   4  21
TORSDOF 6
ENDMDL
MODEL 4
REMARK VINA RESULT:      -7.5      1.624      4.541
REMARK  6 active torsions:
REMARK  status: ('A' for Active; 'I' for Inactive)
REMARK    1  A    between atoms: C_4  and  C_7 
REMARK    2  A    between atoms: C_10  and  C_13 
REMARK    3  A    between atoms: C_13  and  C_14 
REMARK    4  A    between atoms: C_14  and  N_15 
REMARK    5  A    between atoms: C_18  and  C_21 
REMARK    6  A    between atoms: C_25  and  C_27 
ROOT
HETATM    1  N   UNK N   1      25.534  28.089  -4.783  0.00  0.00     0.092 N 
HETATM    2  C   UNK N   1      24.811  27.098  -5.591  0.00  0.00     0.277 C 
HETATM    3  C   UNK N   1      25.583  25.769  -5.739  0.00  0.00     0.069 C 
HETATM    4  C   UNK N   1      26.517  25.466  -4.582  0.00  0.00    -0.048 C 
HETATM    5  C   UNK N   1      26.578  26.286  -3.517  0.00  0.00     0.011 C 
HETATM    6  C   UNK N   1      25.728  27.519  -3.444  0.00  0.00     0.300 C 
ENDROOT
BRANCH   1   7
HETATM    7  C   UNK N   1      26.817  28.410  -5.429  0.00  0.00     0.277 C 
BRANCH   7   8
HETATM    8  C   UNK N   1      27.899  28.813  -4.429  0.00  0.00     0.068 C 
BRANCH   8   9
HETATM    9  C   UNK N   1      29.099  27.947  -4.579  0.00  0.00    -0.057 A 
HETATM   10  C   UNK N   1      29.377  27.348  -5.810  0.00  0.00     0.008 A 
HETATM   11  C   UNK N   1      30.527  26.583  -5.972  0.00  0.00     0.013 A 
HETATM   12  C   UNK N   1      31.409  26.391  -4.893  0.00  0.00    -0.026 A 
HETATM   13  C   UNK N   1      31.111  26.974  -3.653  0.00  0.00     0.013 A 
HETATM   14  C   UNK N   1      29.963  27.758  -3.497  0.00  0.00     0.008 A 
BRANCH  12  15
HETATM   15  C   UNK N   1      32.643  25.599  -5.089  0.00  0.00    -0.026 A 
HETATM   16  C   UNK N   1      33.898  26.221  -5.069  0.00  0.00     0.012 A 
HETATM   17  C   UNK N   1      35.065  25.473  -5.233  0.00  0.00     0.001 A 
HETATM   18  C   UNK N   1      34.986  24.091  -5.424  0.00  0.00     0.000 A 
HETATM   19  C   UNK N   1      33.740  23.460  -5.448  0.00  0.00     0.001 A 
HETATM   20  C   UNK N   1      32.571  24.206  -5.277  0.00  0.00     0.012 A 
ENDBRANCH  12  15
ENDBRANCH   8   9
ENDBRANCH   7   8
ENDBRANCH   1   7
BRANCH   4  21
HETATM   21  C   UNK N   1      27.494  24.361  -4.700  0.00  0.00    -0.029 A 
HETATM   22  C   UNK N   1      27.671  23.684  -5.915  0.00  0.00     0.012 A 
HETATM   23  C   UNK N   1      28.666  22.709  -6.039  0.00  0.00     0.002 A 
HETATM   24  C   UNK N   1      29.509  22.426  -4.959  0.00  0.00     0.016 A 
HETATM   25  C   UNK N   1      29.346  23.102  -3.743  0.00  0.00     0.048 A 
HETATM   26  C   UNK N   1      28.336  24.059  -3.620  0.00  0.00     0.028 A 
BRANCH  25  27
HETATM   27  C   UNK N   1      30.272  22.835  -2.594  0.00  0.00     0.417 C 
HETATM   28  F   UNK N   1      30.867  21.598  -2.766  0.00  0.00    -0.166 F 
HETATM   29  F   UNK N   1      31.267  23.797  -2.521  0.00  0.00    -0.166 F 
HETATM   30  F   UNK N   1      29.561  22.839  -1.409  0.00  0.00    -0.166 F 
ENDBRANCH  25  27
ENDBRANCH   4  21
TORSDOF 6
ENDMDL
MODEL 5
REMARK VINA RESULT:      -7.4      2.364      4.987
REMARK  6 active torsions:
REMARK  status: ('A' for Active; 'I' for Inactive)
REMARK    1  A    between atoms: C_4  and  C_7 
REMARK    2  A    between atoms: C_10  and  C_13 
REMARK    3  A    between atoms: C_13  and  C_14 
REMARK    4  A    between atoms: C_14  and  N_15 
REMARK    5  A    between atoms: C_18  and  C_21 
REMARK    6  A    between atoms: C_25  and  C_27 
ROOT
HETATM    1  N   UNK N   1      25.630  25.879  -5.648  0.00  0.00     0.092 N 
HETATM    2  C   UNK N   1      25.778  26.172  -7.079  0.00  0.00     0.277 C 
HETATM    3  C   UNK N   1      26.992  25.460  -7.713  0.00  0.00     0.069 C 
HETATM    4  C   UNK N   1      27.375  24.163  -7.024  0.00  0.00    -0.048 C 
HETATM    5  C   UNK N   1      26.645  23.691  -5.996  0.00  0.00     0.011 C 
HETATM    6  C   UNK N   1      25.438  24.432  -5.504  0.00  0.00     0.300 C 
ENDROOT
BRANCH   1   7
HETATM    7  C   UNK N   1      26.824  26.345  -4.924  0.00  0.00     0.277 C 
BRANCH   7   8
HETATM    8  C   UNK N   1      27.040  25.609  -3.603  0.00  0.00     0.068 C 
BRANCH   8   9
HETATM    9  C   UNK N   1      28.334  24.876  -3.617  0.00  0.00    -0.057 A 
HETATM   10  C   UNK N   1      28.441  23.636  -2.984  0.00  0.00     0.008 A 
HETATM   11  C   UNK N   1      29.633  22.921  -3.041  0.00  0.00     0.013 A 
HETATM   12  C   UNK N   1      30.744  23.449  -3.721  0.00  0.00    -0.026 A 
HETATM   13  C   UNK N   1      30.639  24.706  -4.333  0.00  0.00     0.013 A 
HETATM   14  C   UNK N   1      29.435  25.416  -4.290  0.00  0.00     0.008 A 
BRANCH  12  15
HETATM   15  C   UNK N   1      31.995  22.663  -3.797  0.00  0.00    -0.026 A 
HETATM   16  C   UNK N   1      32.243  21.631  -2.883  0.00  0.00     0.012 A 
HETATM   17  C   UNK N   1      33.413  20.874  -2.966  0.00  0.00     0.001 A 
HETATM   18  C   UNK N   1      34.351  21.147  -3.965  0.00  0.00     0.000 A 
HETATM   19  C   UNK N   1      34.117  22.176  -4.880  0.00  0.00     0.001 A 
HETATM   20  C   UNK N   1      32.943  22.930  -4.803  0.00  0.00     0.012 A 
ENDBRANCH  12  15
ENDBRANCH   8   9
ENDBRANCH   7   8
ENDBRANCH   1   7
BRANCH   4  21
HETATM   21  C   UNK N   1      28.655  23.503  -7.364  0.00  0.00    -0.029 A 
HETATM   22  C   UNK N   1      29.621  24.163  -8.137  0.00  0.00     0.012 A 
HETATM   23  C   UNK N   1      30.865  23.566  -8.368  0.00  0.00     0.002 A 
HETATM   24  C   UNK N   1      31.161  22.320  -7.805  0.00  0.00     0.016 A 
HETATM   25  C   UNK N   1      30.205  21.656  -7.024  0.00  0.00     0.048 A 
HETATM   26  C   UNK N   1      28.958  22.249  -6.816  0.00  0.00     0.028 A 
BRANCH  25  27
HETATM   27  C   UNK N   1      30.530  20.340  -6.382  0.00  0.00     0.417 C 
HETATM   28  F   UNK N   1      30.156  20.377  -5.051  0.00  0.00    -0.166 F 
HETATM   29  F   UNK N   1      29.853  19.302  -7.002  0.00  0.00    -0.166 F 
HETATM   30  F   UNK N   1      31.888  20.101  -6.469  0.00  0.00    -0.166 F 
ENDBRANCH  25  27
ENDBRANCH   4  21
TORSDOF 6
ENDMDL
MODEL 6
REMARK VINA RESULT:      -7.3      2.221      6.011
REMARK  6 active torsions:
REMARK  status: ('A' for Active; 'I' for Inactive)
REMARK    1  A    between atoms: C_4  and  C_7 
REMARK    2  A    between atoms: C_10  and  C_13 
REMARK    3  A    between atoms: C_13  and  C_14 
REMARK    4  A    between atoms: C_14  and  N_15 
REMARK    5  A    between atoms: C_18  and  C_21 
REMARK    6  A    between atoms: C_25  and  C_27 
ROOT
HETATM    1  N   UNK N   1      26.193  23.182  -9.325  0.00  0.00     0.092 N 
HETATM    2  C   UNK N   1      27.346  22.273  -9.345  0.00  0.00     0.277 C 
HETATM    3  C   UNK N   1      28.232  22.404  -8.088  0.00  0.00     0.069 C 
HETATM    4  C   UNK N   1      27.485  22.871  -6.852  0.00  0.00    -0.048 C 
HETATM    5  C   UNK N   1      26.155  23.074  -6.891  0.00  0.00     0.011 C 
HETATM    6  C   UNK N   1      25.378  22.847  -8.152  0.00  0.00     0.300 C 
ENDROOT
BRANCH   1   7
HETATM    7  C   UNK N   1      26.664  24.575  -9.280  0.00  0.00     0.277 C 
BRANCH   7   8
HETATM    8  C   UNK N   1      25.562  25.562  -8.900  0.00  0.00     0.068 C 
BRANCH   8   9
HETATM    9  C   UNK N   1      25.999  26.426  -7.771  0.00  0.00    -0.057 A 
HETATM   10  C   UNK N   1      25.187  26.562  -6.642  0.00  0.00     0.008 A 
HETATM   11  C   UNK N   1      25.615  27.325  -5.560  0.00  0.00     0.013 A 
HETATM   12  C   UNK N   1      26.860  27.978  -5.601  0.00  0.00    -0.026 A 
HETATM   13  C   UNK N   1      27.658  27.858  -6.748  0.00  0.00     0.013 A 
HETATM   14  C   UNK N   1      27.235  27.077  -7.827  0.00  0.00     0.008 A 
BRANCH  12  15
HETATM   15  C   UNK N   1      27.313  28.761  -4.431  0.00  0.00    -0.026 A 
HETATM   16  C   UNK N   1      28.448  28.367  -3.709  0.00  0.00     0.012 A 
HETATM   17  C   UNK N   1      28.890  29.115  -2.616  0.00  0.00     0.001 A 
HETATM   18  C   UNK N   1      28.196  30.266  -2.233  0.00  0.00     0.000 A 
HETATM   19  C   UNK N   1      27.063  30.667  -2.943  0.00  0.00     0.001 A 
HETATM   20  C   UNK N   1      26.622  29.923  -4.041  0.00  0.00     0.012 A 
ENDBRANCH  12  15
ENDBRANCH   8   9
ENDBRANCH   7   8
ENDBRANCH   1   7
BRANCH   4  21
HETATM   21  C   UNK N   1      28.242  23.274  -5.646  0.00  0.00    -0.029 A 
HETATM   22  C   UNK N   1      27.834  24.371  -4.874  0.00  0.00     0.012 A 
HETATM   23  C   UNK N   1      28.501  24.681  -3.684  0.00  0.00     0.002 A 
HETATM   24  C   UNK N   1      29.560  23.881  -3.245  0.00  0.00     0.016 A 
HETATM   25  C   UNK N   1      29.970  22.777  -4.005  0.00  0.00     0.048 A 
HETATM   26  C   UNK N   1      29.314  22.487  -5.203  0.00  0.00     0.028 A 
BRANCH  25  27
HETATM   27  C   UNK N   1      31.078  21.889  -3.519  0.00  0.00     0.417 C 
HETATM   28  F   UNK N   1      31.333  22.165  -2.188  0.00  0.00    -0.166 F 
HETATM   29  F   UNK N   1      30.731  20.553  -3.634  0.00  0.00    -0.166 F 
HETATM   30  F   UNK N   1      32.220  22.119  -4.261  0.00  0.00    -0.166 F 
ENDBRANCH  25  27
ENDBRANCH   4  21
TORSDOF 6
ENDMDL
MODEL 7
REMARK VINA RESULT:      -7.3      3.398      6.481
REMARK  6 active torsions:
REMARK  status: ('A' for Active; 'I' for Inactive)
REMARK    1  A    between atoms: C_4  and  C_7 
REMARK    2  A    between atoms: C_10  and  C_13 
REMARK    3  A    between atoms: C_13  and  C_14 
REMARK    4  A    between atoms: C_14  and  N_15 
REMARK    5  A    between atoms: C_18  and  C_21 
REMARK    6  A    between atoms: C_25  and  C_27 
ROOT
HETATM    1  N   UNK N   1      26.009  22.202  -9.674  0.00  0.00     0.092 N 
HETATM    2  C   UNK N   1      25.222  21.482  -8.665  0.00  0.00     0.277 C 
HETATM    3  C   UNK N   1      25.305  22.130  -7.266  0.00  0.00     0.069 C 
HETATM    4  C   UNK N   1      25.567  23.626  -7.294  0.00  0.00    -0.048 C 
HETATM    5  C   UNK N   1      25.645  24.287  -8.464  0.00  0.00     0.011 C 
HETATM    6  C   UNK N   1      25.478  23.567  -9.768  0.00  0.00     0.300 C 
ENDROOT
BRANCH   1   7
HETATM    7  C   UNK N   1      27.429  22.198  -9.286  0.00  0.00     0.277 C 
BRANCH   7   8
HETATM    8  C   UNK N   1      27.992  20.788  -9.112  0.00  0.00     0.068 C 
BRANCH   8   9
HETATM    9  C   UNK N   1      28.947  20.743  -7.973  0.00  0.00    -0.057 A 
HETATM   10  C   UNK N   1      29.942  19.763  -7.936  0.00  0.00     0.008 A 
HETATM   11  C   UNK N   1      30.873  19.749  -6.902  0.00  0.00     0.013 A 
HETATM   12  C   UNK N   1      30.809  20.710  -5.878  0.00  0.00    -0.026 A 
HETATM   13  C   UNK N   1      29.793  21.676  -5.908  0.00  0.00     0.013 A 
HETATM   14  C   UNK N   1      28.869  21.699  -6.956  0.00  0.00     0.008 A 
BRANCH  12  15
HETATM   15  C   UNK N   1      31.824  20.700  -4.802  0.00  0.00    -0.026 A 
HETATM   16  C   UNK N   1      32.977  19.912  -4.920  0.00  0.00     0.012 A 
HETATM   17  C   UNK N   1      33.946  19.916  -3.915  0.00  0.00     0.001 A 
HETATM   18  C   UNK N   1      33.768  20.708  -2.778  0.00  0.00     0.000 A 
HETATM   19  C   UNK N   1      32.622  21.495  -2.648  0.00  0.00     0.001 A 
HETATM   20  C   UNK N   1      31.654  21.498  -3.656  0.00  0.00     0.012 A 
ENDBRANCH  12  15
ENDBRANCH   8   9
ENDBRANCH   7   8
ENDBRANCH   1   7
BRANCH   4  21
HETATM   21  C   UNK N   1      25.913  24.332  -6.040  0.00  0.00    -0.029 A 
HETATM   22  C   UNK N   1      26.752  23.736  -5.088  0.00  0.00     0.012 A 
HETATM   23  C   UNK N   1      27.150  24.453  -3.954  0.00  0.00     0.002 A 
HETATM   24  C   UNK N   1      26.736  25.778  -3.781  0.00  0.00     0.016 A 
HETATM   25  C   UNK N   1      25.904  26.385  -4.732  0.00  0.00     0.048 A 
HETATM   26  C   UNK N   1      25.494  25.655  -5.849  0.00  0.00     0.028 A 
BRANCH  25  27
HETATM   27  C   UNK N   1      25.491  27.818  -4.575  0.00  0.00     0.417 C 
HETATM   28  F   UNK N   1      24.230  27.992  -5.117  0.00  0.00    -0.166 F 
HETATM   29  F   UNK N   1      25.450  28.181  -3.238  0.00  0.00    -0.166 F 
HETATM   30  F   UNK N   1      26.388  28.638  -5.232  0.00  0.00    -0.166 F 
ENDBRANCH  25  27
ENDBRANCH   4  21
TORSDOF 6
ENDMDL
MODEL 8
REMARK VINA RESULT:      -7.3      3.134      5.952
REMARK  6 active torsions:
REMARK  status: ('A' for Active; 'I' for Inactive)
REMARK    1  A    between atoms: C_4  and  C_7 
REMARK    2  A    between atoms: C_10  and  C_13 
REMARK    3  A    between atoms: C_13  and  C_14 
REMARK    4  A    between atoms: C_14  and  N_15 
REMARK    5  A    between atoms: C_18  and  C_21 
REMARK    6  A    between atoms: C_25  and  C_27 
ROOT
HETATM    1  N   UNK N   1      26.421  23.640 -10.746  0.00  0.00     0.092 N 
HETATM    2  C   UNK N   1      25.509  24.759 -11.012  0.00  0.00     0.277 C 
HETATM    3  C   UNK N   1      25.625  25.888  -9.965  0.00  0.00     0.069 C 
HETATM    4  C   UNK N   1      26.993  25.987  -9.314  0.00  0.00    -0.048 C 
HETATM    5  C   UNK N   1      27.997  25.179  -9.702  0.00  0.00     0.011 C 
HETATM    6  C   UNK N   1      27.792  24.161 -10.783  0.00  0.00     0.300 C 
ENDROOT
BRANCH   1   7
HETATM    7  C   UNK N   1      26.101  23.044  -9.439  0.00  0.00     0.277 C 
BRANCH   7   8
HETATM    8  C   UNK N   1      26.670  21.636  -9.274  0.00  0.00     0.068 C 
BRANCH   8   9
HETATM    9  C   UNK N   1      27.630  21.588  -8.139  0.00  0.00    -0.057 A 
HETATM   10  C   UNK N   1      28.554  20.544  -8.051  0.00  0.00     0.008 A 
HETATM   11  C   UNK N   1      29.490  20.523  -7.022  0.00  0.00     0.013 A 
HETATM   12  C   UNK N   1      29.503  21.543  -6.054  0.00  0.00    -0.026 A 
HETATM   13  C   UNK N   1      28.556  22.574  -6.134  0.00  0.00     0.013 A 
HETATM   14  C   UNK N   1      27.626  22.603  -7.179  0.00  0.00     0.008 A 
BRANCH  12  15
HETATM   15  C   UNK N   1      30.523  21.522  -4.984  0.00  0.00    -0.026 A 
HETATM   16  C   UNK N   1      30.397  22.356  -3.865  0.00  0.00     0.012 A 
HETATM   17  C   UNK N   1      31.348  22.324  -2.843  0.00  0.00     0.001 A 
HETATM   18  C   UNK N   1      32.440  21.457  -2.935  0.00  0.00     0.000 A 
HETATM   19  C   UNK N   1      32.579  20.624  -4.047  0.00  0.00     0.001 A 
HETATM   20  C   UNK N   1      31.624  20.649  -5.067  0.00  0.00     0.012 A 
ENDBRANCH  12  15
ENDBRANCH   8   9
ENDBRANCH   7   8
ENDBRANCH   1   7
BRANCH   4  21
HETATM   21  C   UNK N   1      27.180  26.852  -8.129  0.00  0.00    -0.029 A 
HETATM   22  C   UNK N   1      28.165  27.850  -8.114  0.00  0.00     0.012 A 
HETATM   23  C   UNK N   1      28.265  28.724  -7.026  0.00  0.00     0.002 A 
HETATM   24  C   UNK N   1      27.364  28.624  -5.962  0.00  0.00     0.016 A 
HETATM   25  C   UNK N   1      26.370  27.636  -5.970  0.00  0.00     0.048 A 
HETATM   26  C   UNK N   1      26.291  26.753  -7.049  0.00  0.00     0.028 A 
BRANCH  25  27
HETATM   27  C   UNK N   1      25.374  27.550  -4.852  0.00  0.00     0.417 C 
HETATM   28  F   UNK N   1      24.120  27.296  -5.377  0.00  0.00    -0.166 F 
HETATM   29  F   UNK N   1      25.699  26.531  -3.972  0.00  0.00    -0.166 F 
HETATM   30  F   UNK N   1      25.346  28.745  -4.159  0.00  0.00    -0.166 F 
ENDBRANCH  25  27
ENDBRANCH   4  21
TORSDOF 6
ENDMDL
MODEL 9
REMARK VINA RESULT:      -7.2     14.884     17.542
REMARK  6 active torsions:
REMARK  status: ('A' for Active; 'I' for Inactive)
REMARK    1  A    between atoms: C_4  and  C_7 
REMARK    2  A    between atoms: C_10  and  C_13 
REMARK    3  A    between atoms: C_13  and  C_14 
REMARK    4  A    between atoms: C_14  and  N_15 
REMARK    5  A    between atoms: C_18  and  C_21 
REMARK    6  A    between atoms: C_25  and  C_27 
ROOT
HETATM    1  N   UNK N   1      20.630  16.428   6.212  0.00  0.00     0.092 N 
HETATM    2  C   UNK N   1      20.285  15.057   5.816  0.00  0.00     0.277 C 
HETATM    3  C   UNK N   1      20.624  14.016   6.904  0.00  0.00     0.069 C 
HETATM    4  C   UNK N   1      20.597  14.570   8.317  0.00  0.00    -0.048 C 
HETATM    5  C   UNK N   1      20.239  15.847   8.547  0.00  0.00     0.011 C 
HETATM    6  C   UNK N   1      19.858  16.755   7.416  0.00  0.00     0.300 C 
ENDROOT
BRANCH   1   7
HETATM    7  C   UNK N   1      22.079  16.521   6.454  0.00  0.00     0.277 C 
BRANCH   7   8
HETATM    8  C   UNK N   1      22.907  16.267   5.196  0.00  0.00     0.068 C 
BRANCH   8   9
HETATM    9  C   UNK N   1      24.361  16.337   5.503  0.00  0.00    -0.057 A 
HETATM   10  C   UNK N   1      25.162  17.291   4.872  0.00  0.00     0.008 A 
HETATM   11  C   UNK N   1      26.511  17.397   5.196  0.00  0.00     0.013 A 
HETATM   12  C   UNK N   1      27.082  16.533   6.147  0.00  0.00    -0.026 A 
HETATM   13  C   UNK N   1      26.278  15.561   6.758  0.00  0.00     0.013 A 
HETATM   14  C   UNK N   1      24.918  15.466   6.445  0.00  0.00     0.008 A 
BRANCH  12  15
HETATM   15  C   UNK N   1      28.510  16.679   6.502  0.00  0.00    -0.026 A 
HETATM   16  C   UNK N   1      29.508  16.191   5.648  0.00  0.00     0.012 A 
HETATM   17  C   UNK N   1      30.858  16.345   5.970  0.00  0.00     0.001 A 
HETATM   18  C   UNK N   1      31.222  16.987   7.156  0.00  0.00     0.000 A 
HETATM   19  C   UNK N   1      30.237  17.474   8.017  0.00  0.00     0.001 A 
HETATM   20  C   UNK N   1      28.885  17.327   7.693  0.00  0.00     0.012 A 
ENDBRANCH  12  15
ENDBRANCH   8   9
ENDBRANCH   7   8
ENDBRANCH   1   7
BRANCH   4  21
HETATM   21  C   UNK N   1      21.136  13.759   9.432  0.00  0.00    -0.029 A 
HETATM   22  C   UNK N   1      20.279  13.172  10.374  0.00  0.00     0.012 A 
HETATM   23  C   UNK N   1      20.794  12.329  11.364  0.00  0.00     0.002 A 
HETATM   24  C   UNK N   1      22.162  12.044  11.401  0.00  0.00     0.016 A 
HETATM   25  C   UNK N   1      23.026  12.619  10.459  0.00  0.00     0.048 A 
HETATM   26  C   UNK N   1      22.508  13.477   9.487  0.00  0.00     0.028 A 
BRANCH  25  27
HETATM   27  C   UNK N   1      24.489  12.285  10.466  0.00  0.00     0.417 C 
HETATM   28  F   UNK N   1      25.218  13.425  10.179  0.00  0.00    -0.166 F 
HETATM   29  F   UNK N   1      24.885  11.808  11.705  0.00  0.00    -0.166 F 
HETATM   30  F   UNK N   1      24.752  11.321   9.512  0.00  0.00    -0.166 F 
ENDBRANCH  25  27
ENDBRANCH   4  21
TORSDOF 6
ENDMDL
