MODEL 1
REMARK VINA RESULT:      -5.0      0.000      0.000
REMARK  4 active torsions:
REMARK  status: ('A' for Active; 'I' for Inactive)
REMARK    1  A    between atoms: N_1  and  C_5 
REMARK    2  A    between atoms: C_4  and  C_5 
REMARK    3  A    between atoms: C_4  and  C_6 
REMARK    4  A    between atoms: C_7  and  C_8 
ROOT
HETATM    1  N   UNK N   1      22.016  11.694  11.623  0.00  0.00    -0.374 N 
ATOM      2  HN  UNK N   1      21.738  11.061  12.373  1.00  0.00     0.164 HD
HETATM    3  C   UNK N   1      21.418  13.299   9.954  0.00  0.00    -0.021 A 
HETATM    4  C   UNK N   1      22.770  13.405   9.595  0.00  0.00     0.014 A 
HETATM    5  C   UNK N   1      21.062  12.426  10.985  0.00  0.00     0.099 A 
HETATM    6  C   UNK N   1      23.731  12.647  10.260  0.00  0.00     0.018 A 
HETATM    7  C   UNK N   1      23.331  11.787  11.283  0.00  0.00     0.087 A 
ENDROOT
BRANCH   3   8
HETATM    8  C   UNK N   1      20.383  14.090   9.266  0.00  0.00     0.009 C 
HETATM    9  C   UNK N   1      20.540  15.401   9.093  0.00  0.00    -0.024 C 
BRANCH   9  10
HETATM   10  C   UNK N   1      19.524  16.238   8.405  0.00  0.00     0.046 C 
BRANCH  10  11
HETATM   11  C   UNK N   1      19.683  17.646   8.938  0.00  0.00     0.117 C 
BRANCH  11  12
HETATM   12  N   UNK N   1      18.416  18.152   9.425  0.00  0.00    -0.425 N 
HETATM   13  C   UNK N   1      17.407  17.210   8.973  0.00  0.00     0.139 C 
HETATM   14  H   UNK N   1      18.263  18.997   9.975  0.00  0.00     0.152 HD
ENDBRANCH  11  12
ENDBRANCH  10  11
ENDBRANCH   9  10
ENDBRANCH   3   8
TORSDOF 4
ENDMDL
MODEL 2
REMARK VINA RESULT:      -4.5      1.776      2.198
REMARK  4 active torsions:
REMARK  status: ('A' for Active; 'I' for Inactive)
REMARK    1  A    between atoms: N_1  and  C_5 
REMARK    2  A    between atoms: C_4  and  C_5 
REMARK    3  A    between atoms: C_4  and  C_6 
REMARK    4  A    between atoms: C_7  and  C_8 
ROOT
HETATM    1  N   UNK N   1      22.017  11.608  11.604  0.00  0.00    -0.374 N 
ATOM      2  HN  UNK N   1      21.743  10.928  12.312  1.00  0.00     0.164 HD
HETATM    3  C   UNK N   1      21.421  13.360  10.089  0.00  0.00    -0.021 A 
HETATM    4  C   UNK N   1      22.762  13.447   9.687  0.00  0.00     0.014 A 
HETATM    5  C   UNK N   1      21.069  12.421  11.061  0.00  0.00     0.099 A 
HETATM    6  C   UNK N   1      23.717  12.607  10.255  0.00  0.00     0.018 A 
HETATM    7  C   UNK N   1      23.323  11.683  11.223  0.00  0.00     0.087 A 
ENDROOT
BRANCH   3   8
HETATM    8  C   UNK N   1      20.392  14.237   9.504  0.00  0.00     0.009 C 
HETATM    9  C   UNK N   1      20.731  15.408   8.967  0.00  0.00    -0.024 C 
BRANCH   9  10
HETATM   10  C   UNK N   1      19.729  16.325   8.366  0.00  0.00     0.046 C 
BRANCH  10  11
HETATM   11  C   UNK N   1      20.285  16.768   7.030  0.00  0.00     0.117 C 
BRANCH  11  12
HETATM   12  N   UNK N   1      21.673  16.374   6.901  0.00  0.00    -0.425 N 
HETATM   13  C   UNK N   1      22.259  17.281   5.930  0.00  0.00     0.139 C 
HETATM   14  H   UNK N   1      22.143  15.614   7.393  0.00  0.00     0.152 HD
ENDBRANCH  11  12
ENDBRANCH  10  11
ENDBRANCH   9  10
ENDBRANCH   3   8
TORSDOF 4
ENDMDL
MODEL 3
REMARK VINA RESULT:      -4.4     16.183     16.816
REMARK  4 active torsions:
REMARK  status: ('A' for Active; 'I' for Inactive)
REMARK    1  A    between atoms: N_1  and  C_5 
REMARK    2  A    between atoms: C_4  and  C_5 
REMARK    3  A    between atoms: C_4  and  C_6 
REMARK    4  A    between atoms: C_7  and  C_8 
ROOT
HETATM    1  N   UNK N   1      35.370  11.028  18.613  0.00  0.00    -0.374 N 
ATOM      2  HN  UNK N   1      35.428  10.048  18.891  1.00  0.00     0.164 HD
HETATM    3  C   UNK N   1      35.357  12.684  16.888  0.00  0.00    -0.021 A 
HETATM    4  C   UNK N   1      35.214  13.679  17.866  0.00  0.00     0.014 A 
HETATM    5  C   UNK N   1      35.434  11.349  17.292  0.00  0.00     0.099 A 
HETATM    6  C   UNK N   1      35.150  13.330  19.213  0.00  0.00     0.018 A 
HETATM    7  C   UNK N   1      35.231  11.984  19.573  0.00  0.00     0.087 A 
ENDROOT
BRANCH   3   8
HETATM    8  C   UNK N   1      35.426  13.027  15.457  0.00  0.00     0.009 C 
HETATM    9  C   UNK N   1      36.251  13.983  15.032  0.00  0.00    -0.024 C 
BRANCH   9  10
HETATM   10  C   UNK N   1      36.355  14.362  13.600  0.00  0.00     0.046 C 
BRANCH  10  11
HETATM   11  C   UNK N   1      36.601  13.086  12.824  0.00  0.00     0.117 C 
BRANCH  11  12
HETATM   12  N   UNK N   1      37.586  13.305  11.784  0.00  0.00    -0.425 N 
HETATM   13  C   UNK N   1      37.812  12.009  11.168  0.00  0.00     0.139 C 
HETATM   14  H   UNK N   1      38.029  14.189  11.535  0.00  0.00     0.152 HD
ENDBRANCH  11  12
ENDBRANCH  10  11
ENDBRANCH   9  10
ENDBRANCH   3   8
TORSDOF 4
ENDMDL
MODEL 4
REMARK VINA RESULT:      -4.3      2.133      5.973
REMARK  4 active torsions:
REMARK  status: ('A' for Active; 'I' for Inactive)
REMARK    1  A    between atoms: N_1  and  C_5 
REMARK    2  A    between atoms: C_4  and  C_5 
REMARK    3  A    between atoms: C_4  and  C_6 
REMARK    4  A    between atoms: C_7  and  C_8 
ROOT
HETATM    1  N   UNK N   1      22.053  16.852   6.127  0.00  0.00    -0.374 N 
ATOM      2  HN  UNK N   1      22.638  17.030   5.311  1.00  0.00     0.164 HD
HETATM    3  C   UNK N   1      21.398  15.410   7.918  0.00  0.00    -0.021 A 
HETATM    4  C   UNK N   1      20.470  16.375   8.335  0.00  0.00     0.014 A 
HETATM    5  C   UNK N   1      22.188  15.675   6.797  0.00  0.00     0.099 A 
HETATM    6  C   UNK N   1      20.348  17.574   7.637  0.00  0.00     0.018 A 
HETATM    7  C   UNK N   1      21.156  17.798   6.522  0.00  0.00     0.087 A 
ENDROOT
BRANCH   3   8
HETATM    8  C   UNK N   1      21.547  14.134   8.640  0.00  0.00     0.009 C 
HETATM    9  C   UNK N   1      20.963  13.957   9.824  0.00  0.00    -0.024 C 
BRANCH   9  10
HETATM   10  C   UNK N   1      21.085  12.690  10.588  0.00  0.00     0.046 C 
BRANCH  10  11
HETATM   11  C   UNK N   1      22.563  12.457  10.819  0.00  0.00     0.117 C 
BRANCH  11  12
HETATM   12  N   UNK N   1      22.769  11.323  11.696  0.00  0.00    -0.425 N 
HETATM   13  C   UNK N   1      23.162  11.875  12.980  0.00  0.00     0.139 C 
HETATM   14  H   UNK N   1      22.660  10.337  11.460  0.00  0.00     0.152 HD
ENDBRANCH  11  12
ENDBRANCH  10  11
ENDBRANCH   9  10
ENDBRANCH   3   8
TORSDOF 4
ENDMDL
MODEL 5
REMARK VINA RESULT:      -4.3     14.827     16.691
REMARK  4 active torsions:
REMARK  status: ('A' for Active; 'I' for Inactive)
REMARK    1  A    between atoms: N_1  and  C_5 
REMARK    2  A    between atoms: C_4  and  C_5 
REMARK    3  A    between atoms: C_4  and  C_6 
REMARK    4  A    between atoms: C_7  and  C_8 
ROOT
HETATM    1  N   UNK N   1      34.655  12.409  12.757  0.00  0.00    -0.374 N 
ATOM      2  HN  UNK N   1      34.039  11.693  12.371  1.00  0.00     0.164 HD
HETATM    3  C   UNK N   1      35.718  13.412  14.649  0.00  0.00    -0.021 A 
HETATM    4  C   UNK N   1      36.321  14.347  13.795  0.00  0.00     0.014 A 
HETATM    5  C   UNK N   1      34.878  12.440  14.099  0.00  0.00     0.099 A 
HETATM    6  C   UNK N   1      36.080  14.297  12.424  0.00  0.00     0.018 A 
HETATM    7  C   UNK N   1      35.234  13.310  11.916  0.00  0.00     0.087 A 
ENDROOT
BRANCH   3   8
HETATM    8  C   UNK N   1      35.957  13.443  16.103  0.00  0.00     0.009 C 
HETATM    9  C   UNK N   1      34.975  13.148  16.954  0.00  0.00    -0.024 C 
BRANCH   9  10
HETATM   10  C   UNK N   1      35.169  13.166  18.426  0.00  0.00     0.046 C 
BRANCH  10  11
HETATM   11  C   UNK N   1      35.331  11.726  18.865  0.00  0.00     0.117 C 
BRANCH  11  12
HETATM   12  N   UNK N   1      35.561  11.653  20.293  0.00  0.00    -0.425 N 
HETATM   13  C   UNK N   1      35.033  10.369  20.719  0.00  0.00     0.139 C 
HETATM   14  H   UNK N   1      36.005  12.359  20.880  0.00  0.00     0.152 HD
ENDBRANCH  11  12
ENDBRANCH  10  11
ENDBRANCH   9  10
ENDBRANCH   3   8
TORSDOF 4
ENDMDL
MODEL 6
REMARK VINA RESULT:      -4.2      2.404      2.667
REMARK  4 active torsions:
REMARK  status: ('A' for Active; 'I' for Inactive)
REMARK    1  A    between atoms: N_1  and  C_5 
REMARK    2  A    between atoms: C_4  and  C_5 
REMARK    3  A    between atoms: C_4  and  C_6 
REMARK    4  A    between atoms: C_7  and  C_8 
ROOT
HETATM    1  N   UNK N   1      21.776  11.817  11.631  0.00  0.00    -0.374 N 
ATOM      2  HN  UNK N   1      21.231  11.293  12.316  1.00  0.00     0.164 HD
HETATM    3  C   UNK N   1      21.864  13.404   9.845  0.00  0.00    -0.021 A 
HETATM    4  C   UNK N   1      23.254  13.232   9.780  0.00  0.00     0.014 A 
HETATM    5  C   UNK N   1      21.138  12.677  10.791  0.00  0.00     0.099 A 
HETATM    6  C   UNK N   1      23.889  12.347  10.649  0.00  0.00     0.018 A 
HETATM    7  C   UNK N   1      23.126  11.640  11.579  0.00  0.00     0.087 A 
ENDROOT
BRANCH   3   8
HETATM    8  C   UNK N   1      21.169  14.334   8.937  0.00  0.00     0.009 C 
HETATM    9  C   UNK N   1      21.770  14.774   7.833  0.00  0.00    -0.024 C 
BRANCH   9  10
HETATM   10  C   UNK N   1      21.109  15.711   6.889  0.00  0.00     0.046 C 
BRANCH  10  11
HETATM   11  C   UNK N   1      22.116  16.020   5.801  0.00  0.00     0.117 C 
BRANCH  11  12
HETATM   12  N   UNK N   1      22.651  17.355   5.968  0.00  0.00    -0.425 N 
HETATM   13  C   UNK N   1      21.503  18.230   6.129  0.00  0.00     0.139 C 
HETATM   14  H   UNK N   1      23.634  17.626   5.972  0.00  0.00     0.152 HD
ENDBRANCH  11  12
ENDBRANCH  10  11
ENDBRANCH   9  10
ENDBRANCH   3   8
TORSDOF 4
ENDMDL
MODEL 7
REMARK VINA RESULT:      -4.1      9.463     11.465
REMARK  4 active torsions:
REMARK  status: ('A' for Active; 'I' for Inactive)
REMARK    1  A    between atoms: N_1  and  C_5 
REMARK    2  A    between atoms: C_4  and  C_5 
REMARK    3  A    between atoms: C_4  and  C_6 
REMARK    4  A    between atoms: C_7  and  C_8 
ROOT
HETATM    1  N   UNK N   1      27.862  19.432   3.931  0.00  0.00    -0.374 N 
ATOM      2  HN  UNK N   1      28.024  19.242   2.943  1.00  0.00     0.164 HD
HETATM    3  C   UNK N   1      28.103  18.786   6.221  0.00  0.00    -0.021 A 
HETATM    4  C   UNK N   1      27.421  19.950   6.605  0.00  0.00     0.014 A 
HETATM    5  C   UNK N   1      28.314  18.546   4.861  0.00  0.00     0.099 A 
HETATM    6  C   UNK N   1      26.966  20.844   5.638  0.00  0.00     0.018 A 
HETATM    7  C   UNK N   1      27.198  20.566   4.290  0.00  0.00     0.087 A 
ENDROOT
BRANCH   3   8
HETATM    8  C   UNK N   1      28.594  17.825   7.224  0.00  0.00     0.009 C 
HETATM    9  C   UNK N   1      29.680  18.099   7.945  0.00  0.00    -0.024 C 
BRANCH   9  10
HETATM   10  C   UNK N   1      30.212  17.162   8.967  0.00  0.00     0.046 C 
BRANCH  10  11
HETATM   11  C   UNK N   1      31.537  16.649   8.445  0.00  0.00     0.117 C 
BRANCH  11  12
HETATM   12  N   UNK N   1      32.636  17.363   9.061  0.00  0.00    -0.425 N 
HETATM   13  C   UNK N   1      33.379  17.974   7.972  0.00  0.00     0.139 C 
HETATM   14  H   UNK N   1      32.847  17.425  10.057  0.00  0.00     0.152 HD
ENDBRANCH  11  12
ENDBRANCH  10  11
ENDBRANCH   9  10
ENDBRANCH   3   8
TORSDOF 4
ENDMDL
MODEL 8
REMARK VINA RESULT:      -4.0      1.850      2.489
REMARK  4 active torsions:
REMARK  status: ('A' for Active; 'I' for Inactive)
REMARK    1  A    between atoms: N_1  and  C_5 
REMARK    2  A    between atoms: C_4  and  C_5 
REMARK    3  A    between atoms: C_4  and  C_6 
REMARK    4  A    between atoms: C_7  and  C_8 
ROOT
HETATM    1  N   UNK N   1      22.065  11.933  11.964  0.00  0.00    -0.374 N 
ATOM      2  HN  UNK N   1      21.340  11.825  12.673  1.00  0.00     0.164 HD
HETATM    3  C   UNK N   1      22.678  12.276   9.678  0.00  0.00    -0.021 A 
HETATM    4  C   UNK N   1      24.030  12.224  10.049  0.00  0.00     0.014 A 
HETATM    5  C   UNK N   1      21.702  12.126  10.666  0.00  0.00     0.099 A 
HETATM    6  C   UNK N   1      24.381  12.027  11.383  0.00  0.00     0.018 A 
HETATM    7  C   UNK N   1      23.374  11.881  12.338  0.00  0.00     0.087 A 
ENDROOT
BRANCH   3   8
HETATM    8  C   UNK N   1      22.281  12.484   8.275  0.00  0.00     0.009 C 
HETATM    9  C   UNK N   1      21.175  13.165   7.981  0.00  0.00    -0.024 C 
BRANCH   9  10
HETATM   10  C   UNK N   1      20.735  13.400   6.582  0.00  0.00     0.046 C 
BRANCH  10  11
HETATM   11  C   UNK N   1      20.374  14.866   6.476  0.00  0.00     0.117 C 
BRANCH  11  12
HETATM   12  N   UNK N   1      20.250  15.456   7.794  0.00  0.00    -0.425 N 
HETATM   13  C   UNK N   1      20.282  16.894   7.594  0.00  0.00     0.139 C 
HETATM   14  H   UNK N   1      20.159  14.961   8.681  0.00  0.00     0.152 HD
ENDBRANCH  11  12
ENDBRANCH  10  11
ENDBRANCH   9  10
ENDBRANCH   3   8
TORSDOF 4
ENDMDL
MODEL 9
REMARK VINA RESULT:      -3.9      7.766      8.790
REMARK  4 active torsions:
REMARK  status: ('A' for Active; 'I' for Inactive)
REMARK    1  A    between atoms: N_1  and  C_5 
REMARK    2  A    between atoms: C_4  and  C_5 
REMARK    3  A    between atoms: C_4  and  C_6 
REMARK    4  A    between atoms: C_7  and  C_8 
ROOT
HETATM    1  N   UNK N   1      26.482  18.079   5.039  0.00  0.00    -0.374 N 
ATOM      2  HN  UNK N   1      26.733  17.301   5.649  1.00  0.00     0.164 HD
HETATM    3  C   UNK N   1      24.807  19.344   3.894  0.00  0.00    -0.021 A 
HETATM    4  C   UNK N   1      25.809  20.184   3.388  0.00  0.00     0.014 A 
HETATM    5  C   UNK N   1      25.173  18.284   4.728  0.00  0.00     0.099 A 
HETATM    6  C   UNK N   1      27.143  19.957   3.718  0.00  0.00     0.018 A 
HETATM    7  C   UNK N   1      27.466  18.888   4.554  0.00  0.00     0.087 A 
ENDROOT
BRANCH   3   8
HETATM    8  C   UNK N   1      23.389  19.563   3.559  0.00  0.00     0.009 C 
HETATM    9  C   UNK N   1      22.436  18.863   4.174  0.00  0.00    -0.024 C 
BRANCH   9  10
HETATM   10  C   UNK N   1      20.994  19.050   3.870  0.00  0.00     0.046 C 
BRANCH  10  11
HETATM   11  C   UNK N   1      20.796  18.651   2.423  0.00  0.00     0.117 C 
BRANCH  11  12
HETATM   12  N   UNK N   1      19.924  19.592   1.751  0.00  0.00    -0.425 N 
HETATM   13  C   UNK N   1      20.793  20.610   1.187  0.00  0.00     0.139 C 
HETATM   14  H   UNK N   1      18.907  19.549   1.687  0.00  0.00     0.152 HD
ENDBRANCH  11  12
ENDBRANCH  10  11
ENDBRANCH   9  10
ENDBRANCH   3   8
TORSDOF 4
ENDMDL
