REMARK  9 active torsions:
REMARK  status: ('A' for Active; 'I' for Inactive)
REMARK    1  A    between atoms: C_4  and  C_30 
REMARK       I    between atoms: C_10  and  N_15 
REMARK    2  A    between atoms: N_15  and  C_16 
REMARK    3  A    between atoms: C_19  and  O_22 
REMARK    4  A    between atoms: O_22  and  C_23 
REMARK    5  A    between atoms: C_23  and  C_24 
REMARK    6  A    between atoms: C_24  and  N_25 
REMARK    7  A    between atoms: C_32  and  O_37 
REMARK    8  A    between atoms: O_37  and  C_38 
REMARK    9  A    between atoms: C_38  and  C_40 
ROOT
HETATM    1  C   UNK N   1      -0.247   3.267  -0.416  0.00  0.00     0.050 C 
HETATM    2  C   UNK N   1      -0.146   1.790  -0.253  0.00  0.00    -0.032 A 
HETATM    3  C   UNK N   1      -1.322   1.030  -0.112  0.00  0.00     0.021 A 
HETATM    4  C   UNK N   1      -1.263  -0.370   0.036  0.00  0.00    -0.021 A 
HETATM    5  C   UNK N   1      -0.016  -0.987   0.041  0.00  0.00     0.045 A 
HETATM    6  C   UNK N   1       1.140  -0.253  -0.060  0.00  0.00     0.077 A 
HETATM    7  C   UNK N   1       1.104   1.144  -0.205  0.00  0.00     0.083 A 
HETATM    8  N   UNK N   1       2.282   1.833  -0.276  0.00  0.00    -0.188 N 
ATOM      9  HN  UNK N   1       2.278   2.847  -0.388  1.00  0.00     0.184 HD
HETATM   10  C   UNK N   1       3.464   1.155  -0.197  0.00  0.00     0.697 A 
HETATM   11  N   UNK N   1       3.450  -0.197  -0.037  0.00  0.00    -0.131 N 
ATOM     12  HN  UNK N   1       4.337  -0.695   0.043  1.00  0.00     0.205 HD
HETATM   13  N   UNK N   1       2.322  -0.885   0.017  0.00  0.00    -0.284 N 
ATOM     14  HN  UNK N   1       2.351  -1.899   0.118  1.00  0.00     0.187 HD
HETATM   15  N   UNK N   1       4.714   1.835  -0.201  0.00  0.00    -0.190 N 
HETATM   16  H   UNK N   1       4.749   2.819  -0.178  0.00  0.00     0.184 HD
ENDROOT
BRANCH   4  17
HETATM   17  C   UNK N   1      -2.443  -1.237   0.289  0.00  0.00    -0.001 A 
HETATM   18  C   UNK N   1      -2.268  -2.628   0.130  0.00  0.00     0.051 A 
HETATM   19  C   UNK N   1      -3.288  -3.528   0.406  0.00  0.00     0.080 A 
HETATM   20  C   UNK N   1      -4.493  -3.035   0.926  0.00  0.00     0.039 A 
HETATM   21  C   UNK N   1      -4.702  -1.668   1.069  0.00  0.00     0.027 A 
HETATM   22  C   UNK N   1      -3.701  -0.757   0.737  0.00  0.00     0.045 A 
HETATM   23 Cl   UNK N   1      -4.063   0.944   0.993  0.00  0.00    -0.083 Cl
BRANCH  19  24
HETATM   24  O   UNK N   1      -3.078  -4.858   0.187  0.00  0.00    -0.275 OA
BRANCH  24  25
HETATM   25  C   UNK N   1      -4.034  -5.834   0.192  0.00  0.00     0.298 C 
HETATM   26  O   UNK N   1      -3.725  -6.951   0.577  0.00  0.00    -0.259 OA
BRANCH  25  27
HETATM   27  C   UNK N   1      -5.440  -5.574  -0.225  0.00  0.00     0.039 A 
HETATM   28  C   UNK N   1      -6.472  -6.382   0.268  0.00  0.00     0.017 A 
HETATM   29  C   UNK N   1      -7.804  -6.087  -0.037  0.00  0.00     0.001 A 
HETATM   30  C   UNK N   1      -8.112  -4.993  -0.851  0.00  0.00     0.000 A 
HETATM   31  C   UNK N   1      -7.088  -4.208  -1.383  0.00  0.00     0.001 A 
HETATM   32  C   UNK N   1      -5.760  -4.499  -1.073  0.00  0.00     0.017 A 
ENDBRANCH  25  27
ENDBRANCH  24  25
ENDBRANCH  19  24
ENDBRANCH   4  17
BRANCH  15  33
HETATM   33  C   UNK N   1       5.915   1.069  -0.240  0.00  0.00     0.049 A 
HETATM   34  C   UNK N   1       6.979   1.374   0.617  0.00  0.00     0.033 A 
HETATM   35  C   UNK N   1       8.055   0.479   0.742  0.00  0.00     0.039 A 
HETATM   36  C   UNK N   1       8.063  -0.726   0.019  0.00  0.00     0.069 A 
HETATM   37  C   UNK N   1       7.024  -0.994  -0.878  0.00  0.00     0.039 A 
HETATM   38  C   UNK N   1       5.966  -0.108  -1.004  0.00  0.00     0.033 A 
BRANCH  36  39
HETATM   39  O   UNK N   1       9.055  -1.630   0.218  0.00  0.00    -0.349 OA
BRANCH  39  40
HETATM   40  C   UNK N   1       9.011  -2.916  -0.293  0.00  0.00     0.206 C 
BRANCH  40  41
HETATM   41  C   UNK N   1       8.078  -3.782   0.550  0.00  0.00     0.299 C 
BRANCH  41  42
HETATM   42  N   UNK N   1       7.338  -4.710  -0.291  0.00  0.00     0.090 N 
HETATM   43  C   UNK N   1       7.878  -6.046  -0.081  0.00  0.00     0.272 C 
HETATM   44  C   UNK N   1       6.717  -7.023  -0.100  0.00  0.00     0.032 C 
HETATM   45  C   UNK N   1       5.473  -6.171  -0.026  0.00  0.00     0.032 C 
HETATM   46  C   UNK N   1       5.980  -4.771   0.226  0.00  0.00     0.272 C 
ENDBRANCH  41  42
ENDBRANCH  40  41
ENDBRANCH  39  40
ENDBRANCH  36  39
ENDBRANCH  15  33
TORSDOF 9
