MODEL 1
REMARK VINA RESULT:      -7.0      0.000      0.000
REMARK  7 active torsions:
REMARK  status: ('A' for Active; 'I' for Inactive)
REMARK    1  A    between atoms: C_16  and  O_3 
REMARK    2  A    between atoms: O_5  and  C_22 
REMARK    3  A    between atoms: O_5  and  C_23 
REMARK    4  A    between atoms: C_12  and  C_16 
REMARK    5  A    between atoms: C_14  and  C_17 
REMARK    6  A    between atoms: C_15  and  C_22 
REMARK    7  A    between atoms: C_23  and  C_24 
ROOT
HETATM    1  S   UNK N   1      26.839  26.718  -6.813  0.00  0.00    -0.102 SA
HETATM    2  O   UNK N   1      25.479  22.870  -6.248  0.00  0.00    -0.272 OA
HETATM    3  N   UNK N   1      27.230  24.288  -6.103  0.00  0.00    -0.296 N 
HETATM    4  C   UNK N   1      27.522  25.057  -7.262  0.00  0.00     0.175 A 
HETATM    5  C   UNK N   1      26.658  23.974  -8.091  0.00  0.00     0.140 A 
HETATM    6  C   UNK N   1      26.454  23.430  -6.717  0.00  0.00     0.235 A 
HETATM    7  C   UNK N   1      27.028  26.278  -5.058  0.00  0.00     0.042 C 
HETATM    8  C   UNK N   1      27.122  24.958  -4.870  0.00  0.00     0.129 C 
ENDROOT
BRANCH   8   9
HETATM    9  C   UNK N   1      27.357  24.310  -3.538  0.00  0.00     0.311 C 
HETATM   10  O   UNK N   1      26.390  23.931  -2.899  0.00  0.00    -0.258 OA
BRANCH   9  11
HETATM   11  O   UNK N   1      28.583  24.112  -3.003  0.00  0.00    -0.310 OA
BRANCH  11  12
HETATM   12  C   UNK N   1      29.758  24.297  -3.681  0.00  0.00     0.247 C 
BRANCH  12  13
HETATM   13  C   UNK N   1      30.596  23.082  -3.515  0.00  0.00     0.112 A 
HETATM   14  O   UNK N   1      31.481  22.897  -2.564  0.00  0.00    -0.255 OA
HETATM   15  C   UNK N   1      32.014  21.716  -2.779  0.00  0.00     0.416 A 
HETATM   16  O   UNK N   1      31.501  21.134  -3.839  0.00  0.00    -0.257 OA
HETATM   17  O   UNK N   1      32.883  21.221  -2.084  0.00  0.00    -0.229 OA
HETATM   18  C   UNK N   1      30.608  21.965  -4.323  0.00  0.00     0.087 A 
HETATM   19  C   UNK N   1      29.787  21.720  -5.541  0.00  0.00     0.079 C 
ENDBRANCH  12  13
ENDBRANCH  11  12
ENDBRANCH   9  11
ENDBRANCH   8   9
BRANCH   7  20
HETATM   20  C   UNK N   1      27.069  27.334  -3.981  0.00  0.00     0.163 C 
HETATM   21  O   UNK N   1      28.276  28.061  -3.992  0.00  0.00    -0.381 OA
HETATM   22  C   UNK N   1      27.932  29.418  -3.796  0.00  0.00     0.168 C 
HETATM   23  C   UNK N   1      26.447  29.531  -3.536  0.00  0.00     0.029 C 
HETATM   24  C   UNK N   1      25.924  28.295  -4.177  0.00  0.00     0.039 C 
ENDBRANCH   7  20
BRANCH   5  25
HETATM   25  C   UNK N   1      25.427  24.510  -8.810  0.00  0.00     0.130 C 
HETATM   26  C   UNK N   1      25.804  24.901 -10.229  0.00  0.00     0.040 C 
BRANCH  25  27
HETATM   27  O   UNK N   1      24.453  23.513  -8.865  0.00  0.00    -0.395 OA
HETATM   28  H   UNK N   1      24.030  23.145  -8.073  0.00  0.00     0.210 HD
ENDBRANCH  25  27
ENDBRANCH   5  25
TORSDOF 7
ENDMDL
MODEL 2
REMARK VINA RESULT:      -6.9     13.910     15.857
REMARK  7 active torsions:
REMARK  status: ('A' for Active; 'I' for Inactive)
REMARK    1  A    between atoms: C_16  and  O_3 
REMARK    2  A    between atoms: O_5  and  C_22 
REMARK    3  A    between atoms: O_5  and  C_23 
REMARK    4  A    between atoms: C_12  and  C_16 
REMARK    5  A    between atoms: C_14  and  C_17 
REMARK    6  A    between atoms: C_15  and  C_22 
REMARK    7  A    between atoms: C_23  and  C_24 
ROOT
HETATM    1  S   UNK N   1      20.069  17.235   1.397  0.00  0.00    -0.102 SA
HETATM    2  O   UNK N   1      21.809  18.814   4.782  0.00  0.00    -0.272 OA
HETATM    3  N   UNK N   1      19.969  17.869   3.878  0.00  0.00    -0.296 N 
HETATM    4  C   UNK N   1      19.486  18.446   2.672  0.00  0.00     0.175 A 
HETATM    5  C   UNK N   1      20.345  19.757   3.059  0.00  0.00     0.140 A 
HETATM    6  C   UNK N   1      20.744  18.876   4.194  0.00  0.00     0.235 A 
HETATM    7  C   UNK N   1      20.112  15.956   2.690  0.00  0.00     0.042 C 
HETATM    8  C   UNK N   1      20.154  16.474   3.920  0.00  0.00     0.129 C 
ENDROOT
BRANCH   8   9
HETATM    9  C   UNK N   1      20.123  15.661   5.180  0.00  0.00     0.311 C 
HETATM   10  O   UNK N   1      19.081  15.108   5.488  0.00  0.00    -0.258 OA
BRANCH   9  11
HETATM   11  O   UNK N   1      21.189  15.496   5.996  0.00  0.00    -0.310 OA
BRANCH  11  12
HETATM   12  C   UNK N   1      21.378  16.184   7.164  0.00  0.00     0.247 C 
BRANCH  12  13
HETATM   13  C   UNK N   1      20.700  15.449   8.262  0.00  0.00     0.112 A 
HETATM   14  O   UNK N   1      21.105  14.311   8.775  0.00  0.00    -0.255 OA
HETATM   15  C   UNK N   1      20.230  13.989   9.700  0.00  0.00     0.416 A 
HETATM   16  O   UNK N   1      19.273  14.882   9.798  0.00  0.00    -0.257 OA
HETATM   17  O   UNK N   1      20.295  12.981  10.380  0.00  0.00    -0.229 OA
HETATM   18  C   UNK N   1      19.538  15.811   8.911  0.00  0.00     0.087 A 
HETATM   19  C   UNK N   1      18.702  17.017   8.662  0.00  0.00     0.079 C 
ENDBRANCH  12  13
ENDBRANCH  11  12
ENDBRANCH   9  11
ENDBRANCH   8   9
BRANCH   7  20
HETATM   20  C   UNK N   1      20.098  14.487   2.345  0.00  0.00     0.163 C 
HETATM   21  O   UNK N   1      18.795  13.952   2.338  0.00  0.00    -0.381 OA
HETATM   22  C   UNK N   1      18.710  13.109   1.206  0.00  0.00     0.168 C 
HETATM   23  C   UNK N   1      20.062  13.024   0.536  0.00  0.00     0.029 C 
HETATM   24  C   UNK N   1      20.710  14.286   0.981  0.00  0.00     0.039 C 
ENDBRANCH   7  20
BRANCH   5  25
HETATM   25  C   UNK N   1      21.438  20.155   2.076  0.00  0.00     0.130 C 
HETATM   26  C   UNK N   1      20.815  20.884   0.898  0.00  0.00     0.040 C 
BRANCH  25  27
HETATM   27  O   UNK N   1      22.338  21.013   2.708  0.00  0.00    -0.395 OA
HETATM   28  H   UNK N   1      22.127  21.489   3.528  0.00  0.00     0.210 HD
ENDBRANCH  25  27
ENDBRANCH   5  25
TORSDOF 7
ENDMDL
MODEL 3
REMARK VINA RESULT:      -6.9      2.027      6.931
REMARK  7 active torsions:
REMARK  status: ('A' for Active; 'I' for Inactive)
REMARK    1  A    between atoms: C_16  and  O_3 
REMARK    2  A    between atoms: O_5  and  C_22 
REMARK    3  A    between atoms: O_5  and  C_23 
REMARK    4  A    between atoms: C_12  and  C_16 
REMARK    5  A    between atoms: C_14  and  C_17 
REMARK    6  A    between atoms: C_15  and  C_22 
REMARK    7  A    between atoms: C_23  and  C_24 
ROOT
HETATM    1  S   UNK N   1      30.035  22.550  -5.850  0.00  0.00    -0.102 SA
HETATM    2  O   UNK N   1      29.985  22.919  -1.746  0.00  0.00    -0.272 OA
HETATM    3  N   UNK N   1      29.829  23.979  -3.734  0.00  0.00    -0.296 N 
HETATM    4  C   UNK N   1      30.862  23.718  -4.675  0.00  0.00     0.175 A 
HETATM    5  C   UNK N   1      31.744  23.193  -3.429  0.00  0.00     0.140 A 
HETATM    6  C   UNK N   1      30.475  23.490  -2.704  0.00  0.00     0.235 A 
HETATM    7  C   UNK N   1      28.429  23.235  -5.339  0.00  0.00     0.042 C 
HETATM    8  C   UNK N   1      28.494  23.865  -4.163  0.00  0.00     0.129 C 
ENDROOT
BRANCH   8   9
HETATM    9  C   UNK N   1      27.343  24.588  -3.529  0.00  0.00     0.311 C 
HETATM   10  O   UNK N   1      26.512  23.936  -2.921  0.00  0.00    -0.258 OA
BRANCH   9  11
HETATM   11  O   UNK N   1      27.175  25.929  -3.584  0.00  0.00    -0.310 OA
BRANCH  11  12
HETATM   12  C   UNK N   1      26.109  26.547  -4.181  0.00  0.00     0.247 C 
BRANCH  12  13
HETATM   13  C   UNK N   1      26.367  28.010  -4.212  0.00  0.00     0.112 A 
HETATM   14  O   UNK N   1      26.083  28.850  -3.245  0.00  0.00    -0.255 OA
HETATM   15  C   UNK N   1      26.447  30.038  -3.667  0.00  0.00     0.416 A 
HETATM   16  O   UNK N   1      26.956  29.992  -4.877  0.00  0.00    -0.257 OA
HETATM   17  O   UNK N   1      26.323  31.062  -3.019  0.00  0.00    -0.229 OA
HETATM   18  C   UNK N   1      26.920  28.734  -5.247  0.00  0.00     0.087 A 
HETATM   19  C   UNK N   1      27.386  28.218  -6.564  0.00  0.00     0.079 C 
ENDBRANCH  12  13
ENDBRANCH  11  12
ENDBRANCH   9  11
ENDBRANCH   8   9
BRANCH   7  20
HETATM   20  C   UNK N   1      27.197  23.076  -6.196  0.00  0.00     0.163 C 
HETATM   21  O   UNK N   1      26.748  24.305  -6.717  0.00  0.00    -0.381 OA
HETATM   22  C   UNK N   1      26.392  24.067  -8.065  0.00  0.00     0.168 C 
HETATM   23  C   UNK N   1      26.518  22.591  -8.368  0.00  0.00     0.029 C 
HETATM   24  C   UNK N   1      27.500  22.146  -7.344  0.00  0.00     0.039 C 
ENDBRANCH   7  20
BRANCH   5  25
HETATM   25  C   UNK N   1      32.183  21.736  -3.486  0.00  0.00     0.130 C 
HETATM   26  C   UNK N   1      33.424  21.617  -4.354  0.00  0.00     0.040 C 
BRANCH  25  27
HETATM   27  O   UNK N   1      32.493  21.295  -2.199  0.00  0.00    -0.395 OA
HETATM   28  H   UNK N   1      32.058  21.642  -1.403  0.00  0.00     0.210 HD
ENDBRANCH  25  27
ENDBRANCH   5  25
TORSDOF 7
ENDMDL
MODEL 4
REMARK VINA RESULT:      -6.6     14.909     17.331
REMARK  7 active torsions:
REMARK  status: ('A' for Active; 'I' for Inactive)
REMARK    1  A    between atoms: C_16  and  O_3 
REMARK    2  A    between atoms: O_5  and  C_22 
REMARK    3  A    between atoms: O_5  and  C_23 
REMARK    4  A    between atoms: C_12  and  C_16 
REMARK    5  A    between atoms: C_14  and  C_17 
REMARK    6  A    between atoms: C_15  and  C_22 
REMARK    7  A    between atoms: C_23  and  C_24 
ROOT
HETATM    1  S   UNK N   1      20.964  14.236   9.444  0.00  0.00    -0.102 SA
HETATM    2  O   UNK N   1      24.799  14.364   7.942  0.00  0.00    -0.272 OA
HETATM    3  N   UNK N   1      22.626  13.917   7.521  0.00  0.00    -0.296 N 
HETATM    4  C   UNK N   1      21.967  13.051   8.436  0.00  0.00     0.175 A 
HETATM    5  C   UNK N   1      23.436  12.567   8.899  0.00  0.00     0.140 A 
HETATM    6  C   UNK N   1      23.837  13.616   7.918  0.00  0.00     0.235 A 
HETATM    7  C   UNK N   1      21.012  15.403   8.049  0.00  0.00     0.042 C 
HETATM    8  C   UNK N   1      22.006  15.137   7.196  0.00  0.00     0.129 C 
ENDROOT
BRANCH   8   9
HETATM    9  C   UNK N   1      22.243  15.886   5.919  0.00  0.00     0.311 C 
HETATM   10  O   UNK N   1      23.291  16.497   5.791  0.00  0.00    -0.258 OA
BRANCH   9  11
HETATM   11  O   UNK N   1      21.365  15.920   4.891  0.00  0.00    -0.310 OA
BRANCH  11  12
HETATM   12  C   UNK N   1      21.700  16.239   3.602  0.00  0.00     0.247 C 
BRANCH  12  13
HETATM   13  C   UNK N   1      21.098  17.555   3.270  0.00  0.00     0.112 A 
HETATM   14  O   UNK N   1      21.143  18.623   4.031  0.00  0.00    -0.255 OA
HETATM   15  C   UNK N   1      20.485  19.562   3.392  0.00  0.00     0.416 A 
HETATM   16  O   UNK N   1      20.016  19.134   2.242  0.00  0.00    -0.257 OA
HETATM   17  O   UNK N   1      20.323  20.692   3.815  0.00  0.00    -0.229 OA
HETATM   18  C   UNK N   1      20.384  17.879   2.136  0.00  0.00     0.087 A 
HETATM   19  C   UNK N   1      20.055  16.988   0.989  0.00  0.00     0.079 C 
ENDBRANCH  12  13
ENDBRANCH  11  12
ENDBRANCH   9  11
ENDBRANCH   8   9
BRANCH   7  20
HETATM   20  C   UNK N   1      20.011  16.525   7.926  0.00  0.00     0.163 C 
HETATM   21  O   UNK N   1      18.682  16.057   7.925  0.00  0.00    -0.381 OA
HETATM   22  C   UNK N   1      17.943  16.940   8.745  0.00  0.00     0.168 C 
HETATM   23  C   UNK N   1      18.829  18.081   9.189  0.00  0.00     0.029 C 
HETATM   24  C   UNK N   1      20.186  17.482   9.078  0.00  0.00     0.039 C 
ENDBRANCH   7  20
BRANCH   5  25
HETATM   25  C   UNK N   1      23.792  12.813  10.359  0.00  0.00     0.130 C 
HETATM   26  C   UNK N   1      23.249  11.677  11.209  0.00  0.00     0.040 C 
BRANCH  25  27
HETATM   27  O   UNK N   1      25.180  12.851  10.497  0.00  0.00    -0.395 OA
HETATM   28  H   UNK N   1      25.664  12.286  11.121  0.00  0.00     0.210 HD
ENDBRANCH  25  27
ENDBRANCH   5  25
TORSDOF 7
ENDMDL
MODEL 5
REMARK VINA RESULT:      -6.4     14.326     19.171
REMARK  7 active torsions:
REMARK  status: ('A' for Active; 'I' for Inactive)
REMARK    1  A    between atoms: C_16  and  O_3 
REMARK    2  A    between atoms: O_5  and  C_22 
REMARK    3  A    between atoms: O_5  and  C_23 
REMARK    4  A    between atoms: C_12  and  C_16 
REMARK    5  A    between atoms: C_14  and  C_17 
REMARK    6  A    between atoms: C_15  and  C_22 
REMARK    7  A    between atoms: C_23  and  C_24 
ROOT
HETATM    1  S   UNK N   1      36.635  12.976   8.923  0.00  0.00    -0.102 SA
HETATM    2  O   UNK N   1      34.750  14.264  12.353  0.00  0.00    -0.272 OA
HETATM    3  N   UNK N   1      36.288  14.722  10.765  0.00  0.00    -0.296 N 
HETATM    4  C   UNK N   1      37.253  13.711  10.506  0.00  0.00     0.175 A 
HETATM    5  C   UNK N   1      36.862  13.092  11.944  0.00  0.00     0.140 A 
HETATM    6  C   UNK N   1      35.880  14.213  11.901  0.00  0.00     0.235 A 
HETATM    7  C   UNK N   1      35.782  14.545   8.573  0.00  0.00     0.042 C 
HETATM    8  C   UNK N   1      35.603  15.284   9.672  0.00  0.00     0.129 C 
ENDROOT
BRANCH   8   9
HETATM    9  C   UNK N   1      34.995  16.655   9.676  0.00  0.00     0.311 C 
HETATM   10  O   UNK N   1      35.591  17.553  10.246  0.00  0.00    -0.258 OA
BRANCH   9  11
HETATM   11  O   UNK N   1      33.822  16.960   9.076  0.00  0.00    -0.310 OA
BRANCH  11  12
HETATM   12  C   UNK N   1      33.606  18.094   8.339  0.00  0.00     0.247 C 
BRANCH  12  13
HETATM   13  C   UNK N   1      33.078  17.701   7.008  0.00  0.00     0.112 A 
HETATM   14  O   UNK N   1      33.725  17.816   5.872  0.00  0.00    -0.255 OA
HETATM   15  C   UNK N   1      32.913  17.378   4.937  0.00  0.00     0.416 A 
HETATM   16  O   UNK N   1      31.763  16.985   5.435  0.00  0.00    -0.257 OA
HETATM   17  O   UNK N   1      33.190  17.346   3.752  0.00  0.00    -0.229 OA
HETATM   18  C   UNK N   1      31.834  17.174   6.731  0.00  0.00     0.087 A 
HETATM   19  C   UNK N   1      30.741  16.877   7.698  0.00  0.00     0.079 C 
ENDBRANCH  12  13
ENDBRANCH  11  12
ENDBRANCH   9  11
ENDBRANCH   8   9
BRANCH   7  20
HETATM   20  C   UNK N   1      35.350  14.912   7.175  0.00  0.00     0.163 C 
HETATM   21  O   UNK N   1      36.355  14.655   6.221  0.00  0.00    -0.381 OA
HETATM   22  C   UNK N   1      35.713  14.078   5.103  0.00  0.00     0.168 C 
HETATM   23  C   UNK N   1      34.217  14.078   5.322  0.00  0.00     0.029 C 
HETATM   24  C   UNK N   1      34.120  14.122   6.805  0.00  0.00     0.039 C 
ENDBRANCH   7  20
BRANCH   5  25
HETATM   25  C   UNK N   1      36.298  11.678  11.933  0.00  0.00     0.130 C 
HETATM   26  C   UNK N   1      37.441  10.679  11.985  0.00  0.00     0.040 C 
BRANCH  25  27
HETATM   27  O   UNK N   1      35.490  11.493  13.055  0.00  0.00    -0.395 OA
HETATM   28  H   UNK N   1      34.913  12.189  13.411  0.00  0.00     0.210 HD
ENDBRANCH  25  27
ENDBRANCH   5  25
TORSDOF 7
ENDMDL
MODEL 6
REMARK VINA RESULT:      -6.4     15.446     17.964
REMARK  7 active torsions:
REMARK  status: ('A' for Active; 'I' for Inactive)
REMARK    1  A    between atoms: C_16  and  O_3 
REMARK    2  A    between atoms: O_5  and  C_22 
REMARK    3  A    between atoms: O_5  and  C_23 
REMARK    4  A    between atoms: C_12  and  C_16 
REMARK    5  A    between atoms: C_14  and  C_17 
REMARK    6  A    between atoms: C_15  and  C_22 
REMARK    7  A    between atoms: C_23  and  C_24 
ROOT
HETATM    1  S   UNK N   1      22.430  12.083   7.419  0.00  0.00    -0.102 SA
HETATM    2  O   UNK N   1      19.549  14.292   9.367  0.00  0.00    -0.272 OA
HETATM    3  N   UNK N   1      21.350  14.330   8.006  0.00  0.00    -0.296 N 
HETATM    4  C   UNK N   1      22.497  13.618   8.451  0.00  0.00     0.175 A 
HETATM    5  C   UNK N   1      21.854  13.682   9.930  0.00  0.00     0.140 A 
HETATM    6  C   UNK N   1      20.750  14.337   9.170  0.00  0.00     0.235 A 
HETATM    7  C   UNK N   1      21.457  13.001   6.186  0.00  0.00     0.042 C 
HETATM    8  C   UNK N   1      20.888  14.096   6.697  0.00  0.00     0.129 C 
ENDROOT
BRANCH   8   9
HETATM    9  C   UNK N   1      20.089  15.082   5.899  0.00  0.00     0.311 C 
HETATM   10  O   UNK N   1      18.885  15.140   6.084  0.00  0.00    -0.258 OA
BRANCH   9  11
HETATM   11  O   UNK N   1      20.627  15.924   4.986  0.00  0.00    -0.310 OA
BRANCH  11  12
HETATM   12  C   UNK N   1      20.247  15.979   3.673  0.00  0.00     0.247 C 
BRANCH  12  13
HETATM   13  C   UNK N   1      20.327  17.391   3.216  0.00  0.00     0.112 A 
HETATM   14  O   UNK N   1      20.476  18.433   4.000  0.00  0.00    -0.255 OA
HETATM   15  C   UNK N   1      20.482  19.487   3.217  0.00  0.00     0.416 A 
HETATM   16  O   UNK N   1      20.341  19.158   1.954  0.00  0.00    -0.257 OA
HETATM   17  O   UNK N   1      20.598  20.632   3.614  0.00  0.00    -0.229 OA
HETATM   18  C   UNK N   1      20.242  17.850   1.919  0.00  0.00     0.087 A 
HETATM   19  C   UNK N   1      20.053  17.041   0.683  0.00  0.00     0.079 C 
ENDBRANCH  12  13
ENDBRANCH  11  12
ENDBRANCH   9  11
ENDBRANCH   8   9
BRANCH   7  20
HETATM   20  C   UNK N   1      21.347  12.526   4.758  0.00  0.00     0.163 C 
HETATM   21  O   UNK N   1      22.552  11.972   4.284  0.00  0.00    -0.381 OA
HETATM   22  C   UNK N   1      22.206  10.812   3.556  0.00  0.00     0.168 C 
HETATM   23  C   UNK N   1      20.700  10.696   3.474  0.00  0.00     0.029 C 
HETATM   24  C   UNK N   1      20.263  11.481   4.659  0.00  0.00     0.039 C 
ENDBRANCH   7  20
BRANCH   5  25
HETATM   25  C   UNK N   1      21.543  12.341  10.582  0.00  0.00     0.130 C 
HETATM   26  C   UNK N   1      22.675  11.963  11.522  0.00  0.00     0.040 C 
BRANCH  25  27
HETATM   27  O   UNK N   1      20.364  12.449  11.321  0.00  0.00    -0.395 OA
HETATM   28  H   UNK N   1      20.186  11.912  12.111  0.00  0.00     0.210 HD
ENDBRANCH  25  27
ENDBRANCH   5  25
TORSDOF 7
ENDMDL
MODEL 7
REMARK VINA RESULT:      -6.3     16.857     21.133
REMARK  7 active torsions:
REMARK  status: ('A' for Active; 'I' for Inactive)
REMARK    1  A    between atoms: C_16  and  O_3 
REMARK    2  A    between atoms: O_5  and  C_22 
REMARK    3  A    between atoms: O_5  and  C_23 
REMARK    4  A    between atoms: C_12  and  C_16 
REMARK    5  A    between atoms: C_14  and  C_17 
REMARK    6  A    between atoms: C_15  and  C_22 
REMARK    7  A    between atoms: C_23  and  C_24 
ROOT
HETATM    1  S   UNK N   1      34.239  13.927   8.241  0.00  0.00    -0.102 SA
HETATM    2  O   UNK N   1      35.394  17.458  10.024  0.00  0.00    -0.272 OA
HETATM    3  N   UNK N   1      34.104  15.611  10.168  0.00  0.00    -0.296 N 
HETATM    4  C   UNK N   1      33.298  15.310   9.036  0.00  0.00     0.175 A 
HETATM    5  C   UNK N   1      33.502  16.848   8.591  0.00  0.00     0.140 A 
HETATM    6  C   UNK N   1      34.365  16.843   9.808  0.00  0.00     0.235 A 
HETATM    7  C   UNK N   1      34.982  13.555   9.859  0.00  0.00     0.042 C 
HETATM    8  C   UNK N   1      34.903  14.585  10.706  0.00  0.00     0.129 C 
ENDROOT
BRANCH   8   9
HETATM    9  C   UNK N   1      35.366  14.543  12.132  0.00  0.00     0.311 C 
HETATM   10  O   UNK N   1      36.309  15.244  12.457  0.00  0.00    -0.258 OA
BRANCH   9  11
HETATM   11  O   UNK N   1      34.793  13.776  13.087  0.00  0.00    -0.310 OA
BRANCH  11  12
HETATM   12  C   UNK N   1      35.466  13.241  14.152  0.00  0.00     0.247 C 
BRANCH  12  13
HETATM   13  C   UNK N   1      35.824  11.836  13.830  0.00  0.00     0.112 A 
HETATM   14  O   UNK N   1      36.956  11.447  13.292  0.00  0.00    -0.255 OA
HETATM   15  C   UNK N   1      36.871  10.144  13.153  0.00  0.00     0.416 A 
HETATM   16  O   UNK N   1      35.720   9.681  13.584  0.00  0.00    -0.257 OA
HETATM   17  O   UNK N   1      37.751   9.449  12.678  0.00  0.00    -0.229 OA
HETATM   18  C   UNK N   1      35.041  10.717  14.014  0.00  0.00     0.087 A 
HETATM   19  C   UNK N   1      33.664  10.659  14.579  0.00  0.00     0.079 C 
ENDBRANCH  12  13
ENDBRANCH  11  12
ENDBRANCH   9  11
ENDBRANCH   8   9
BRANCH   7  20
HETATM   20  C   UNK N   1      35.602  12.210  10.151  0.00  0.00     0.163 C 
HETATM   21  O   UNK N   1      34.647  11.261  10.566  0.00  0.00    -0.381 OA
HETATM   22  C   UNK N   1      34.965  10.053   9.906  0.00  0.00     0.168 C 
HETATM   23  C   UNK N   1      36.249  10.224   9.127  0.00  0.00     0.029 C 
HETATM   24  C   UNK N   1      36.288  11.695   8.911  0.00  0.00     0.039 C 
ENDBRANCH   7  20
BRANCH   5  25
HETATM   25  C   UNK N   1      34.196  17.071   7.254  0.00  0.00     0.130 C 
HETATM   26  C   UNK N   1      33.178  16.951   6.133  0.00  0.00     0.040 C 
BRANCH  25  27
HETATM   27  O   UNK N   1      34.744  18.354   7.226  0.00  0.00    -0.395 OA
HETATM   28  H   UNK N   1      35.278  18.715   7.951  0.00  0.00     0.210 HD
ENDBRANCH  25  27
ENDBRANCH   5  25
TORSDOF 7
ENDMDL
MODEL 8
REMARK VINA RESULT:      -6.3     14.997     17.286
REMARK  7 active torsions:
REMARK  status: ('A' for Active; 'I' for Inactive)
REMARK    1  A    between atoms: C_16  and  O_3 
REMARK    2  A    between atoms: O_5  and  C_22 
REMARK    3  A    between atoms: O_5  and  C_23 
REMARK    4  A    between atoms: C_12  and  C_16 
REMARK    5  A    between atoms: C_14  and  C_17 
REMARK    6  A    between atoms: C_15  and  C_22 
REMARK    7  A    between atoms: C_23  and  C_24 
ROOT
HETATM    1  S   UNK N   1      20.876  13.989   9.765  0.00  0.00    -0.102 SA
HETATM    2  O   UNK N   1      24.598  14.116   8.004  0.00  0.00    -0.272 OA
HETATM    3  N   UNK N   1      22.418  13.582   7.760  0.00  0.00    -0.296 N 
HETATM    4  C   UNK N   1      21.848  12.764   8.774  0.00  0.00     0.175 A 
HETATM    5  C   UNK N   1      23.358  12.353   9.169  0.00  0.00     0.140 A 
HETATM    6  C   UNK N   1      23.662  13.343   8.095  0.00  0.00     0.235 A 
HETATM    7  C   UNK N   1      20.796  15.057   8.294  0.00  0.00     0.042 C 
HETATM    8  C   UNK N   1      21.739  14.759   7.396  0.00  0.00     0.129 C 
ENDROOT
BRANCH   8   9
HETATM    9  C   UNK N   1      21.869  15.424   6.058  0.00  0.00     0.311 C 
HETATM   10  O   UNK N   1      21.689  14.752   5.056  0.00  0.00    -0.258 OA
BRANCH   9  11
HETATM   11  O   UNK N   1      22.168  16.733   5.893  0.00  0.00    -0.310 OA
BRANCH  11  12
HETATM   12  C   UNK N   1      21.417  17.607   5.155  0.00  0.00     0.247 C 
BRANCH  12  13
HETATM   13  C   UNK N   1      22.335  18.494   4.395  0.00  0.00     0.112 A 
HETATM   14  O   UNK N   1      23.645  18.419   4.408  0.00  0.00    -0.255 OA
HETATM   15  C   UNK N   1      24.079  19.382   3.628  0.00  0.00     0.416 A 
HETATM   16  O   UNK N   1      23.091  20.075   3.112  0.00  0.00    -0.257 OA
HETATM   17  O   UNK N   1      25.256  19.608   3.413  0.00  0.00    -0.229 OA
HETATM   18  C   UNK N   1      21.984  19.544   3.573  0.00  0.00     0.087 A 
HETATM   19  C   UNK N   1      20.610  20.026   3.258  0.00  0.00     0.079 C 
ENDBRANCH  12  13
ENDBRANCH  11  12
ENDBRANCH   9  11
ENDBRANCH   8   9
BRANCH   7  20
HETATM   20  C   UNK N   1      19.754  16.140   8.163  0.00  0.00     0.163 C 
HETATM   21  O   UNK N   1      18.552  15.807   8.818  0.00  0.00    -0.381 OA
HETATM   22  C   UNK N   1      18.117  16.974   9.485  0.00  0.00     0.168 C 
HETATM   23  C   UNK N   1      19.033  18.126   9.138  0.00  0.00     0.029 C 
HETATM   24  C   UNK N   1      20.285  17.422   8.752  0.00  0.00     0.039 C 
ENDBRANCH   7  20
BRANCH   5  25
HETATM   25  C   UNK N   1      23.801  12.710  10.582  0.00  0.00     0.130 C 
HETATM   26  C   UNK N   1      23.265  11.674  11.555  0.00  0.00     0.040 C 
BRANCH  25  27
HETATM   27  O   UNK N   1      25.195  12.706  10.645  0.00  0.00    -0.395 OA
HETATM   28  H   UNK N   1      25.722  11.891  10.606  0.00  0.00     0.210 HD
ENDBRANCH  25  27
ENDBRANCH   5  25
TORSDOF 7
ENDMDL
MODEL 9
REMARK VINA RESULT:      -6.2     13.914     16.414
REMARK  7 active torsions:
REMARK  status: ('A' for Active; 'I' for Inactive)
REMARK    1  A    between atoms: C_16  and  O_3 
REMARK    2  A    between atoms: O_5  and  C_22 
REMARK    3  A    between atoms: O_5  and  C_23 
REMARK    4  A    between atoms: C_12  and  C_16 
REMARK    5  A    between atoms: C_14  and  C_17 
REMARK    6  A    between atoms: C_15  and  C_22 
REMARK    7  A    between atoms: C_23  and  C_24 
ROOT
HETATM    1  S   UNK N   1      21.955  13.153   6.345  0.00  0.00    -0.102 SA
HETATM    2  O   UNK N   1      19.180  15.489   8.300  0.00  0.00    -0.272 OA
HETATM    3  N   UNK N   1      21.019  15.449   6.990  0.00  0.00    -0.296 N 
HETATM    4  C   UNK N   1      22.100  14.641   7.438  0.00  0.00     0.175 A 
HETATM    5  C   UNK N   1      21.419  14.695   8.900  0.00  0.00     0.140 A 
HETATM    6  C   UNK N   1      20.387  15.455   8.137  0.00  0.00     0.235 A 
HETATM    7  C   UNK N   1      21.086  14.183   5.123  0.00  0.00     0.042 C 
HETATM    8  C   UNK N   1      20.580  15.296   5.661  0.00  0.00     0.129 C 
ENDROOT
BRANCH   8   9
HETATM    9  C   UNK N   1      19.877  16.367   4.881  0.00  0.00     0.311 C 
HETATM   10  O   UNK N   1      18.658  16.386   4.892  0.00  0.00    -0.258 OA
BRANCH   9  11
HETATM   11  O   UNK N   1      20.517  17.322   4.169  0.00  0.00    -0.310 OA
BRANCH  11  12
HETATM   12  C   UNK N   1      21.171  18.389   4.725  0.00  0.00     0.247 C 
BRANCH  12  13
HETATM   13  C   UNK N   1      21.453  19.381   3.656  0.00  0.00     0.112 A 
HETATM   14  O   UNK N   1      20.545  19.987   2.927  0.00  0.00    -0.255 OA
HETATM   15  C   UNK N   1      21.198  20.764   2.093  0.00  0.00     0.416 A 
HETATM   16  O   UNK N   1      22.498  20.676   2.261  0.00  0.00    -0.257 OA
HETATM   17  O   UNK N   1      20.665  21.475   1.261  0.00  0.00    -0.229 OA
HETATM   18  C   UNK N   1      22.690  19.817   3.233  0.00  0.00     0.087 A 
HETATM   19  C   UNK N   1      24.022  19.398   3.751  0.00  0.00     0.079 C 
ENDBRANCH  12  13
ENDBRANCH  11  12
ENDBRANCH   9  11
ENDBRANCH   8   9
BRANCH   7  20
HETATM   20  C   UNK N   1      20.985  13.771   3.675  0.00  0.00     0.163 C 
HETATM   21  O   UNK N   1      19.683  13.937   3.163  0.00  0.00    -0.381 OA
HETATM   22  C   UNK N   1      19.825  14.490   1.870  0.00  0.00     0.168 C 
HETATM   23  C   UNK N   1      21.291  14.568   1.511  0.00  0.00     0.029 C 
HETATM   24  C   UNK N   1      21.938  14.597   2.850  0.00  0.00     0.039 C 
ENDBRANCH   7  20
BRANCH   5  25
HETATM   25  C   UNK N   1      20.995  13.357   9.491  0.00  0.00     0.130 C 
HETATM   26  C   UNK N   1      22.085  12.848  10.418  0.00  0.00     0.040 C 
BRANCH  25  27
HETATM   27  O   UNK N   1      19.823  13.527  10.229  0.00  0.00    -0.395 OA
HETATM   28  H   UNK N   1      19.814  13.590  11.197  0.00  0.00     0.210 HD
ENDBRANCH  25  27
ENDBRANCH   5  25
TORSDOF 7
ENDMDL
