REMARK  9 active torsions:
REMARK  status: ('A' for Active; 'I' for Inactive)
REMARK    1  A    between atoms: C_7  and  O_1 
REMARK    2  A    between atoms: O_2  and  C_13 
REMARK    3  A    between atoms: O_3  and  C_14 
REMARK    4  A    between atoms: O_4  and  C_17 
REMARK    5  A    between atoms: O_5  and  C_20 
REMARK    6  A    between atoms: O_6  and  C_18 
REMARK    7  A    between atoms: C_7  and  C_8 
REMARK    8  A    between atoms: C_7  and  C_9 
REMARK    9  A    between atoms: C_8  and  C_10 
ROOT
HETATM    1  C   UNK N   1       4.505  -0.139   0.966  0.00  0.00     0.155 C 
ENDROOT
BRANCH   1   2
HETATM    2  O   UNK N   1       3.338   0.504   1.398  0.00  0.00    -0.391 OA
HETATM    3  H   UNK N   1       3.320   1.427   1.697  0.00  0.00     0.210 HD
ENDBRANCH   1   2
BRANCH   1   4
HETATM    4  C   UNK N   1       5.128   0.561  -0.253  0.00  0.00     0.075 C 
BRANCH   4   5
HETATM    5  C   UNK N   1       4.873   2.029  -0.283  0.00  0.00    -0.053 A 
HETATM    6  C   UNK N   1       5.902   2.924   0.010  0.00  0.00     0.046 A 
HETATM    7  C   UNK N   1       5.649   4.298   0.033  0.00  0.00     0.099 A 
HETATM    8  C   UNK N   1       4.359   4.783  -0.240  0.00  0.00     0.101 A 
HETATM    9  C   UNK N   1       3.335   3.876  -0.559  0.00  0.00     0.040 A 
HETATM   10  C   UNK N   1       3.593   2.507  -0.584  0.00  0.00     0.010 A 
BRANCH   7  11
HETATM   11  O   UNK N   1       6.644   5.149   0.333  0.00  0.00    -0.358 OA
HETATM   12  H   UNK N   1       7.505   4.845   0.542  0.00  0.00     0.217 HD
ENDBRANCH   7  11
BRANCH   8  13
HETATM   13  O   UNK N   1       4.123   6.116  -0.182  0.00  0.00    -0.353 OA
HETATM   14  C   UNK N   1       2.873   6.666  -0.362  0.00  0.00     0.210 C 
ENDBRANCH   8  13
ENDBRANCH   4   5
ENDBRANCH   1   4
BRANCH   1  15
HETATM   15  C   UNK N   1       4.209  -1.552   0.574  0.00  0.00    -0.024 A 
HETATM   16  C   UNK N   1       5.255  -2.436   0.320  0.00  0.00     0.049 A 
HETATM   17  C   UNK N   1       4.996  -3.748  -0.108  0.00  0.00     0.104 A 
HETATM   18  C   UNK N   1       3.669  -4.175  -0.301  0.00  0.00     0.135 A 
HETATM   19  C   UNK N   1       2.599  -3.275  -0.040  0.00  0.00     0.104 A 
HETATM   20  C   UNK N   1       2.892  -1.976   0.400  0.00  0.00     0.049 A 
BRANCH  17  21
HETATM   21  O   UNK N   1       6.012  -4.611  -0.353  0.00  0.00    -0.353 OA
HETATM   22  C   UNK N   1       7.340  -4.282  -0.193  0.00  0.00     0.210 C 
ENDBRANCH  17  21
BRANCH  18  23
HETATM   23  O   UNK N   1       3.473  -5.449  -0.742  0.00  0.00    -0.351 OA
HETATM   24  C   UNK N   1       2.257  -6.013  -1.052  0.00  0.00     0.210 C 
ENDBRANCH  18  23
BRANCH  19  25
HETATM   25  O   UNK N   1       1.310  -3.654  -0.220  0.00  0.00    -0.353 OA
HETATM   26  C   UNK N   1       0.235  -2.816  -0.020  0.00  0.00     0.210 C 
ENDBRANCH  19  25
ENDBRANCH   1  15
TORSDOF 9
