MODEL 1
REMARK VINA RESULT:      -8.6      0.000      0.000
REMARK  6 active torsions:
REMARK  status: ('A' for Active; 'I' for Inactive)
REMARK    1  A    between atoms: C_2  and  C_3 
REMARK    2  A    between atoms: C_3  and  C_4 
REMARK    3  A    between atoms: C_4  and  C_5 
REMARK    4  A    between atoms: C_5  and  C_6 
REMARK    5  A    between atoms: C_6  and  O_8 
REMARK    6  A    between atoms: C_9  and  O_8 
ROOT
HETATM    1  C   UNK N   1      36.918   8.943  19.855  0.00  0.00     0.136 C 
HETATM    2  C   UNK N   1      37.213   8.495  18.413  0.00  0.00     0.034 C 
HETATM    3  C   UNK N   1      36.451   9.261  17.308  0.00  0.00     0.016 C 
HETATM    4  C   UNK N   1      35.263  10.106  17.798  0.00  0.00    -0.017 C 
HETATM    5  C   UNK N   1      34.555  10.904  16.662  0.00  0.00     0.003 C 
HETATM    6  C   UNK N   1      34.448  10.237  15.291  0.00  0.00     0.007 C 
HETATM    7  C   UNK N   1      35.819  10.154  14.619  0.00  0.00     0.010 C 
HETATM    8  C   UNK N   1      36.680  11.437  14.667  0.00  0.00    -0.033 C 
HETATM    9  C   UNK N   1      36.448  12.413  15.869  0.00  0.00     0.001 C 
HETATM   10  C   UNK N   1      35.035  12.320  16.470  0.00  0.00    -0.001 C 
HETATM   11  C   UNK N   1      34.908  13.061  17.793  0.00  0.00     0.033 C 
HETATM   12  C   UNK N   1      35.688  12.359  18.863  0.00  0.00    -0.023 C 
HETATM   13  C   UNK N   1      35.828  11.023  18.895  0.00  0.00    -0.072 C 
HETATM   14  C   UNK N   1      36.751  10.464  19.946  0.00  0.00     0.067 C 
HETATM   15  C   UNK N   1      36.500  13.810  15.212  0.00  0.00     0.038 C 
HETATM   16  C   UNK N   1      35.761  13.496  13.933  0.00  0.00     0.131 C 
HETATM   17  C   UNK N   1      36.550  12.358  13.474  0.00  0.00     0.032 C 
HETATM   18  C   UNK N   1      35.875  12.119  12.191  0.00  0.00     0.051 C 
HETATM   19  C   UNK N   1      35.837  13.590  11.712  0.00  0.00     0.168 C 
HETATM   20  O   UNK N   1      35.769  14.414  12.876  0.00  0.00    -0.349 OA
HETATM   21  C   UNK N   1      34.560  13.766  10.858  0.00  0.00     0.069 C 
HETATM   22  C   UNK N   1      34.891  13.480   9.401  0.00  0.00     0.011 C 
HETATM   23  C   UNK N   1      35.979  14.446   8.923  0.00  0.00     0.005 C 
HETATM   24  C   UNK N   1      36.837  14.938  10.099  0.00  0.00     0.175 C 
HETATM   25  O   UNK N   1      37.049  13.889  11.016  0.00  0.00    -0.354 OA
HETATM   26  C   UNK N   1      36.846  13.747   7.896  0.00  0.00     0.012 C 
HETATM   27  C   UNK N   1      36.627  11.160  11.279  0.00  0.00     0.016 C 
HETATM   28  C   UNK N   1      38.127  10.987  14.689  0.00  0.00     0.016 C 
HETATM   29  C   UNK N   1      34.185   9.178  18.339  0.00  0.00     0.020 C 
ENDROOT
BRANCH   1  30
HETATM   30  O   UNK N   1      35.780   8.327  20.334  0.00  0.00    -0.316 OA
BRANCH  30  31
HETATM   31  C   UNK N   1      35.529   8.176  21.658  0.00  0.00     0.259 C 
HETATM   32  O   UNK N   1      36.446   7.892  22.412  0.00  0.00    -0.265 OA
BRANCH  31  33
HETATM   33  C   UNK N   1      34.145   8.365  22.208  0.00  0.00     0.111 C 
BRANCH  33  34
HETATM   34  C   UNK N   1      33.603   9.754  21.915  0.00  0.00     0.010 C 
BRANCH  34  35
HETATM   35  C   UNK N   1      32.170   9.689  21.437  0.00  0.00     0.000 C 
BRANCH  35  36
HETATM   36  C   UNK N   1      31.778   8.238  21.274  0.00  0.00    -0.005 C 
HETATM   37  C   UNK N   1      30.832   8.111  20.101  0.00  0.00     0.005 C 
ENDBRANCH  35  36
ENDBRANCH  34  35
ENDBRANCH  33  34
ENDBRANCH  31  33
ENDBRANCH  30  31
ENDBRANCH   1  30
TORSDOF 6
ENDMDL
MODEL 2
REMARK VINA RESULT:      -8.4      3.461      7.169
REMARK  6 active torsions:
REMARK  status: ('A' for Active; 'I' for Inactive)
REMARK    1  A    between atoms: C_2  and  C_3 
REMARK    2  A    between atoms: C_3  and  C_4 
REMARK    3  A    between atoms: C_4  and  C_5 
REMARK    4  A    between atoms: C_5  and  C_6 
REMARK    5  A    between atoms: C_6  and  O_8 
REMARK    6  A    between atoms: C_9  and  O_8 
ROOT
HETATM    1  C   UNK N   1      36.525  11.018  13.228  0.00  0.00     0.136 C 
HETATM    2  C   UNK N   1      35.123  11.239  12.633  0.00  0.00     0.034 C 
HETATM    3  C   UNK N   1      34.973  12.479  11.723  0.00  0.00     0.016 C 
HETATM    4  C   UNK N   1      36.119  13.501  11.815  0.00  0.00    -0.017 C 
HETATM    5  C   UNK N   1      35.956  14.708  10.844  0.00  0.00     0.003 C 
HETATM    6  C   UNK N   1      34.541  15.233  10.599  0.00  0.00     0.007 C 
HETATM    7  C   UNK N   1      33.727  14.235   9.775  0.00  0.00     0.010 C 
HETATM    8  C   UNK N   1      34.434  13.635   8.539  0.00  0.00    -0.033 C 
HETATM    9  C   UNK N   1      35.996  13.531   8.584  0.00  0.00     0.001 C 
HETATM   10  C   UNK N   1      36.652  14.568   9.513  0.00  0.00    -0.001 C 
HETATM   11  C   UNK N   1      38.126  14.286   9.763  0.00  0.00     0.033 C 
HETATM   12  C   UNK N   1      38.289  13.053  10.598  0.00  0.00    -0.023 C 
HETATM   13  C   UNK N   1      37.408  12.705  11.551  0.00  0.00    -0.072 C 
HETATM   14  C   UNK N   1      37.624  11.372  12.218  0.00  0.00     0.067 C 
HETATM   15  C   UNK N   1      36.425  13.957   7.164  0.00  0.00     0.038 C 
HETATM   16  C   UNK N   1      35.434  15.075   6.944  0.00  0.00     0.131 C 
HETATM   17  C   UNK N   1      34.197  14.358   7.233  0.00  0.00     0.032 C 
HETATM   18  C   UNK N   1      33.240  15.432   6.931  0.00  0.00     0.051 C 
HETATM   19  C   UNK N   1      33.865  15.881   5.590  0.00  0.00     0.168 C 
HETATM   20  O   UNK N   1      35.267  15.621   5.665  0.00  0.00    -0.349 OA
HETATM   21  C   UNK N   1      33.611  17.400   5.446  0.00  0.00     0.069 C 
HETATM   22  C   UNK N   1      32.297  17.619   4.711  0.00  0.00     0.011 C 
HETATM   23  C   UNK N   1      32.369  16.967   3.327  0.00  0.00     0.005 C 
HETATM   24  C   UNK N   1      33.378  15.809   3.314  0.00  0.00     0.175 C 
HETATM   25  O   UNK N   1      33.315  15.096   4.528  0.00  0.00    -0.354 OA
HETATM   26  C   UNK N   1      30.992  16.467   2.942  0.00  0.00     0.012 C 
HETATM   27  C   UNK N   1      31.798  14.951   6.846  0.00  0.00     0.016 C 
HETATM   28  C   UNK N   1      33.869  12.240   8.351  0.00  0.00     0.016 C 
HETATM   29  C   UNK N   1      36.116  14.125  13.202  0.00  0.00     0.020 C 
ENDROOT
BRANCH   1  30
HETATM   30  O   UNK N   1      36.695  11.770  14.372  0.00  0.00    -0.316 OA
BRANCH  30  31
HETATM   31  C   UNK N   1      36.365  11.315  15.605  0.00  0.00     0.259 C 
HETATM   32  O   UNK N   1      37.032  10.427  16.114  0.00  0.00    -0.265 OA
BRANCH  31  33
HETATM   33  C   UNK N   1      35.201  11.894  16.357  0.00  0.00     0.111 C 
BRANCH  33  34
HETATM   34  C   UNK N   1      35.407  13.365  16.675  0.00  0.00     0.010 C 
BRANCH  34  35
HETATM   35  C   UNK N   1      35.183  13.640  18.145  0.00  0.00     0.000 C 
BRANCH  35  36
HETATM   36  C   UNK N   1      35.288  12.337  18.904  0.00  0.00    -0.005 C 
HETATM   37  C   UNK N   1      34.797  12.550  20.318  0.00  0.00     0.005 C 
ENDBRANCH  35  36
ENDBRANCH  34  35
ENDBRANCH  33  34
ENDBRANCH  31  33
ENDBRANCH  30  31
ENDBRANCH   1  30
TORSDOF 6
ENDMDL
MODEL 3
REMARK VINA RESULT:      -8.1      2.760      4.924
REMARK  6 active torsions:
REMARK  status: ('A' for Active; 'I' for Inactive)
REMARK    1  A    between atoms: C_2  and  C_3 
REMARK    2  A    between atoms: C_3  and  C_4 
REMARK    3  A    between atoms: C_4  and  C_5 
REMARK    4  A    between atoms: C_5  and  C_6 
REMARK    5  A    between atoms: C_6  and  O_8 
REMARK    6  A    between atoms: C_9  and  O_8 
ROOT
HETATM    1  C   UNK N   1      38.398   9.485  14.086  0.00  0.00     0.136 C 
HETATM    2  C   UNK N   1      38.059   9.485  12.585  0.00  0.00     0.034 C 
HETATM    3  C   UNK N   1      36.899  10.416  12.163  0.00  0.00     0.016 C 
HETATM    4  C   UNK N   1      36.025  10.935  13.318  0.00  0.00    -0.017 C 
HETATM    5  C   UNK N   1      34.901  11.911  12.857  0.00  0.00     0.003 C 
HETATM    6  C   UNK N   1      34.228  11.630  11.514  0.00  0.00     0.007 C 
HETATM    7  C   UNK N   1      35.188  11.911  10.358  0.00  0.00     0.010 C 
HETATM    8  C   UNK N   1      35.983  13.233  10.437  0.00  0.00    -0.033 C 
HETATM    9  C   UNK N   1      36.277  13.811  11.862  0.00  0.00     0.001 C 
HETATM   10  C   UNK N   1      35.250  13.377  12.922  0.00  0.00    -0.001 C 
HETATM   11  C   UNK N   1      35.690  13.710  14.341  0.00  0.00     0.033 C 
HETATM   12  C   UNK N   1      36.852  12.853  14.743  0.00  0.00    -0.023 C 
HETATM   13  C   UNK N   1      36.998  11.588  14.315  0.00  0.00    -0.072 C 
HETATM   14  C   UNK N   1      38.280  10.890  14.687  0.00  0.00     0.067 C 
HETATM   15  C   UNK N   1      36.041  15.327  11.691  0.00  0.00     0.038 C 
HETATM   16  C   UNK N   1      34.833  15.277  10.787  0.00  0.00     0.131 C 
HETATM   17  C   UNK N   1      35.359  14.417   9.732  0.00  0.00     0.032 C 
HETATM   18  C   UNK N   1      34.206  14.448   8.821  0.00  0.00     0.051 C 
HETATM   19  C   UNK N   1      33.964  15.975   8.862  0.00  0.00     0.168 C 
HETATM   20  O   UNK N   1      34.390  16.439  10.144  0.00  0.00    -0.349 OA
HETATM   21  C   UNK N   1      32.445  16.208   8.689  0.00  0.00     0.069 C 
HETATM   22  C   UNK N   1      32.132  16.371   7.209  0.00  0.00     0.011 C 
HETATM   23  C   UNK N   1      32.913  17.563   6.647  0.00  0.00     0.005 C 
HETATM   24  C   UNK N   1      34.185  17.827   7.468  0.00  0.00     0.175 C 
HETATM   25  O   UNK N   1      34.768  16.606   7.863  0.00  0.00    -0.354 OA
HETATM   26  C   UNK N   1      33.268  17.286   5.201  0.00  0.00     0.012 C 
HETATM   27  C   UNK N   1      34.508  13.876   7.443  0.00  0.00     0.016 C 
HETATM   28  C   UNK N   1      37.307  12.986   9.740  0.00  0.00     0.016 C 
HETATM   29  C   UNK N   1      35.281   9.764  13.941  0.00  0.00     0.020 C 
ENDROOT
BRANCH   1  30
HETATM   30  O   UNK N   1      37.572   8.621  14.773  0.00  0.00    -0.316 OA
BRANCH  30  31
HETATM   31  C   UNK N   1      37.808   8.239  16.052  0.00  0.00     0.259 C 
HETATM   32  O   UNK N   1      38.925   7.857  16.366  0.00  0.00    -0.265 OA
BRANCH  31  33
HETATM   33  C   UNK N   1      36.723   8.292  17.088  0.00  0.00     0.111 C 
BRANCH  33  34
HETATM   34  C   UNK N   1      36.610   9.668  17.722  0.00  0.00     0.010 C 
BRANCH  34  35
HETATM   35  C   UNK N   1      35.239  10.263  17.489  0.00  0.00     0.000 C 
BRANCH  35  36
HETATM   36  C   UNK N   1      35.313  11.755  17.721  0.00  0.00    -0.005 C 
HETATM   37  C   UNK N   1      35.316  12.023  19.209  0.00  0.00     0.005 C 
ENDBRANCH  35  36
ENDBRANCH  34  35
ENDBRANCH  33  34
ENDBRANCH  31  33
ENDBRANCH  30  31
ENDBRANCH   1  30
TORSDOF 6
ENDMDL
MODEL 4
REMARK VINA RESULT:      -8.0     23.062     26.283
REMARK  6 active torsions:
REMARK  status: ('A' for Active; 'I' for Inactive)
REMARK    1  A    between atoms: C_2  and  C_3 
REMARK    2  A    between atoms: C_3  and  C_4 
REMARK    3  A    between atoms: C_4  and  C_5 
REMARK    4  A    between atoms: C_5  and  C_6 
REMARK    5  A    between atoms: C_6  and  O_8 
REMARK    6  A    between atoms: C_9  and  O_8 
ROOT
HETATM    1  C   UNK N   1      26.552  24.771  -3.950  0.00  0.00     0.136 C 
HETATM    2  C   UNK N   1      26.930  24.401  -5.395  0.00  0.00     0.034 C 
HETATM    3  C   UNK N   1      28.412  24.020  -5.619  0.00  0.00     0.016 C 
HETATM    4  C   UNK N   1      29.365  24.397  -4.473  0.00  0.00    -0.017 C 
HETATM    5  C   UNK N   1      30.838  23.949  -4.715  0.00  0.00     0.003 C 
HETATM    6  C   UNK N   1      31.370  24.016  -6.145  0.00  0.00     0.007 C 
HETATM    7  C   UNK N   1      30.717  22.944  -7.018  0.00  0.00     0.010 C 
HETATM    8  C   UNK N   1      30.630  21.527  -6.408  0.00  0.00    -0.033 C 
HETATM    9  C   UNK N   1      30.567  21.419  -4.847  0.00  0.00     0.001 C 
HETATM   10  C   UNK N   1      31.213  22.614  -4.124  0.00  0.00    -0.001 C 
HETATM   11  C   UNK N   1      30.907  22.637  -2.634  0.00  0.00     0.033 C 
HETATM   12  C   UNK N   1      29.460  22.950  -2.402  0.00  0.00    -0.023 C 
HETATM   13  C   UNK N   1      28.761  23.769  -3.205  0.00  0.00    -0.072 C 
HETATM   14  C   UNK N   1      27.283  23.885  -2.934  0.00  0.00     0.067 C 
HETATM   15  C   UNK N   1      31.494  20.226  -4.532  0.00  0.00     0.038 C 
HETATM   16  C   UNK N   1      32.583  20.501  -5.540  0.00  0.00     0.131 C 
HETATM   17  C   UNK N   1      31.772  20.596  -6.749  0.00  0.00     0.032 C 
HETATM   18  C   UNK N   1      32.851  20.777  -7.730  0.00  0.00     0.051 C 
HETATM   19  C   UNK N   1      33.778  19.652  -7.213  0.00  0.00     0.168 C 
HETATM   20  O   UNK N   1      33.552  19.527  -5.808  0.00  0.00    -0.349 OA
HETATM   21  C   UNK N   1      35.236  20.093  -7.481  0.00  0.00     0.069 C 
HETATM   22  C   UNK N   1      35.667  19.584  -8.849  0.00  0.00     0.011 C 
HETATM   23  C   UNK N   1      35.566  18.057  -8.884  0.00  0.00     0.005 C 
HETATM   24  C   UNK N   1      34.525  17.548  -7.875  0.00  0.00     0.175 C 
HETATM   25  O   UNK N   1      33.417  18.419  -7.841  0.00  0.00    -0.354 OA
HETATM   26  C   UNK N   1      35.198  17.615 -10.285  0.00  0.00     0.012 C 
HETATM   27  C   UNK N   1      32.390  20.626  -9.172  0.00  0.00     0.016 C 
HETATM   28  C   UNK N   1      29.384  20.883  -6.982  0.00  0.00     0.016 C 
HETATM   29  C   UNK N   1      29.441  25.913  -4.369  0.00  0.00     0.020 C 
ENDROOT
BRANCH   1  30
HETATM   30  O   UNK N   1      26.840  26.096  -3.694  0.00  0.00    -0.316 OA
BRANCH  30  31
HETATM   31  C   UNK N   1      25.921  27.085  -3.816  0.00  0.00     0.259 C 
HETATM   32  O   UNK N   1      25.517  27.653  -2.813  0.00  0.00    -0.265 OA
BRANCH  31  33
HETATM   33  C   UNK N   1      25.403  27.496  -5.164  0.00  0.00     0.111 C 
BRANCH  33  34
HETATM   34  C   UNK N   1      26.530  27.829  -6.126  0.00  0.00     0.010 C 
BRANCH  34  35
HETATM   35  C   UNK N   1      27.346  29.000  -5.626  0.00  0.00     0.000 C 
BRANCH  35  36
HETATM   36  C   UNK N   1      28.451  29.281  -6.619  0.00  0.00    -0.005 C 
HETATM   37  C   UNK N   1      28.372  28.273  -7.742  0.00  0.00     0.005 C 
ENDBRANCH  35  36
ENDBRANCH  34  35
ENDBRANCH  33  34
ENDBRANCH  31  33
ENDBRANCH  30  31
ENDBRANCH   1  30
TORSDOF 6
ENDMDL
MODEL 5
REMARK VINA RESULT:      -7.9      1.772      9.942
REMARK  6 active torsions:
REMARK  status: ('A' for Active; 'I' for Inactive)
REMARK    1  A    between atoms: C_2  and  C_3 
REMARK    2  A    between atoms: C_3  and  C_4 
REMARK    3  A    between atoms: C_4  and  C_5 
REMARK    4  A    between atoms: C_5  and  C_6 
REMARK    5  A    between atoms: C_6  and  O_8 
REMARK    6  A    between atoms: C_9  and  O_8 
ROOT
HETATM    1  C   UNK N   1      35.214  13.220  10.099  0.00  0.00     0.136 C 
HETATM    2  C   UNK N   1      34.900  11.852  10.731  0.00  0.00     0.034 C 
HETATM    3  C   UNK N   1      35.534  11.597  12.117  0.00  0.00     0.016 C 
HETATM    4  C   UNK N   1      36.656  12.572  12.512  0.00  0.00    -0.017 C 
HETATM    5  C   UNK N   1      37.232  12.314  13.937  0.00  0.00     0.003 C 
HETATM    6  C   UNK N   1      37.342  10.863  14.402  0.00  0.00     0.007 C 
HETATM    7  C   UNK N   1      35.958  10.270  14.664  0.00  0.00     0.010 C 
HETATM    8  C   UNK N   1      34.980  11.153  15.472  0.00  0.00    -0.033 C 
HETATM    9  C   UNK N   1      35.169  12.705  15.380  0.00  0.00     0.001 C 
HETATM   10  C   UNK N   1      36.610  13.127  15.044  0.00  0.00    -0.001 C 
HETATM   11  C   UNK N   1      36.724  14.602  14.688  0.00  0.00     0.033 C 
HETATM   12  C   UNK N   1      36.063  14.875  13.371  0.00  0.00    -0.023 C 
HETATM   13  C   UNK N   1      36.054  13.980  12.368  0.00  0.00    -0.072 C 
HETATM   14  C   UNK N   1      35.237  14.332  11.153  0.00  0.00     0.067 C 
HETATM   15  C   UNK N   1      34.954  13.179  16.833  0.00  0.00     0.038 C 
HETATM   16  C   UNK N   1      35.662  12.058  17.554  0.00  0.00     0.131 C 
HETATM   17  C   UNK N   1      34.967  10.919  16.966  0.00  0.00     0.032 C 
HETATM   18  C   UNK N   1      35.604   9.843  17.738  0.00  0.00     0.051 C 
HETATM   19  C   UNK N   1      35.479  10.501  19.132  0.00  0.00     0.168 C 
HETATM   20  O   UNK N   1      35.519  11.916  18.940  0.00  0.00    -0.349 OA
HETATM   21  C   UNK N   1      36.694  10.043  19.973  0.00  0.00     0.069 C 
HETATM   22  C   UNK N   1      36.327   8.774  20.728  0.00  0.00     0.011 C 
HETATM   23  C   UNK N   1      35.131   9.050  21.643  0.00  0.00     0.005 C 
HETATM   24  C   UNK N   1      34.283  10.214  21.109  0.00  0.00     0.175 C 
HETATM   25  O   UNK N   1      34.214  10.158  19.703  0.00  0.00    -0.354 OA
HETATM   26  C   UNK N   1      34.291   7.795  21.753  0.00  0.00     0.012 C 
HETATM   27  C   UNK N   1      34.908   8.497  17.592  0.00  0.00     0.016 C 
HETATM   28  C   UNK N   1      33.585  10.812  14.985  0.00  0.00     0.016 C 
HETATM   29  C   UNK N   1      37.841  12.369  11.581  0.00  0.00     0.020 C 
ENDROOT
BRANCH   1  30
HETATM   30  O   UNK N   1      36.427  13.186   9.441  0.00  0.00    -0.316 OA
BRANCH  30  31
HETATM   31  C   UNK N   1      36.575  13.587   8.154  0.00  0.00     0.259 C 
HETATM   32  O   UNK N   1      37.697  13.787   7.715  0.00  0.00    -0.265 OA
BRANCH  31  33
HETATM   33  C   UNK N   1      35.383  13.775   7.261  0.00  0.00     0.111 C 
BRANCH  33  34
HETATM   34  C   UNK N   1      35.235  15.217   6.809  0.00  0.00     0.010 C 
BRANCH  34  35
HETATM   35  C   UNK N   1      34.082  15.893   7.516  0.00  0.00     0.000 C 
BRANCH  35  36
HETATM   36  C   UNK N   1      33.842  17.241   6.873  0.00  0.00    -0.005 C 
HETATM   37  C   UNK N   1      33.908  18.312   7.938  0.00  0.00     0.005 C 
ENDBRANCH  35  36
ENDBRANCH  34  35
ENDBRANCH  33  34
ENDBRANCH  31  33
ENDBRANCH  30  31
ENDBRANCH   1  30
TORSDOF 6
ENDMDL
MODEL 6
REMARK VINA RESULT:      -7.7      8.468     13.131
REMARK  6 active torsions:
REMARK  status: ('A' for Active; 'I' for Inactive)
REMARK    1  A    between atoms: C_2  and  C_3 
REMARK    2  A    between atoms: C_3  and  C_4 
REMARK    3  A    between atoms: C_4  and  C_5 
REMARK    4  A    between atoms: C_5  and  C_6 
REMARK    5  A    between atoms: C_6  and  O_8 
REMARK    6  A    between atoms: C_9  and  O_8 
ROOT
HETATM    1  C   UNK N   1      29.025  16.328   5.808  0.00  0.00     0.136 C 
HETATM    2  C   UNK N   1      29.837  15.091   5.382  0.00  0.00     0.034 C 
HETATM    3  C   UNK N   1      31.365  15.193   5.592  0.00  0.00     0.016 C 
HETATM    4  C   UNK N   1      31.896  16.612   5.857  0.00  0.00    -0.017 C 
HETATM    5  C   UNK N   1      33.432  16.665   6.115  0.00  0.00     0.003 C 
HETATM    6  C   UNK N   1      34.315  15.702   5.322  0.00  0.00     0.007 C 
HETATM    7  C   UNK N   1      34.108  14.263   5.793  0.00  0.00     0.010 C 
HETATM    8  C   UNK N   1      34.092  14.041   7.323  0.00  0.00    -0.033 C 
HETATM    9  C   UNK N   1      33.626  15.239   8.217  0.00  0.00     0.001 C 
HETATM   10  C   UNK N   1      33.847  16.614   7.564  0.00  0.00    -0.001 C 
HETATM   11  C   UNK N   1      33.147  17.741   8.310  0.00  0.00     0.033 C 
HETATM   12  C   UNK N   1      31.661  17.622   8.162  0.00  0.00    -0.023 C 
HETATM   13  C   UNK N   1      31.082  17.146   7.048  0.00  0.00    -0.072 C 
HETATM   14  C   UNK N   1      29.588  16.954   7.088  0.00  0.00     0.067 C 
HETATM   15  C   UNK N   1      34.615  15.209   9.402  0.00  0.00     0.038 C 
HETATM   16  C   UNK N   1      35.877  14.868   8.647  0.00  0.00     0.131 C 
HETATM   17  C   UNK N   1      35.421  13.673   7.945  0.00  0.00     0.032 C 
HETATM   18  C   UNK N   1      36.681  13.306   7.284  0.00  0.00     0.051 C 
HETATM   19  C   UNK N   1      37.604  13.473   8.514  0.00  0.00     0.168 C 
HETATM   20  O   UNK N   1      37.029  14.483   9.344  0.00  0.00    -0.349 OA
HETATM   21  C   UNK N   1      38.987  13.931   7.996  0.00  0.00     0.069 C 
HETATM   22  C   UNK N   1      39.850  12.707   7.729  0.00  0.00     0.011 C 
HETATM   23  C   UNK N   1      40.015  11.903   9.022  0.00  0.00     0.005 C 
HETATM   24  C   UNK N   1      38.837  12.146   9.978  0.00  0.00     0.175 C 
HETATM   25  O   UNK N   1      37.634  12.247   9.249  0.00  0.00    -0.354 OA
HETATM   26  C   UNK N   1      40.119  10.432   8.681  0.00  0.00     0.012 C 
HETATM   27  C   UNK N   1      36.661  11.912   6.673  0.00  0.00     0.016 C 
HETATM   28  C   UNK N   1      33.172  12.865   7.582  0.00  0.00     0.016 C 
HETATM   29  C   UNK N   1      31.691  17.459   4.610  0.00  0.00     0.020 C 
ENDROOT
BRANCH   1  30
HETATM   30  O   UNK N   1      29.012  17.272   4.802  0.00  0.00    -0.316 OA
BRANCH  30  31
HETATM   31  C   UNK N   1      27.918  17.519   4.040  0.00  0.00     0.259 C 
HETATM   32  O   UNK N   1      27.594  16.713   3.181  0.00  0.00    -0.265 OA
BRANCH  31  33
HETATM   33  C   UNK N   1      27.096  18.758   4.246  0.00  0.00     0.111 C 
BRANCH  33  34
HETATM   34  C   UNK N   1      27.949  19.940   4.672  0.00  0.00     0.010 C 
BRANCH  34  35
HETATM   35  C   UNK N   1      27.759  20.248   6.140  0.00  0.00     0.000 C 
BRANCH  35  36
HETATM   36  C   UNK N   1      27.125  21.614   6.271  0.00  0.00    -0.005 C 
HETATM   37  C   UNK N   1      26.086  21.571   7.369  0.00  0.00     0.005 C 
ENDBRANCH  35  36
ENDBRANCH  34  35
ENDBRANCH  33  34
ENDBRANCH  31  33
ENDBRANCH  30  31
ENDBRANCH   1  30
TORSDOF 6
ENDMDL
MODEL 7
REMARK VINA RESULT:      -7.6      1.963      9.927
REMARK  6 active torsions:
REMARK  status: ('A' for Active; 'I' for Inactive)
REMARK    1  A    between atoms: C_2  and  C_3 
REMARK    2  A    between atoms: C_3  and  C_4 
REMARK    3  A    between atoms: C_4  and  C_5 
REMARK    4  A    between atoms: C_5  and  C_6 
REMARK    5  A    between atoms: C_6  and  O_8 
REMARK    6  A    between atoms: C_9  and  O_8 
ROOT
HETATM    1  C   UNK N   1      35.277  13.201  10.063  0.00  0.00     0.136 C 
HETATM    2  C   UNK N   1      34.966  11.832  10.695  0.00  0.00     0.034 C 
HETATM    3  C   UNK N   1      35.590  11.585  12.088  0.00  0.00     0.016 C 
HETATM    4  C   UNK N   1      36.700  12.569  12.492  0.00  0.00    -0.017 C 
HETATM    5  C   UNK N   1      37.265  12.319  13.923  0.00  0.00     0.003 C 
HETATM    6  C   UNK N   1      37.381  10.869  14.393  0.00  0.00     0.007 C 
HETATM    7  C   UNK N   1      35.998  10.268  14.642  0.00  0.00     0.010 C 
HETATM    8  C   UNK N   1      35.006  11.145  15.439  0.00  0.00    -0.033 C 
HETATM    9  C   UNK N   1      35.185  12.698  15.345  0.00  0.00     0.001 C 
HETATM   10  C   UNK N   1      36.626  13.130  15.022  0.00  0.00    -0.001 C 
HETATM   11  C   UNK N   1      36.732  14.605  14.663  0.00  0.00     0.033 C 
HETATM   12  C   UNK N   1      36.082  14.870  13.339  0.00  0.00    -0.023 C 
HETATM   13  C   UNK N   1      36.089  13.973  12.339  0.00  0.00    -0.072 C 
HETATM   14  C   UNK N   1      35.281  14.316  11.115  0.00  0.00     0.067 C 
HETATM   15  C   UNK N   1      34.952  13.174  16.795  0.00  0.00     0.038 C 
HETATM   16  C   UNK N   1      35.661  12.060  17.525  0.00  0.00     0.131 C 
HETATM   17  C   UNK N   1      34.980  10.914  16.933  0.00  0.00     0.032 C 
HETATM   18  C   UNK N   1      35.618   9.845  17.714  0.00  0.00     0.051 C 
HETATM   19  C   UNK N   1      35.475  10.506  19.105  0.00  0.00     0.168 C 
HETATM   20  O   UNK N   1      35.506  11.920  18.910  0.00  0.00    -0.349 OA
HETATM   21  C   UNK N   1      36.685  10.058  19.958  0.00  0.00     0.069 C 
HETATM   22  C   UNK N   1      36.320   8.788  20.713  0.00  0.00     0.011 C 
HETATM   23  C   UNK N   1      35.113   9.057  21.616  0.00  0.00     0.005 C 
HETATM   24  C   UNK N   1      34.262  10.214  21.072  0.00  0.00     0.175 C 
HETATM   25  O   UNK N   1      34.207  10.154  19.665  0.00  0.00    -0.354 OA
HETATM   26  C   UNK N   1      34.281   7.796  21.721  0.00  0.00     0.012 C 
HETATM   27  C   UNK N   1      34.934   8.494  17.565  0.00  0.00     0.016 C 
HETATM   28  C   UNK N   1      33.619  10.793  14.940  0.00  0.00     0.016 C 
HETATM   29  C   UNK N   1      37.896  12.372  11.572  0.00  0.00     0.020 C 
ENDROOT
BRANCH   1  30
HETATM   30  O   UNK N   1      36.496  13.175   9.417  0.00  0.00    -0.316 OA
BRANCH  30  31
HETATM   31  C   UNK N   1      36.694  13.738   8.200  0.00  0.00     0.259 C 
HETATM   32  O   UNK N   1      35.873  14.534   7.768  0.00  0.00    -0.265 OA
BRANCH  31  33
HETATM   33  C   UNK N   1      37.910  13.408   7.384  0.00  0.00     0.111 C 
BRANCH  33  34
HETATM   34  C   UNK N   1      39.152  13.273   8.247  0.00  0.00     0.010 C 
BRANCH  34  35
HETATM   35  C   UNK N   1      40.167  12.357   7.601  0.00  0.00     0.000 C 
BRANCH  35  36
HETATM   36  C   UNK N   1      40.921  11.624   8.688  0.00  0.00    -0.005 C 
HETATM   37  C   UNK N   1      42.385  11.562   8.315  0.00  0.00     0.005 C 
ENDBRANCH  35  36
ENDBRANCH  34  35
ENDBRANCH  33  34
ENDBRANCH  31  33
ENDBRANCH  30  31
ENDBRANCH   1  30
TORSDOF 6
ENDMDL
MODEL 8
REMARK VINA RESULT:      -7.3     22.626     25.841
REMARK  6 active torsions:
REMARK  status: ('A' for Active; 'I' for Inactive)
REMARK    1  A    between atoms: C_2  and  C_3 
REMARK    2  A    between atoms: C_3  and  C_4 
REMARK    3  A    between atoms: C_4  and  C_5 
REMARK    4  A    between atoms: C_5  and  C_6 
REMARK    5  A    between atoms: C_6  and  O_8 
REMARK    6  A    between atoms: C_9  and  O_8 
ROOT
HETATM    1  C   UNK N   1      26.433  25.230  -5.030  0.00  0.00     0.136 C 
HETATM    2  C   UNK N   1      27.432  24.935  -6.163  0.00  0.00     0.034 C 
HETATM    3  C   UNK N   1      28.857  24.542  -5.710  0.00  0.00     0.016 C 
HETATM    4  C   UNK N   1      29.178  24.837  -4.235  0.00  0.00    -0.017 C 
HETATM    5  C   UNK N   1      30.604  24.378  -3.805  0.00  0.00     0.003 C 
HETATM    6  C   UNK N   1      31.729  24.516  -4.829  0.00  0.00     0.007 C 
HETATM    7  C   UNK N   1      31.557  23.507  -5.964  0.00  0.00     0.010 C 
HETATM    8  C   UNK N   1      31.216  22.059  -5.544  0.00  0.00    -0.033 C 
HETATM    9  C   UNK N   1      30.449  21.865  -4.192  0.00  0.00     0.001 C 
HETATM   10  C   UNK N   1      30.683  23.005  -3.186  0.00  0.00    -0.001 C 
HETATM   11  C   UNK N   1      29.730  22.950  -2.001  0.00  0.00     0.033 C 
HETATM   12  C   UNK N   1      28.333  23.274  -2.437  0.00  0.00    -0.023 C 
HETATM   13  C   UNK N   1      28.069  24.149  -3.421  0.00  0.00    -0.072 C 
HETATM   14  C   UNK N   1      26.630  24.276  -3.847  0.00  0.00     0.067 C 
HETATM   15  C   UNK N   1      31.143  20.640  -3.559  0.00  0.00     0.038 C 
HETATM   16  C   UNK N   1      32.569  20.953  -3.942  0.00  0.00     0.131 C 
HETATM   17  C   UNK N   1      32.397  21.130  -5.380  0.00  0.00     0.032 C 
HETATM   18  C   UNK N   1      33.803  21.347  -5.749  0.00  0.00     0.051 C 
HETATM   19  C   UNK N   1      34.404  20.178  -4.932  0.00  0.00     0.168 C 
HETATM   20  O   UNK N   1      33.564  19.978  -3.795  0.00  0.00    -0.349 OA
HETATM   21  C   UNK N   1      35.819  20.608  -4.481  0.00  0.00     0.069 C 
HETATM   22  C   UNK N   1      36.831  20.170  -5.529  0.00  0.00     0.011 C 
HETATM   23  C   UNK N   1      36.773  18.649  -5.694  0.00  0.00     0.005 C 
HETATM   24  C   UNK N   1      35.391  18.103  -5.302  0.00  0.00     0.175 C 
HETATM   25  O   UNK N   1      34.382  18.990  -5.726  0.00  0.00    -0.354 OA
HETATM   26  C   UNK N   1      37.090  18.294  -7.132  0.00  0.00     0.012 C 
HETATM   27  C   UNK N   1      34.052  21.285  -7.249  0.00  0.00     0.016 C 
HETATM   28  C   UNK N   1      30.375  21.470  -6.659  0.00  0.00     0.016 C 
HETATM   29  C   UNK N   1      29.183  26.343  -4.020  0.00  0.00     0.020 C 
ENDROOT
BRANCH   1  30
HETATM   30  O   UNK N   1      26.559  26.533  -4.595  0.00  0.00    -0.316 OA
BRANCH  30  31
HETATM   31  C   UNK N   1      25.662  27.501  -4.906  0.00  0.00     0.259 C 
HETATM   32  O   UNK N   1      24.651  27.205  -5.523  0.00  0.00    -0.265 OA
BRANCH  31  33
HETATM   33  C   UNK N   1      25.890  28.926  -4.491  0.00  0.00     0.111 C 
BRANCH  33  34
HETATM   34  C   UNK N   1      27.151  29.503  -5.111  0.00  0.00     0.010 C 
BRANCH  34  35
HETATM   35  C   UNK N   1      27.458  30.872  -4.546  0.00  0.00     0.000 C 
BRANCH  35  36
HETATM   36  C   UNK N   1      26.722  31.033  -3.236  0.00  0.00    -0.005 C 
HETATM   37  C   UNK N   1      27.727  31.062  -2.106  0.00  0.00     0.005 C 
ENDBRANCH  35  36
ENDBRANCH  34  35
ENDBRANCH  33  34
ENDBRANCH  31  33
ENDBRANCH  30  31
ENDBRANCH   1  30
TORSDOF 6
ENDMDL
MODEL 9
REMARK VINA RESULT:      -7.2     11.566     15.900
REMARK  6 active torsions:
REMARK  status: ('A' for Active; 'I' for Inactive)
REMARK    1  A    between atoms: C_2  and  C_3 
REMARK    2  A    between atoms: C_3  and  C_4 
REMARK    3  A    between atoms: C_4  and  C_5 
REMARK    4  A    between atoms: C_5  and  C_6 
REMARK    5  A    between atoms: C_6  and  O_8 
REMARK    6  A    between atoms: C_9  and  O_8 
ROOT
HETATM    1  C   UNK N   1      31.032  16.841   7.810  0.00  0.00     0.136 C 
HETATM    2  C   UNK N   1      29.598  17.391   7.717  0.00  0.00     0.034 C 
HETATM    3  C   UNK N   1      28.834  17.046   6.419  0.00  0.00     0.016 C 
HETATM    4  C   UNK N   1      29.706  16.515   5.269  0.00  0.00    -0.017 C 
HETATM    5  C   UNK N   1      28.891  16.129   3.997  0.00  0.00     0.003 C 
HETATM    6  C   UNK N   1      27.680  16.991   3.644  0.00  0.00     0.007 C 
HETATM    7  C   UNK N   1      26.549  16.775   4.649  0.00  0.00     0.010 C 
HETATM    8  C   UNK N   1      26.233  15.307   5.015  0.00  0.00    -0.033 C 
HETATM    9  C   UNK N   1      27.404  14.273   4.912  0.00  0.00     0.001 C 
HETATM   10  C   UNK N   1      28.492  14.678   3.901  0.00  0.00    -0.001 C 
HETATM   11  C   UNK N   1      29.744  13.820   4.007  0.00  0.00     0.033 C 
HETATM   12  C   UNK N   1      30.466  14.104   5.289  0.00  0.00    -0.023 C 
HETATM   13  C   UNK N   1      30.485  15.324   5.852  0.00  0.00    -0.072 C 
HETATM   14  C   UNK N   1      31.132  15.435   7.207  0.00  0.00     0.067 C 
HETATM   15  C   UNK N   1      26.734  13.032   4.283  0.00  0.00     0.038 C 
HETATM   16  C   UNK N   1      25.833  13.728   3.292  0.00  0.00     0.131 C 
HETATM   17  C   UNK N   1      25.148  14.646   4.195  0.00  0.00     0.032 C 
HETATM   18  C   UNK N   1      24.216  15.253   3.233  0.00  0.00     0.051 C 
HETATM   19  C   UNK N   1      23.742  13.942   2.564  0.00  0.00     0.168 C 
HETATM   20  O   UNK N   1      24.822  13.011   2.640  0.00  0.00    -0.349 OA
HETATM   21  C   UNK N   1      23.420  14.266   1.086  0.00  0.00     0.069 C 
HETATM   22  C   UNK N   1      21.954  14.655   0.969  0.00  0.00     0.011 C 
HETATM   23  C   UNK N   1      21.076  13.499   1.455  0.00  0.00     0.005 C 
HETATM   24  C   UNK N   1      21.832  12.615   2.459  0.00  0.00     0.175 C 
HETATM   25  O   UNK N   1      22.635  13.413   3.298  0.00  0.00    -0.354 OA
HETATM   26  C   UNK N   1      19.822  14.062   2.090  0.00  0.00     0.012 C 
HETATM   27  C   UNK N   1      23.119  16.079   3.891  0.00  0.00     0.016 C 
HETATM   28  C   UNK N   1      25.728  15.315   6.444  0.00  0.00     0.016 C 
HETATM   29  C   UNK N   1      30.637  17.623   4.801  0.00  0.00     0.020 C 
ENDROOT
BRANCH   1  30
HETATM   30  O   UNK N   1      31.919  17.680   7.168  0.00  0.00    -0.316 OA
BRANCH  30  31
HETATM   31  C   UNK N   1      33.264  17.565   7.298  0.00  0.00     0.259 C 
HETATM   32  O   UNK N   1      33.777  17.751   8.391  0.00  0.00    -0.265 OA
BRANCH  31  33
HETATM   33  C   UNK N   1      34.126  17.202   6.124  0.00  0.00     0.111 C 
BRANCH  33  34
HETATM   34  C   UNK N   1      34.677  15.791   6.240  0.00  0.00     0.010 C 
BRANCH  34  35
HETATM   35  C   UNK N   1      34.214  14.930   5.086  0.00  0.00     0.000 C 
BRANCH  35  36
HETATM   36  C   UNK N   1      33.624  15.824   4.020  0.00  0.00    -0.005 C 
HETATM   37  C   UNK N   1      33.144  14.968   2.869  0.00  0.00     0.005 C 
ENDBRANCH  35  36
ENDBRANCH  34  35
ENDBRANCH  33  34
ENDBRANCH  31  33
ENDBRANCH  30  31
ENDBRANCH   1  30
TORSDOF 6
ENDMDL
