MODEL 1
REMARK VINA RESULT:      -6.7      0.000      0.000
REMARK  10 active torsions:
REMARK  status: ('A' for Active; 'I' for Inactive)
REMARK    1  A    between atoms: C_2  and  O_3 
REMARK    2  A    between atoms: O_3  and  C_4 
REMARK    3  A    between atoms: C_4  and  C_6 
REMARK    4  A    between atoms: C_6  and  O_7 
REMARK    5  A    between atoms: O_7  and  C_8 
REMARK    6  A    between atoms: C_15  and  N_18 
REMARK    7  A    between atoms: N_18  and  C_19 
REMARK    8  A    between atoms: C_19  and  C_20 
REMARK    9  A    between atoms: C_20  and  C_21 
REMARK   10  A    between atoms: C_20  and  O_28 
ROOT
HETATM    1  C   UNK N   1      28.324  23.777  -4.644  0.00  0.00     0.070 A 
HETATM    2  C   UNK N   1      27.477  23.463  -5.713  0.00  0.00     0.037 A 
HETATM    3  C   UNK N   1      26.403  24.303  -6.032  0.00  0.00     0.010 A 
HETATM    4  C   UNK N   1      26.169  25.464  -5.286  0.00  0.00    -0.051 A 
HETATM    5  C   UNK N   1      27.019  25.782  -4.206  0.00  0.00    -0.047 A 
HETATM    6  C   UNK N   1      28.086  24.941  -3.897  0.00  0.00     0.044 A 
HETATM    7  C   UNK N   1      26.835  27.025  -3.384  0.00  0.00     0.063 C 
HETATM    8  C   UNK N   1      25.576  27.831  -3.706  0.00  0.00     0.081 C 
HETATM    9  C   UNK N   1      25.261  27.789  -5.198  0.00  0.00     0.029 C 
HETATM   10  C   UNK N   1      25.022  26.355  -5.654  0.00  0.00     0.041 C 
ENDROOT
BRANCH   8  11
HETATM   11  N   UNK N   1      25.828  29.210  -3.334  0.00  0.00    -0.414 N 
HETATM   12  H   UNK N   1      25.128  29.952  -3.316  0.00  0.00     0.153 HD
BRANCH  11  13
HETATM   13  C   UNK N   1      27.231  29.373  -2.994  0.00  0.00     0.150 C 
BRANCH  13  14
HETATM   14  C   UNK N   1      27.879  30.186  -4.103  0.00  0.00     0.168 C 
BRANCH  14  15
HETATM   15  C   UNK N   1      28.517  29.308  -5.152  0.00  0.00    -0.026 A 
HETATM   16  C   UNK N   1      28.029  29.290  -6.468  0.00  0.00     0.010 A 
HETATM   17  C   UNK N   1      28.637  28.484  -7.435  0.00  0.00     0.002 A 
HETATM   18  C   UNK N   1      29.722  27.674  -7.088  0.00  0.00     0.024 A 
HETATM   19  C   UNK N   1      30.211  27.682  -5.780  0.00  0.00     0.034 A 
HETATM   20  C   UNK N   1      29.618  28.504  -4.819  0.00  0.00     0.033 A 
HETATM   21 Cl   UNK N   1      31.545  26.642  -5.334  0.00  0.00    -0.084 Cl
ENDBRANCH  14  15
BRANCH  14  22
HETATM   22  O   UNK N   1      26.944  31.060  -4.664  0.00  0.00    -0.389 OA
HETATM   23  H   UNK N   1      26.478  31.746  -4.161  0.00  0.00     0.210 HD
ENDBRANCH  14  22
ENDBRANCH  13  14
ENDBRANCH  11  13
ENDBRANCH   8  11
BRANCH   1  24
HETATM   24  O   UNK N   1      29.357  22.954  -4.346  0.00  0.00    -0.342 OA
BRANCH  24  25
HETATM   25  C   UNK N   1      30.521  23.417  -3.766  0.00  0.00     0.286 C 
BRANCH  25  26
HETATM   26  C   UNK N   1      30.880  22.625  -2.553  0.00  0.00     0.283 C 
HETATM   27  O   UNK N   1      30.507  23.018  -1.456  0.00  0.00    -0.263 OA
BRANCH  26  28
HETATM   28  O   UNK N   1      31.610  21.489  -2.668  0.00  0.00    -0.320 OA
BRANCH  28  29
HETATM   29  C   UNK N   1      32.519  21.300  -3.683  0.00  0.00     0.174 C 
HETATM   30  C   UNK N   1      33.805  20.745  -3.112  0.00  0.00     0.034 C 
ENDBRANCH  28  29
ENDBRANCH  26  28
ENDBRANCH  25  26
ENDBRANCH  24  25
ENDBRANCH   1  24
TORSDOF 10
ENDMDL
MODEL 2
REMARK VINA RESULT:      -6.6     13.940     17.549
REMARK  10 active torsions:
REMARK  status: ('A' for Active; 'I' for Inactive)
REMARK    1  A    between atoms: C_2  and  O_3 
REMARK    2  A    between atoms: O_3  and  C_4 
REMARK    3  A    between atoms: C_4  and  C_6 
REMARK    4  A    between atoms: C_6  and  O_7 
REMARK    5  A    between atoms: O_7  and  C_8 
REMARK    6  A    between atoms: C_15  and  N_18 
REMARK    7  A    between atoms: N_18  and  C_19 
REMARK    8  A    between atoms: C_19  and  C_20 
REMARK    9  A    between atoms: C_20  and  C_21 
REMARK   10  A    between atoms: C_20  and  O_28 
ROOT
HETATM    1  C   UNK N   1      34.521  15.061  11.093  0.00  0.00     0.070 A 
HETATM    2  C   UNK N   1      35.276  16.232  10.965  0.00  0.00     0.037 A 
HETATM    3  C   UNK N   1      35.045  17.108   9.899  0.00  0.00     0.010 A 
HETATM    4  C   UNK N   1      34.054  16.821   8.952  0.00  0.00    -0.051 A 
HETATM    5  C   UNK N   1      33.294  15.641   9.075  0.00  0.00    -0.047 A 
HETATM    6  C   UNK N   1      33.530  14.775  10.140  0.00  0.00     0.044 A 
HETATM    7  C   UNK N   1      32.201  15.289   8.105  0.00  0.00     0.063 C 
HETATM    8  C   UNK N   1      32.084  16.223   6.900  0.00  0.00     0.081 C 
HETATM    9  C   UNK N   1      32.394  17.665   7.287  0.00  0.00     0.029 C 
HETATM   10  C   UNK N   1      33.815  17.781   7.825  0.00  0.00     0.041 C 
ENDROOT
BRANCH   8  11
HETATM   11  N   UNK N   1      30.713  16.164   6.429  0.00  0.00    -0.414 N 
HETATM   12  H   UNK N   1      30.203  15.309   6.208  0.00  0.00     0.153 HD
BRANCH  11  13
HETATM   13  C   UNK N   1      30.179  17.511   6.319  0.00  0.00     0.150 C 
BRANCH  13  14
HETATM   14  C   UNK N   1      29.201  17.521   5.155  0.00  0.00     0.168 C 
BRANCH  14  15
HETATM   15  C   UNK N   1      28.222  18.665   5.245  0.00  0.00    -0.026 A 
HETATM   16  C   UNK N   1      27.968  19.300   6.470  0.00  0.00     0.010 A 
HETATM   17  C   UNK N   1      27.070  20.369   6.539  0.00  0.00     0.002 A 
HETATM   18  C   UNK N   1      26.402  20.796   5.388  0.00  0.00     0.024 A 
HETATM   19  C   UNK N   1      26.645  20.166   4.165  0.00  0.00     0.034 A 
HETATM   20  C   UNK N   1      27.559  19.114   4.091  0.00  0.00     0.033 A 
HETATM   21 Cl   UNK N   1      25.782  20.675   2.729  0.00  0.00    -0.084 Cl
ENDBRANCH  14  15
BRANCH  14  22
HETATM   22  O   UNK N   1      29.899  17.535   3.944  0.00  0.00    -0.389 OA
HETATM   23  H   UNK N   1      29.628  18.056   3.172  0.00  0.00     0.210 HD
ENDBRANCH  14  22
ENDBRANCH  13  14
ENDBRANCH  11  13
ENDBRANCH   8  11
BRANCH   1  24
HETATM   24  O   UNK N   1      34.757  14.222  12.129  0.00  0.00    -0.342 OA
BRANCH  24  25
HETATM   25  C   UNK N   1      35.887  14.327  12.915  0.00  0.00     0.286 C 
BRANCH  25  26
HETATM   26  C   UNK N   1      35.696  13.661  14.238  0.00  0.00     0.283 C 
HETATM   27  O   UNK N   1      36.577  13.756  15.082  0.00  0.00    -0.263 OA
BRANCH  26  28
HETATM   28  O   UNK N   1      34.565  12.961  14.496  0.00  0.00    -0.320 OA
BRANCH  28  29
HETATM   29  C   UNK N   1      34.566  11.825  15.273  0.00  0.00     0.174 C 
HETATM   30  C   UNK N   1      33.628  10.802  14.670  0.00  0.00     0.034 C 
ENDBRANCH  28  29
ENDBRANCH  26  28
ENDBRANCH  25  26
ENDBRANCH  24  25
ENDBRANCH   1  24
TORSDOF 10
ENDMDL
MODEL 3
REMARK VINA RESULT:      -6.6     14.383     18.048
REMARK  10 active torsions:
REMARK  status: ('A' for Active; 'I' for Inactive)
REMARK    1  A    between atoms: C_2  and  O_3 
REMARK    2  A    between atoms: O_3  and  C_4 
REMARK    3  A    between atoms: C_4  and  C_6 
REMARK    4  A    between atoms: C_6  and  O_7 
REMARK    5  A    between atoms: O_7  and  C_8 
REMARK    6  A    between atoms: C_15  and  N_18 
REMARK    7  A    between atoms: N_18  and  C_19 
REMARK    8  A    between atoms: C_19  and  C_20 
REMARK    9  A    between atoms: C_20  and  C_21 
REMARK   10  A    between atoms: C_20  and  O_28 
ROOT
HETATM    1  C   UNK N   1      34.661  14.789  11.367  0.00  0.00     0.070 A 
HETATM    2  C   UNK N   1      35.510  15.900  11.438  0.00  0.00     0.037 A 
HETATM    3  C   UNK N   1      35.436  16.906  10.467  0.00  0.00     0.010 A 
HETATM    4  C   UNK N   1      34.512  16.811   9.420  0.00  0.00    -0.051 A 
HETATM    5  C   UNK N   1      33.658  15.692   9.344  0.00  0.00    -0.047 A 
HETATM    6  C   UNK N   1      33.737  14.696  10.315  0.00  0.00     0.044 A 
HETATM    7  C   UNK N   1      32.629  15.544   8.260  0.00  0.00     0.063 C 
HETATM    8  C   UNK N   1      32.686  16.613   7.168  0.00  0.00     0.081 C 
HETATM    9  C   UNK N   1      33.068  17.972   7.745  0.00  0.00     0.029 C 
HETATM   10  C   UNK N   1      34.443  17.907   8.401  0.00  0.00     0.041 C 
ENDROOT
BRANCH   8  11
HETATM   11  N   UNK N   1      31.360  16.723   6.589  0.00  0.00    -0.414 N 
HETATM   12  H   UNK N   1      31.078  16.340   5.687  0.00  0.00     0.153 HD
BRANCH  11  13
HETATM   13  C   UNK N   1      30.496  17.465   7.491  0.00  0.00     0.150 C 
BRANCH  13  14
HETATM   14  C   UNK N   1      29.059  17.199   7.070  0.00  0.00     0.168 C 
BRANCH  14  15
HETATM   15  C   UNK N   1      28.428  18.402   6.413  0.00  0.00    -0.026 A 
HETATM   16  C   UNK N   1      28.571  18.627   5.035  0.00  0.00     0.010 A 
HETATM   17  C   UNK N   1      27.969  19.737   4.436  0.00  0.00     0.002 A 
HETATM   18  C   UNK N   1      27.239  20.641   5.212  0.00  0.00     0.024 A 
HETATM   19  C   UNK N   1      27.096  20.428   6.585  0.00  0.00     0.034 A 
HETATM   20  C   UNK N   1      27.678  19.307   7.181  0.00  0.00     0.033 A 
HETATM   21 Cl   UNK N   1      26.214  21.578   7.565  0.00  0.00    -0.084 Cl
ENDBRANCH  14  15
BRANCH  14  22
HETATM   22  O   UNK N   1      29.004  16.074   6.243  0.00  0.00    -0.389 OA
HETATM   23  H   UNK N   1      28.246  15.471   6.203  0.00  0.00     0.210 HD
ENDBRANCH  14  22
ENDBRANCH  13  14
ENDBRANCH  11  13
ENDBRANCH   8  11
BRANCH   1  24
HETATM   24  O   UNK N   1      34.745  13.823  12.312  0.00  0.00    -0.342 OA
BRANCH  24  25
HETATM   25  C   UNK N   1      35.585  13.932  13.402  0.00  0.00     0.286 C 
BRANCH  25  26
HETATM   26  C   UNK N   1      35.360  12.826  14.379  0.00  0.00     0.283 C 
HETATM   27  O   UNK N   1      36.320  12.359  14.977  0.00  0.00    -0.263 OA
BRANCH  26  28
HETATM   28  O   UNK N   1      34.111  12.348  14.597  0.00  0.00    -0.320 OA
BRANCH  28  29
HETATM   29  C   UNK N   1      33.845  11.000  14.676  0.00  0.00     0.174 C 
HETATM   30  C   UNK N   1      33.897  10.395  13.290  0.00  0.00     0.034 C 
ENDBRANCH  28  29
ENDBRANCH  26  28
ENDBRANCH  25  26
ENDBRANCH  24  25
ENDBRANCH   1  24
TORSDOF 10
ENDMDL
MODEL 4
REMARK VINA RESULT:      -6.4     13.823     18.548
REMARK  10 active torsions:
REMARK  status: ('A' for Active; 'I' for Inactive)
REMARK    1  A    between atoms: C_2  and  O_3 
REMARK    2  A    between atoms: O_3  and  C_4 
REMARK    3  A    between atoms: C_4  and  C_6 
REMARK    4  A    between atoms: C_6  and  O_7 
REMARK    5  A    between atoms: O_7  and  C_8 
REMARK    6  A    between atoms: C_15  and  N_18 
REMARK    7  A    between atoms: N_18  and  C_19 
REMARK    8  A    between atoms: C_19  and  C_20 
REMARK    9  A    between atoms: C_20  and  C_21 
REMARK   10  A    between atoms: C_20  and  O_28 
ROOT
HETATM    1  C   UNK N   1      30.429  17.365   5.051  0.00  0.00     0.070 A 
HETATM    2  C   UNK N   1      31.539  17.596   4.231  0.00  0.00     0.037 A 
HETATM    3  C   UNK N   1      32.834  17.524   4.759  0.00  0.00     0.010 A 
HETATM    4  C   UNK N   1      33.028  17.218   6.111  0.00  0.00    -0.051 A 
HETATM    5  C   UNK N   1      31.912  16.989   6.941  0.00  0.00    -0.047 A 
HETATM    6  C   UNK N   1      30.628  17.061   6.407  0.00  0.00     0.044 A 
HETATM    7  C   UNK N   1      32.057  16.634   8.394  0.00  0.00     0.063 C 
HETATM    8  C   UNK N   1      33.486  16.692   8.933  0.00  0.00     0.081 C 
HETATM    9  C   UNK N   1      34.491  16.236   7.881  0.00  0.00     0.029 C 
HETATM   10  C   UNK N   1      34.424  17.134   6.651  0.00  0.00     0.041 C 
ENDROOT
BRANCH   8  11
HETATM   11  N   UNK N   1      33.569  15.786  10.063  0.00  0.00    -0.414 N 
HETATM   12  H   UNK N   1      32.830  15.635  10.750  0.00  0.00     0.153 HD
BRANCH  11  13
HETATM   13  C   UNK N   1      34.865  15.131  10.066  0.00  0.00     0.150 C 
BRANCH  13  14
HETATM   14  C   UNK N   1      35.605  15.587  11.314  0.00  0.00     0.168 C 
BRANCH  14  15
HETATM   15  C   UNK N   1      35.654  14.512  12.371  0.00  0.00    -0.026 A 
HETATM   16  C   UNK N   1      36.382  14.700  13.556  0.00  0.00     0.010 A 
HETATM   17  C   UNK N   1      36.409  13.703  14.535  0.00  0.00     0.002 A 
HETATM   18  C   UNK N   1      35.725  12.502  14.327  0.00  0.00     0.024 A 
HETATM   19  C   UNK N   1      35.002  12.303  13.149  0.00  0.00     0.034 A 
HETATM   20  C   UNK N   1      34.956  13.309  12.181  0.00  0.00     0.033 A 
HETATM   21 Cl   UNK N   1      34.176  10.786  12.870  0.00  0.00    -0.084 Cl
ENDBRANCH  14  15
BRANCH  14  22
HETATM   22  O   UNK N   1      36.884  16.034  10.975  0.00  0.00    -0.389 OA
HETATM   23  H   UNK N   1      37.089  16.949  10.729  0.00  0.00     0.210 HD
ENDBRANCH  14  22
ENDBRANCH  13  14
ENDBRANCH  11  13
ENDBRANCH   8  11
BRANCH   1  24
HETATM   24  O   UNK N   1      29.183  17.440   4.527  0.00  0.00    -0.342 OA
BRANCH  24  25
HETATM   25  C   UNK N   1      28.110  17.922   5.249  0.00  0.00     0.286 C 
BRANCH  25  26
HETATM   26  C   UNK N   1      27.756  19.313   4.841  0.00  0.00     0.283 C 
HETATM   27  O   UNK N   1      27.453  19.530   3.675  0.00  0.00    -0.263 OA
BRANCH  26  28
HETATM   28  O   UNK N   1      27.773  20.320   5.748  0.00  0.00    -0.320 OA
BRANCH  28  29
HETATM   29  C   UNK N   1      26.742  21.223   5.861  0.00  0.00     0.174 C 
HETATM   30  C   UNK N   1      26.366  21.379   7.319  0.00  0.00     0.034 C 
ENDBRANCH  28  29
ENDBRANCH  26  28
ENDBRANCH  25  26
ENDBRANCH  24  25
ENDBRANCH   1  24
TORSDOF 10
ENDMDL
MODEL 5
REMARK VINA RESULT:      -6.4     13.628     15.102
REMARK  10 active torsions:
REMARK  status: ('A' for Active; 'I' for Inactive)
REMARK    1  A    between atoms: C_2  and  O_3 
REMARK    2  A    between atoms: O_3  and  C_4 
REMARK    3  A    between atoms: C_4  and  C_6 
REMARK    4  A    between atoms: C_6  and  O_7 
REMARK    5  A    between atoms: O_7  and  C_8 
REMARK    6  A    between atoms: C_15  and  N_18 
REMARK    7  A    between atoms: N_18  and  C_19 
REMARK    8  A    between atoms: C_19  and  C_20 
REMARK    9  A    between atoms: C_20  and  C_21 
REMARK   10  A    between atoms: C_20  and  O_28 
ROOT
HETATM    1  C   UNK N   1      21.338  14.383   5.374  0.00  0.00     0.070 A 
HETATM    2  C   UNK N   1      21.622  13.583   4.262  0.00  0.00     0.037 A 
HETATM    3  C   UNK N   1      21.343  14.046   2.971  0.00  0.00     0.010 A 
HETATM    4  C   UNK N   1      20.781  15.314   2.781  0.00  0.00    -0.051 A 
HETATM    5  C   UNK N   1      20.491  16.121   3.900  0.00  0.00    -0.047 A 
HETATM    6  C   UNK N   1      20.773  15.653   5.181  0.00  0.00     0.044 A 
HETATM    7  C   UNK N   1      19.910  17.500   3.762  0.00  0.00     0.063 C 
HETATM    8  C   UNK N   1      19.518  17.894   2.338  0.00  0.00     0.081 C 
HETATM    9  C   UNK N   1      20.493  17.317   1.317  0.00  0.00     0.029 C 
HETATM   10  C   UNK N   1      20.504  15.794   1.389  0.00  0.00     0.041 C 
ENDROOT
BRANCH   8  11
HETATM   11  N   UNK N   1      19.573  19.341   2.250  0.00  0.00    -0.414 N 
HETATM   12  H   UNK N   1      18.813  19.975   2.497  0.00  0.00     0.153 HD
BRANCH  11  13
HETATM   13  C   UNK N   1      20.876  19.749   1.754  0.00  0.00     0.150 C 
BRANCH  13  14
HETATM   14  C   UNK N   1      21.582  20.489   2.879  0.00  0.00     0.168 C 
BRANCH  14  15
HETATM   15  C   UNK N   1      22.939  19.903   3.182  0.00  0.00    -0.026 A 
HETATM   16  C   UNK N   1      24.111  20.539   2.745  0.00  0.00     0.010 A 
HETATM   17  C   UNK N   1      25.363  19.995   3.044  0.00  0.00     0.002 A 
HETATM   18  C   UNK N   1      25.452  18.800   3.763  0.00  0.00     0.024 A 
HETATM   19  C   UNK N   1      24.291  18.157   4.198  0.00  0.00     0.034 A 
HETATM   20  C   UNK N   1      23.041  18.713   3.919  0.00  0.00     0.033 A 
HETATM   21 Cl   UNK N   1      24.398  16.641   5.066  0.00  0.00    -0.084 Cl
ENDBRANCH  14  15
BRANCH  14  22
HETATM   22  O   UNK N   1      21.666  21.851   2.577  0.00  0.00    -0.389 OA
HETATM   23  H   UNK N   1      22.451  22.394   2.748  0.00  0.00     0.210 HD
ENDBRANCH  14  22
ENDBRANCH  13  14
ENDBRANCH  11  13
ENDBRANCH   8  11
BRANCH   1  24
HETATM   24  O   UNK N   1      21.611  13.920   6.617  0.00  0.00    -0.342 OA
BRANCH  24  25
HETATM   25  C   UNK N   1      21.831  14.768   7.684  0.00  0.00     0.286 C 
BRANCH  25  26
HETATM   26  C   UNK N   1      20.752  14.649   8.709  0.00  0.00     0.283 C 
HETATM   27  O   UNK N   1      19.616  14.998   8.417  0.00  0.00    -0.263 OA
BRANCH  26  28
HETATM   28  O   UNK N   1      21.030  14.164   9.943  0.00  0.00    -0.320 OA
BRANCH  28  29
HETATM   29  C   UNK N   1      21.155  12.816  10.191  0.00  0.00     0.174 C 
HETATM   30  C   UNK N   1      22.525  12.536  10.771  0.00  0.00     0.034 C 
ENDBRANCH  28  29
ENDBRANCH  26  28
ENDBRANCH  25  26
ENDBRANCH  24  25
ENDBRANCH   1  24
TORSDOF 10
ENDMDL
MODEL 6
REMARK VINA RESULT:      -6.3     14.709     18.576
REMARK  10 active torsions:
REMARK  status: ('A' for Active; 'I' for Inactive)
REMARK    1  A    between atoms: C_2  and  O_3 
REMARK    2  A    between atoms: O_3  and  C_4 
REMARK    3  A    between atoms: C_4  and  C_6 
REMARK    4  A    between atoms: C_6  and  O_7 
REMARK    5  A    between atoms: O_7  and  C_8 
REMARK    6  A    between atoms: C_15  and  N_18 
REMARK    7  A    between atoms: N_18  and  C_19 
REMARK    8  A    between atoms: C_19  and  C_20 
REMARK    9  A    between atoms: C_20  and  C_21 
REMARK   10  A    between atoms: C_20  and  O_28 
ROOT
HETATM    1  C   UNK N   1      34.619  14.873  11.158  0.00  0.00     0.070 A 
HETATM    2  C   UNK N   1      35.257  16.104  11.345  0.00  0.00     0.037 A 
HETATM    3  C   UNK N   1      35.236  17.070  10.332  0.00  0.00     0.010 A 
HETATM    4  C   UNK N   1      34.575  16.814   9.125  0.00  0.00    -0.051 A 
HETATM    5  C   UNK N   1      33.934  15.573   8.932  0.00  0.00    -0.047 A 
HETATM    6  C   UNK N   1      33.958  14.618   9.946  0.00  0.00     0.044 A 
HETATM    7  C   UNK N   1      33.187  15.247   7.670  0.00  0.00     0.063 C 
HETATM    8  C   UNK N   1      33.307  16.294   6.562  0.00  0.00     0.081 C 
HETATM    9  C   UNK N   1      33.352  17.705   7.138  0.00  0.00     0.029 C 
HETATM   10  C   UNK N   1      34.555  17.868   8.061  0.00  0.00     0.041 C 
ENDROOT
BRANCH   8  11
HETATM   11  N   UNK N   1      32.129  16.184   5.722  0.00  0.00    -0.414 N 
HETATM   12  H   UNK N   1      31.981  16.689   4.848  0.00  0.00     0.153 HD
BRANCH  11  13
HETATM   13  C   UNK N   1      31.193  15.246   6.318  0.00  0.00     0.150 C 
BRANCH  13  14
HETATM   14  C   UNK N   1      29.805  15.603   5.812  0.00  0.00     0.168 C 
BRANCH  14  15
HETATM   15  C   UNK N   1      29.261  16.845   6.473  0.00  0.00    -0.026 A 
HETATM   16  C   UNK N   1      28.357  17.682   5.799  0.00  0.00     0.010 A 
HETATM   17  C   UNK N   1      27.850  18.823   6.426  0.00  0.00     0.002 A 
HETATM   18  C   UNK N   1      28.257  19.148   7.724  0.00  0.00     0.024 A 
HETATM   19  C   UNK N   1      29.161  18.324   8.399  0.00  0.00     0.034 A 
HETATM   20  C   UNK N   1      29.651  17.172   7.782  0.00  0.00     0.033 A 
HETATM   21 Cl   UNK N   1      29.702  18.749  10.008  0.00  0.00    -0.084 Cl
ENDBRANCH  14  15
BRANCH  14  22
HETATM   22  O   UNK N   1      29.819  15.725   4.420  0.00  0.00    -0.389 OA
HETATM   23  H   UNK N   1      29.255  15.205   3.828  0.00  0.00     0.210 HD
ENDBRANCH  14  22
ENDBRANCH  13  14
ENDBRANCH  11  13
ENDBRANCH   8  11
BRANCH   1  24
HETATM   24  O   UNK N   1      34.650  13.948  12.146  0.00  0.00    -0.342 OA
BRANCH  24  25
HETATM   25  C   UNK N   1      35.610  13.964  13.138  0.00  0.00     0.286 C 
BRANCH  25  26
HETATM   26  C   UNK N   1      35.258  13.038  14.255  0.00  0.00     0.283 C 
HETATM   27  O   UNK N   1      34.273  12.320  14.141  0.00  0.00    -0.263 OA
BRANCH  26  28
HETATM   28  O   UNK N   1      36.016  12.998  15.377  0.00  0.00    -0.320 OA
BRANCH  28  29
HETATM   29  C   UNK N   1      35.568  12.427  16.546  0.00  0.00     0.174 C 
HETATM   30  C   UNK N   1      35.113  13.514  17.495  0.00  0.00     0.034 C 
ENDBRANCH  28  29
ENDBRANCH  26  28
ENDBRANCH  25  26
ENDBRANCH  24  25
ENDBRANCH   1  24
TORSDOF 10
ENDMDL
MODEL 7
REMARK VINA RESULT:      -6.3      3.532      6.917
REMARK  10 active torsions:
REMARK  status: ('A' for Active; 'I' for Inactive)
REMARK    1  A    between atoms: C_2  and  O_3 
REMARK    2  A    between atoms: O_3  and  C_4 
REMARK    3  A    between atoms: C_4  and  C_6 
REMARK    4  A    between atoms: C_6  and  O_7 
REMARK    5  A    between atoms: O_7  and  C_8 
REMARK    6  A    between atoms: C_15  and  N_18 
REMARK    7  A    between atoms: N_18  and  C_19 
REMARK    8  A    between atoms: C_19  and  C_20 
REMARK    9  A    between atoms: C_20  and  C_21 
REMARK   10  A    between atoms: C_20  and  O_28 
ROOT
HETATM    1  C   UNK N   1      26.764  24.891  -8.603  0.00  0.00     0.070 A 
HETATM    2  C   UNK N   1      26.048  26.082  -8.439  0.00  0.00     0.037 A 
HETATM    3  C   UNK N   1      25.718  26.534  -7.156  0.00  0.00     0.010 A 
HETATM    4  C   UNK N   1      26.104  25.802  -6.028  0.00  0.00    -0.051 A 
HETATM    5  C   UNK N   1      26.823  24.600  -6.190  0.00  0.00    -0.047 A 
HETATM    6  C   UNK N   1      27.148  24.157  -7.470  0.00  0.00     0.044 A 
HETATM    7  C   UNK N   1      27.287  23.782  -5.019  0.00  0.00     0.063 C 
HETATM    8  C   UNK N   1      26.790  24.266  -3.656  0.00  0.00     0.081 C 
HETATM    9  C   UNK N   1      26.716  25.789  -3.606  0.00  0.00     0.029 C 
HETATM   10  C   UNK N   1      25.752  26.313  -4.664  0.00  0.00     0.041 C 
ENDROOT
BRANCH   8  11
HETATM   11  N   UNK N   1      27.744  23.825  -2.656  0.00  0.00    -0.414 N 
HETATM   12  H   UNK N   1      27.531  23.664  -1.672  0.00  0.00     0.153 HD
BRANCH  11  13
HETATM   13  C   UNK N   1      29.048  23.650  -3.272  0.00  0.00     0.150 C 
BRANCH  13  14
HETATM   14  C   UNK N   1      29.792  22.593  -2.472  0.00  0.00     0.168 C 
BRANCH  14  15
HETATM   15  C   UNK N   1      30.745  21.797  -3.329  0.00  0.00    -0.026 A 
HETATM   16  C   UNK N   1      32.084  21.621  -2.945  0.00  0.00     0.010 A 
HETATM   17  C   UNK N   1      32.953  20.870  -3.740  0.00  0.00     0.002 A 
HETATM   18  C   UNK N   1      32.498  20.307  -4.936  0.00  0.00     0.024 A 
HETATM   19  C   UNK N   1      31.168  20.481  -5.328  0.00  0.00     0.034 A 
HETATM   20  C   UNK N   1      30.293  21.212  -4.523  0.00  0.00     0.033 A 
HETATM   21 Cl   UNK N   1      30.605  19.809  -6.843  0.00  0.00    -0.084 Cl
ENDBRANCH  14  15
BRANCH  14  22
HETATM   22  O   UNK N   1      30.448  23.186  -1.390  0.00  0.00    -0.389 OA
HETATM   23  H   UNK N   1      30.346  22.894  -0.471  0.00  0.00     0.210 HD
ENDBRANCH  14  22
ENDBRANCH  13  14
ENDBRANCH  11  13
ENDBRANCH   8  11
BRANCH   1  24
HETATM   24  O   UNK N   1      27.074  24.464  -9.851  0.00  0.00    -0.342 OA
BRANCH  24  25
HETATM   25  C   UNK N   1      27.503  23.176 -10.101  0.00  0.00     0.286 C 
BRANCH  25  26
HETATM   26  C   UNK N   1      26.370  22.288 -10.494  0.00  0.00     0.283 C 
HETATM   27  O   UNK N   1      26.348  21.820 -11.625  0.00  0.00    -0.263 OA
BRANCH  26  28
HETATM   28  O   UNK N   1      25.380  22.008  -9.612  0.00  0.00    -0.320 OA
BRANCH  28  29
HETATM   29  C   UNK N   1      25.499  21.017  -8.666  0.00  0.00     0.174 C 
HETATM   30  C   UNK N   1      24.756  21.425  -7.412  0.00  0.00     0.034 C 
ENDBRANCH  28  29
ENDBRANCH  26  28
ENDBRANCH  25  26
ENDBRANCH  24  25
ENDBRANCH   1  24
TORSDOF 10
ENDMDL
MODEL 8
REMARK VINA RESULT:      -6.3     12.539     15.011
REMARK  10 active torsions:
REMARK  status: ('A' for Active; 'I' for Inactive)
REMARK    1  A    between atoms: C_2  and  O_3 
REMARK    2  A    between atoms: O_3  and  C_4 
REMARK    3  A    between atoms: C_4  and  C_6 
REMARK    4  A    between atoms: C_6  and  O_7 
REMARK    5  A    between atoms: O_7  and  C_8 
REMARK    6  A    between atoms: C_15  and  N_18 
REMARK    7  A    between atoms: N_18  and  C_19 
REMARK    8  A    between atoms: C_19  and  C_20 
REMARK    9  A    between atoms: C_20  and  C_21 
REMARK   10  A    between atoms: C_20  and  O_28 
ROOT
HETATM    1  C   UNK N   1      20.610  18.047   3.678  0.00  0.00     0.070 A 
HETATM    2  C   UNK N   1      20.402  19.157   2.852  0.00  0.00     0.037 A 
HETATM    3  C   UNK N   1      21.445  20.057   2.604  0.00  0.00     0.010 A 
HETATM    4  C   UNK N   1      22.705  19.853   3.178  0.00  0.00    -0.051 A 
HETATM    5  C   UNK N   1      22.917  18.737   4.013  0.00  0.00    -0.047 A 
HETATM    6  C   UNK N   1      21.874  17.846   4.254  0.00  0.00     0.044 A 
HETATM    7  C   UNK N   1      24.253  18.450   4.639  0.00  0.00     0.063 C 
HETATM    8  C   UNK N   1      25.310  19.534   4.427  0.00  0.00     0.081 C 
HETATM    9  C   UNK N   1      25.179  20.171   3.048  0.00  0.00     0.029 C 
HETATM   10  C   UNK N   1      23.810  20.823   2.887  0.00  0.00     0.041 C 
ENDROOT
BRANCH   8  11
HETATM   11  N   UNK N   1      26.613  18.902   4.513  0.00  0.00    -0.414 N 
HETATM   12  H   UNK N   1      27.104  18.459   3.737  0.00  0.00     0.153 HD
BRANCH  11  13
HETATM   13  C   UNK N   1      27.110  18.996   5.875  0.00  0.00     0.150 C 
BRANCH  13  14
HETATM   14  C   UNK N   1      27.686  17.639   6.246  0.00  0.00     0.168 C 
BRANCH  14  15
HETATM   15  C   UNK N   1      28.931  17.762   7.090  0.00  0.00    -0.026 A 
HETATM   16  C   UNK N   1      28.927  18.520   8.272  0.00  0.00     0.010 A 
HETATM   17  C   UNK N   1      30.081  18.615   9.054  0.00  0.00     0.002 A 
HETATM   18  C   UNK N   1      31.254  17.970   8.650  0.00  0.00     0.024 A 
HETATM   19  C   UNK N   1      31.268  17.217   7.473  0.00  0.00     0.034 A 
HETATM   20  C   UNK N   1      30.109  17.104   6.704  0.00  0.00     0.033 A 
HETATM   21 Cl   UNK N   1      32.745  16.440   6.946  0.00  0.00    -0.084 Cl
ENDBRANCH  14  15
BRANCH  14  22
HETATM   22  O   UNK N   1      26.712  16.862   6.876  0.00  0.00    -0.389 OA
HETATM   23  H   UNK N   1      26.756  16.592   7.807  0.00  0.00     0.210 HD
ENDBRANCH  14  22
ENDBRANCH  13  14
ENDBRANCH  11  13
ENDBRANCH   8  11
BRANCH   1  24
HETATM   24  O   UNK N   1      19.591  17.186   3.911  0.00  0.00    -0.342 OA
BRANCH  24  25
HETATM   25  C   UNK N   1      19.802  15.916   4.409  0.00  0.00     0.286 C 
BRANCH  25  26
HETATM   26  C   UNK N   1      19.061  15.701   5.687  0.00  0.00     0.283 C 
HETATM   27  O   UNK N   1      17.845  15.832   5.697  0.00  0.00    -0.263 OA
BRANCH  26  28
HETATM   28  O   UNK N   1      19.729  15.366   6.818  0.00  0.00    -0.320 OA
BRANCH  28  29
HETATM   29  C   UNK N   1      20.401  16.298   7.576  0.00  0.00     0.174 C 
HETATM   30  C   UNK N   1      19.499  16.787   8.689  0.00  0.00     0.034 C 
ENDBRANCH  28  29
ENDBRANCH  26  28
ENDBRANCH  25  26
ENDBRANCH  24  25
ENDBRANCH   1  24
TORSDOF 10
ENDMDL
MODEL 9
REMARK VINA RESULT:      -6.2      3.464      6.883
REMARK  10 active torsions:
REMARK  status: ('A' for Active; 'I' for Inactive)
REMARK    1  A    between atoms: C_2  and  O_3 
REMARK    2  A    between atoms: O_3  and  C_4 
REMARK    3  A    between atoms: C_4  and  C_6 
REMARK    4  A    between atoms: C_6  and  O_7 
REMARK    5  A    between atoms: O_7  and  C_8 
REMARK    6  A    between atoms: C_15  and  N_18 
REMARK    7  A    between atoms: N_18  and  C_19 
REMARK    8  A    between atoms: C_19  and  C_20 
REMARK    9  A    between atoms: C_20  and  C_21 
REMARK   10  A    between atoms: C_20  and  O_28 
ROOT
HETATM    1  C   UNK N   1      26.254  23.276  -7.573  0.00  0.00     0.070 A 
HETATM    2  C   UNK N   1      26.036  22.444  -8.678  0.00  0.00     0.037 A 
HETATM    3  C   UNK N   1      26.933  21.410  -8.970  0.00  0.00     0.010 A 
HETATM    4  C   UNK N   1      28.053  21.197  -8.158  0.00  0.00    -0.051 A 
HETATM    5  C   UNK N   1      28.278  22.035  -7.046  0.00  0.00    -0.047 A 
HETATM    6  C   UNK N   1      27.379  23.061  -6.762  0.00  0.00     0.044 A 
HETATM    7  C   UNK N   1      29.448  21.842  -6.124  0.00  0.00     0.063 C 
HETATM    8  C   UNK N   1      30.450  20.776  -6.568  0.00  0.00     0.081 C 
HETATM    9  C   UNK N   1      29.747  19.605  -7.244  0.00  0.00     0.029 C 
HETATM   10  C   UNK N   1      28.993  20.075  -8.482  0.00  0.00     0.041 C 
ENDROOT
BRANCH   8  11
HETATM   11  N   UNK N   1      31.121  20.280  -5.381  0.00  0.00    -0.414 N 
HETATM   12  H   UNK N   1      31.808  19.526  -5.366  0.00  0.00     0.153 HD
BRANCH  11  13
HETATM   13  C   UNK N   1      30.663  21.020  -4.218  0.00  0.00     0.150 C 
BRANCH  13  14
HETATM   14  C   UNK N   1      31.863  21.753  -3.641  0.00  0.00     0.168 C 
BRANCH  14  15
HETATM   15  C   UNK N   1      31.807  23.236  -3.910  0.00  0.00    -0.026 A 
HETATM   16  C   UNK N   1      30.834  24.042  -3.299  0.00  0.00     0.010 A 
HETATM   17  C   UNK N   1      30.800  25.417  -3.545  0.00  0.00     0.002 A 
HETATM   18  C   UNK N   1      31.726  25.994  -4.419  0.00  0.00     0.024 A 
HETATM   19  C   UNK N   1      32.695  25.199  -5.035  0.00  0.00     0.034 A 
HETATM   20  C   UNK N   1      32.743  23.829  -4.773  0.00  0.00     0.033 A 
HETATM   21 Cl   UNK N   1      33.831  25.912  -6.159  0.00  0.00    -0.084 Cl
ENDBRANCH  14  15
BRANCH  14  22
HETATM   22  O   UNK N   1      31.977  21.482  -2.275  0.00  0.00    -0.389 OA
HETATM   23  H   UNK N   1      32.816  21.276  -1.834  0.00  0.00     0.210 HD
ENDBRANCH  14  22
ENDBRANCH  13  14
ENDBRANCH  11  13
ENDBRANCH   8  11
BRANCH   1  24
HETATM   24  O   UNK N   1      25.379  24.273  -7.305  0.00  0.00    -0.342 OA
BRANCH  24  25
HETATM   25  C   UNK N   1      25.796  25.559  -7.021  0.00  0.00     0.286 C 
BRANCH  25  26
HETATM   26  C   UNK N   1      25.289  26.017  -5.693  0.00  0.00     0.283 C 
HETATM   27  O   UNK N   1      24.623  27.042  -5.634  0.00  0.00    -0.263 OA
BRANCH  26  28
HETATM   28  O   UNK N   1      25.566  25.307  -4.572  0.00  0.00    -0.320 OA
BRANCH  28  29
HETATM   29  C   UNK N   1      26.706  25.521  -3.831  0.00  0.00     0.174 C 
HETATM   30  C   UNK N   1      27.180  24.208  -3.247  0.00  0.00     0.034 C 
ENDBRANCH  28  29
ENDBRANCH  26  28
ENDBRANCH  25  26
ENDBRANCH  24  25
ENDBRANCH   1  24
TORSDOF 10
ENDMDL
