MODEL 1
REMARK VINA RESULT:      -6.7      0.000      0.000
REMARK  7 active torsions:
REMARK  status: ('A' for Active; 'I' for Inactive)
REMARK    1  A    between atoms: C_19  and  C_20 
REMARK    2  A    between atoms: C_19  and  C_21 
REMARK    3  A    between atoms: C_20  and  C_22 
REMARK    4  A    between atoms: C_21  and  C_23 
REMARK    5  A    between atoms: C_22  and  C_24 
REMARK    6  A    between atoms: C_23  and  C_25 
REMARK    7  A    between atoms: C_24  and  C_26 
ROOT
HETATM    1  F   UNK N   1      28.215  23.288  -2.843  0.00  0.00    -0.192 F 
HETATM    2  F   UNK N   1      29.621  25.000  -3.241  0.00  0.00    -0.192 F 
HETATM    3  C   UNK N   1      28.966  23.924  -3.821  0.00  0.00     0.384 C 
ENDROOT
BRANCH   3   4
HETATM    4  C   UNK N   1      28.009  24.448  -4.926  0.00  0.00     0.384 C 
HETATM    5  F   UNK N   1      27.167  23.419  -5.314  0.00  0.00    -0.192 F 
HETATM    6  F   UNK N   1      28.759  24.841  -6.024  0.00  0.00    -0.192 F 
BRANCH   4   7
HETATM    7  C   UNK N   1      27.160  25.658  -4.453  0.00  0.00     0.387 C 
HETATM    8  F   UNK N   1      26.695  25.421  -3.168  0.00  0.00    -0.192 F 
HETATM    9  F   UNK N   1      27.965  26.785  -4.427  0.00  0.00    -0.192 F 
BRANCH   7  10
HETATM   10  C   UNK N   1      25.946  25.928  -5.383  0.00  0.00     0.409 C 
HETATM   11  F   UNK N   1      26.333  25.817  -6.708  0.00  0.00    -0.189 F 
HETATM   12  F   UNK N   1      24.958  24.990  -5.133  0.00  0.00    -0.189 F 
BRANCH  10  13
HETATM   13  C   UNK N   1      25.348  27.331  -5.182  0.00  0.00     0.461 C 
HETATM   14  F   UNK N   1      25.238  27.632  -3.839  0.00  0.00    -0.165 F 
HETATM   15  F   UNK N   1      24.086  27.373  -5.750  0.00  0.00    -0.165 F 
HETATM   16  F   UNK N   1      26.135  28.287  -5.801  0.00  0.00    -0.165 F 
ENDBRANCH  10  13
ENDBRANCH   7  10
ENDBRANCH   4   7
ENDBRANCH   3   4
BRANCH   3  17
HETATM   17  C   UNK N   1      30.035  22.942  -4.374  0.00  0.00     0.385 C 
HETATM   18  F   UNK N   1      31.004  23.676  -5.038  0.00  0.00    -0.192 F 
HETATM   19  F   UNK N   1      29.436  22.082  -5.281  0.00  0.00    -0.192 F 
BRANCH  17  20
HETATM   20  C   UNK N   1      30.708  22.109  -3.249  0.00  0.00     0.388 C 
HETATM   21  F   UNK N   1      29.957  20.966  -3.014  0.00  0.00    -0.191 F 
HETATM   22  F   UNK N   1      30.746  22.849  -2.079  0.00  0.00    -0.191 F 
BRANCH  20  23
HETATM   23  C   UNK N   1      32.164  21.690  -3.559  0.00  0.00     0.370 C 
HETATM   24 Br   UNK N   1      32.304  20.243  -4.850  0.00  0.00    -0.004 Br
HETATM   25  F   UNK N   1      32.760  21.261  -2.388  0.00  0.00    -0.186 F 
HETATM   26  F   UNK N   1      32.877  22.773  -4.033  0.00  0.00    -0.186 F 
ENDBRANCH  20  23
ENDBRANCH  17  20
ENDBRANCH   3  17
TORSDOF 7
ENDMDL
MODEL 2
REMARK VINA RESULT:      -6.4      1.069      2.151
REMARK  7 active torsions:
REMARK  status: ('A' for Active; 'I' for Inactive)
REMARK    1  A    between atoms: C_19  and  C_20 
REMARK    2  A    between atoms: C_19  and  C_21 
REMARK    3  A    between atoms: C_20  and  C_22 
REMARK    4  A    between atoms: C_21  and  C_23 
REMARK    5  A    between atoms: C_22  and  C_24 
REMARK    6  A    between atoms: C_23  and  C_25 
REMARK    7  A    between atoms: C_24  and  C_26 
ROOT
HETATM    1  F   UNK N   1      29.906  24.975  -3.289  0.00  0.00    -0.192 F 
HETATM    2  F   UNK N   1      30.025  24.665  -5.514  0.00  0.00    -0.192 F 
HETATM    3  C   UNK N   1      29.440  24.205  -4.344  0.00  0.00     0.384 C 
ENDROOT
BRANCH   3   4
HETATM    4  C   UNK N   1      27.900  24.373  -4.446  0.00  0.00     0.384 C 
HETATM    5  F   UNK N   1      27.358  24.319  -3.172  0.00  0.00    -0.192 F 
HETATM    6  F   UNK N   1      27.379  23.327  -5.191  0.00  0.00    -0.192 F 
BRANCH   4   7
HETATM    7  C   UNK N   1      27.491  25.709  -5.123  0.00  0.00     0.387 C 
HETATM    8  F   UNK N   1      28.245  26.745  -4.592  0.00  0.00    -0.192 F 
HETATM    9  F   UNK N   1      27.756  25.622  -6.479  0.00  0.00    -0.192 F 
BRANCH   7  10
HETATM   10  C   UNK N   1      25.985  26.034  -4.925  0.00  0.00     0.409 C 
HETATM   11  F   UNK N   1      25.240  24.869  -4.977  0.00  0.00    -0.189 F 
HETATM   12  F   UNK N   1      25.799  26.620  -3.684  0.00  0.00    -0.189 F 
BRANCH  10  13
HETATM   13  C   UNK N   1      25.441  26.990  -6.001  0.00  0.00     0.461 C 
HETATM   14  F   UNK N   1      25.421  26.379  -7.239  0.00  0.00    -0.165 F 
HETATM   15  F   UNK N   1      26.255  28.107  -6.071  0.00  0.00    -0.165 F 
HETATM   16  F   UNK N   1      24.160  27.406  -5.678  0.00  0.00    -0.165 F 
ENDBRANCH  10  13
ENDBRANCH   7  10
ENDBRANCH   4   7
ENDBRANCH   3   4
BRANCH   3  17
HETATM   17  C   UNK N   1      29.866  22.726  -4.134  0.00  0.00     0.385 C 
HETATM   18  F   UNK N   1      29.584  22.020  -5.292  0.00  0.00    -0.192 F 
HETATM   19  F   UNK N   1      29.126  22.183  -3.096  0.00  0.00    -0.192 F 
BRANCH  17  20
HETATM   20  C   UNK N   1      31.378  22.589  -3.808  0.00  0.00     0.388 C 
HETATM   21  F   UNK N   1      31.574  22.790  -2.450  0.00  0.00    -0.191 F 
HETATM   22  F   UNK N   1      32.094  23.555  -4.496  0.00  0.00    -0.191 F 
BRANCH  20  23
HETATM   23  C   UNK N   1      31.986  21.221  -4.199  0.00  0.00     0.370 C 
HETATM   24 Br   UNK N   1      33.668  20.830  -3.305  0.00  0.00    -0.004 Br
HETATM   25  F   UNK N   1      32.229  21.219  -5.560  0.00  0.00    -0.186 F 
HETATM   26  F   UNK N   1      31.092  20.208  -3.919  0.00  0.00    -0.186 F 
ENDBRANCH  20  23
ENDBRANCH  17  20
ENDBRANCH   3  17
TORSDOF 7
ENDMDL
MODEL 3
REMARK VINA RESULT:      -6.3      1.104      2.255
REMARK  7 active torsions:
REMARK  status: ('A' for Active; 'I' for Inactive)
REMARK    1  A    between atoms: C_19  and  C_20 
REMARK    2  A    between atoms: C_19  and  C_21 
REMARK    3  A    between atoms: C_20  and  C_22 
REMARK    4  A    between atoms: C_21  and  C_23 
REMARK    5  A    between atoms: C_22  and  C_24 
REMARK    6  A    between atoms: C_23  and  C_25 
REMARK    7  A    between atoms: C_24  and  C_26 
ROOT
HETATM    1  F   UNK N   1      29.828  24.292  -6.071  0.00  0.00    -0.192 F 
HETATM    2  F   UNK N   1      28.521  22.510  -5.647  0.00  0.00    -0.192 F 
HETATM    3  C   UNK N   1      29.141  23.612  -5.077  0.00  0.00     0.384 C 
ENDROOT
BRANCH   3   4
HETATM    4  C   UNK N   1      28.057  24.553  -4.484  0.00  0.00     0.384 C 
HETATM    5  F   UNK N   1      28.663  25.439  -3.609  0.00  0.00    -0.192 F 
HETATM    6  F   UNK N   1      27.137  23.795  -3.776  0.00  0.00    -0.192 F 
BRANCH   4   7
HETATM    7  C   UNK N   1      27.297  25.349  -5.579  0.00  0.00     0.387 C 
HETATM    8  F   UNK N   1      28.062  26.436  -5.975  0.00  0.00    -0.192 F 
HETATM    9  F   UNK N   1      27.103  24.526  -6.676  0.00  0.00    -0.192 F 
BRANCH   7  10
HETATM   10  C   UNK N   1      25.917  25.863  -5.085  0.00  0.00     0.409 C 
HETATM   11  F   UNK N   1      24.992  24.833  -5.116  0.00  0.00    -0.189 F 
HETATM   12  F   UNK N   1      26.033  26.311  -3.779  0.00  0.00    -0.189 F 
BRANCH  10  13
HETATM   13  C   UNK N   1      25.371  27.014  -5.948  0.00  0.00     0.461 C 
HETATM   14  F   UNK N   1      26.047  28.189  -5.685  0.00  0.00    -0.165 F 
HETATM   15  F   UNK N   1      24.030  27.201  -5.662  0.00  0.00    -0.165 F 
HETATM   16  F   UNK N   1      25.491  26.711  -7.293  0.00  0.00    -0.165 F 
ENDBRANCH  10  13
ENDBRANCH   7  10
ENDBRANCH   4   7
ENDBRANCH   3   4
BRANCH   3  17
HETATM   17  C   UNK N   1      30.144  23.108  -4.004  0.00  0.00     0.385 C 
HETATM   18  F   UNK N   1      29.430  22.730  -2.879  0.00  0.00    -0.192 F 
HETATM   19  F   UNK N   1      30.996  24.144  -3.657  0.00  0.00    -0.192 F 
BRANCH  17  20
HETATM   20  C   UNK N   1      30.985  21.902  -4.504  0.00  0.00     0.388 C 
HETATM   21  F   UNK N   1      31.149  21.996  -5.878  0.00  0.00    -0.191 F 
HETATM   22  F   UNK N   1      30.317  20.720  -4.229  0.00  0.00    -0.191 F 
BRANCH  20  23
HETATM   23  C   UNK N   1      32.380  21.789  -3.845  0.00  0.00     0.370 C 
HETATM   24 Br   UNK N   1      33.282  20.105  -4.209  0.00  0.00    -0.004 Br
HETATM   25  F   UNK N   1      32.230  21.891  -2.475  0.00  0.00    -0.186 F 
HETATM   26  F   UNK N   1      33.189  22.823  -4.269  0.00  0.00    -0.186 F 
ENDBRANCH  20  23
ENDBRANCH  17  20
ENDBRANCH   3  17
TORSDOF 7
ENDMDL
MODEL 4
REMARK VINA RESULT:      -6.2      2.366      7.018
REMARK  7 active torsions:
REMARK  status: ('A' for Active; 'I' for Inactive)
REMARK    1  A    between atoms: C_19  and  C_20 
REMARK    2  A    between atoms: C_19  and  C_21 
REMARK    3  A    between atoms: C_20  and  C_22 
REMARK    4  A    between atoms: C_21  and  C_23 
REMARK    5  A    between atoms: C_22  and  C_24 
REMARK    6  A    between atoms: C_23  and  C_25 
REMARK    7  A    between atoms: C_24  and  C_26 
ROOT
HETATM    1  F   UNK N   1      30.286  24.471  -5.673  0.00  0.00    -0.192 F 
HETATM    2  F   UNK N   1      30.377  24.637  -3.430  0.00  0.00    -0.192 F 
HETATM    3  C   UNK N   1      29.841  23.911  -4.484  0.00  0.00     0.384 C 
ENDROOT
BRANCH   3   4
HETATM    4  C   UNK N   1      30.347  22.446  -4.399  0.00  0.00     0.384 C 
HETATM    5  F   UNK N   1      30.228  21.857  -5.648  0.00  0.00    -0.192 F 
HETATM    6  F   UNK N   1      29.554  21.744  -3.505  0.00  0.00    -0.192 F 
BRANCH   4   7
HETATM    7  C   UNK N   1      31.822  22.352  -3.924  0.00  0.00     0.387 C 
HETATM    8  F   UNK N   1      32.561  23.370  -4.508  0.00  0.00    -0.192 F 
HETATM    9  F   UNK N   1      31.860  22.515  -2.549  0.00  0.00    -0.192 F 
BRANCH   7  10
HETATM   10  C   UNK N   1      32.474  20.990  -4.287  0.00  0.00     0.409 C 
HETATM   11  F   UNK N   1      31.564  19.965  -4.092  0.00  0.00    -0.189 F 
HETATM   12  F   UNK N   1      32.848  20.999  -5.621  0.00  0.00    -0.189 F 
BRANCH  10  13
HETATM   13  C   UNK N   1      33.718  20.684  -3.435  0.00  0.00     0.461 C 
HETATM   14  F   UNK N   1      33.484  20.964  -2.103  0.00  0.00    -0.165 F 
HETATM   15  F   UNK N   1      34.773  21.466  -3.873  0.00  0.00    -0.165 F 
HETATM   16  F   UNK N   1      34.080  19.354  -3.564  0.00  0.00    -0.165 F 
ENDBRANCH  10  13
ENDBRANCH   7  10
ENDBRANCH   4   7
ENDBRANCH   3   4
BRANCH   3  17
HETATM   17  C   UNK N   1      28.294  24.013  -4.410  0.00  0.00     0.385 C 
HETATM   18  F   UNK N   1      27.894  23.706  -3.120  0.00  0.00    -0.192 F 
HETATM   19  F   UNK N   1      27.735  23.086  -5.276  0.00  0.00    -0.192 F 
BRANCH  17  20
HETATM   20  C   UNK N   1      27.777  25.431  -4.780  0.00  0.00     0.388 C 
HETATM   21  F   UNK N   1      27.835  25.594  -6.156  0.00  0.00    -0.191 F 
HETATM   22  F   UNK N   1      28.589  26.390  -4.196  0.00  0.00    -0.191 F 
BRANCH  20  23
HETATM   23  C   UNK N   1      26.334  25.720  -4.306  0.00  0.00     0.370 C 
HETATM   24 Br   UNK N   1      25.464  27.159  -5.283  0.00  0.00    -0.004 Br
HETATM   25  F   UNK N   1      26.372  26.087  -2.973  0.00  0.00    -0.186 F 
HETATM   26  F   UNK N   1      25.562  24.582  -4.417  0.00  0.00    -0.186 F 
ENDBRANCH  20  23
ENDBRANCH  17  20
ENDBRANCH   3  17
TORSDOF 7
ENDMDL
MODEL 5
REMARK VINA RESULT:      -6.1      2.363      6.750
REMARK  7 active torsions:
REMARK  status: ('A' for Active; 'I' for Inactive)
REMARK    1  A    between atoms: C_19  and  C_20 
REMARK    2  A    between atoms: C_19  and  C_21 
REMARK    3  A    between atoms: C_20  and  C_22 
REMARK    4  A    between atoms: C_21  and  C_23 
REMARK    5  A    between atoms: C_22  and  C_24 
REMARK    6  A    between atoms: C_23  and  C_25 
REMARK    7  A    between atoms: C_24  and  C_26 
ROOT
HETATM    1  F   UNK N   1      28.716  25.146  -3.293  0.00  0.00    -0.192 F 
HETATM    2  F   UNK N   1      27.133  23.636  -3.824  0.00  0.00    -0.192 F 
HETATM    3  C   UNK N   1      28.128  24.453  -4.341  0.00  0.00     0.384 C 
ENDROOT
BRANCH   3   4
HETATM    4  C   UNK N   1      29.205  23.568  -5.025  0.00  0.00     0.384 C 
HETATM    5  F   UNK N   1      29.928  24.348  -5.914  0.00  0.00    -0.192 F 
HETATM    6  F   UNK N   1      28.577  22.558  -5.736  0.00  0.00    -0.192 F 
BRANCH   4   7
HETATM    7  C   UNK N   1      30.177  22.918  -4.003  0.00  0.00     0.387 C 
HETATM    8  F   UNK N   1      31.068  23.875  -3.541  0.00  0.00    -0.192 F 
HETATM    9  F   UNK N   1      29.443  22.445  -2.928  0.00  0.00    -0.192 F 
BRANCH   7  10
HETATM   10  C   UNK N   1      30.981  21.741  -4.620  0.00  0.00     0.409 C 
HETATM   11  F   UNK N   1      30.203  20.596  -4.638  0.00  0.00    -0.189 F 
HETATM   12  F   UNK N   1      31.332  22.055  -5.922  0.00  0.00    -0.189 F 
BRANCH  10  13
HETATM   13  C   UNK N   1      32.265  21.426  -3.832  0.00  0.00     0.461 C 
HETATM   14  F   UNK N   1      32.700  20.142  -4.092  0.00  0.00    -0.165 F 
HETATM   15  F   UNK N   1      32.008  21.542  -2.477  0.00  0.00    -0.165 F 
HETATM   16  F   UNK N   1      33.268  22.322  -4.162  0.00  0.00    -0.165 F 
ENDBRANCH  10  13
ENDBRANCH   7  10
ENDBRANCH   4   7
ENDBRANCH   3   4
BRANCH   3  17
HETATM   17  C   UNK N   1      27.471  25.459  -5.325  0.00  0.00     0.385 C 
HETATM   18  F   UNK N   1      27.343  24.846  -6.560  0.00  0.00    -0.192 F 
HETATM   19  F   UNK N   1      28.297  26.562  -5.465  0.00  0.00    -0.192 F 
BRANCH  17  20
HETATM   20  C   UNK N   1      26.072  25.929  -4.841  0.00  0.00     0.388 C 
HETATM   21  F   UNK N   1      26.068  26.005  -3.456  0.00  0.00    -0.191 F 
HETATM   22  F   UNK N   1      25.111  25.008  -5.226  0.00  0.00    -0.191 F 
BRANCH  20  23
HETATM   23  C   UNK N   1      25.632  27.296  -5.414  0.00  0.00     0.370 C 
HETATM   24 Br   UNK N   1      26.098  28.805  -4.280  0.00  0.00    -0.004 Br
HETATM   25  F   UNK N   1      24.257  27.294  -5.558  0.00  0.00    -0.186 F 
HETATM   26  F   UNK N   1      26.195  27.490  -6.659  0.00  0.00    -0.186 F 
ENDBRANCH  20  23
ENDBRANCH  17  20
ENDBRANCH   3  17
TORSDOF 7
ENDMDL
MODEL 6
REMARK VINA RESULT:      -6.0     13.114     17.416
REMARK  7 active torsions:
REMARK  status: ('A' for Active; 'I' for Inactive)
REMARK    1  A    between atoms: C_19  and  C_20 
REMARK    2  A    between atoms: C_19  and  C_21 
REMARK    3  A    between atoms: C_20  and  C_22 
REMARK    4  A    between atoms: C_21  and  C_23 
REMARK    5  A    between atoms: C_22  and  C_24 
REMARK    6  A    between atoms: C_23  and  C_25 
REMARK    7  A    between atoms: C_24  and  C_26 
ROOT
HETATM    1  F   UNK N   1      32.195  16.235   8.859  0.00  0.00    -0.192 F 
HETATM    2  F   UNK N   1      32.974  14.387   7.838  0.00  0.00    -0.192 F 
HETATM    3  C   UNK N   1      33.217  15.733   8.067  0.00  0.00     0.384 C 
ENDROOT
BRANCH   3   4
HETATM    4  C   UNK N   1      34.562  15.883   8.828  0.00  0.00     0.384 C 
HETATM    5  F   UNK N   1      34.729  17.212   9.184  0.00  0.00    -0.192 F 
HETATM    6  F   UNK N   1      35.602  15.519   7.987  0.00  0.00    -0.192 F 
BRANCH   4   7
HETATM    7  C   UNK N   1      34.627  14.997  10.101  0.00  0.00     0.387 C 
HETATM    8  F   UNK N   1      33.377  14.955  10.699  0.00  0.00    -0.192 F 
HETATM    9  F   UNK N   1      34.980  13.709   9.732  0.00  0.00    -0.192 F 
BRANCH   7  10
HETATM   10  C   UNK N   1      35.659  15.524  11.135  0.00  0.00     0.409 C 
HETATM   11  F   UNK N   1      36.859  15.803  10.504  0.00  0.00    -0.189 F 
HETATM   12  F   UNK N   1      35.182  16.690  11.709  0.00  0.00    -0.189 F 
BRANCH  10  13
HETATM   13  C   UNK N   1      35.942  14.509  12.258  0.00  0.00     0.461 C 
HETATM   14  F   UNK N   1      34.811  13.773  12.552  0.00  0.00    -0.165 F 
HETATM   15  F   UNK N   1      36.337  15.189  13.397  0.00  0.00    -0.165 F 
HETATM   16  F   UNK N   1      36.962  13.649  11.889  0.00  0.00    -0.165 F 
ENDBRANCH  10  13
ENDBRANCH   7  10
ENDBRANCH   4   7
ENDBRANCH   3   4
BRANCH   3  17
HETATM   17  C   UNK N   1      33.221  16.468   6.699  0.00  0.00     0.385 C 
HETATM   18  F   UNK N   1      33.907  15.687   5.783  0.00  0.00    -0.192 F 
HETATM   19  F   UNK N   1      33.887  17.675   6.834  0.00  0.00    -0.192 F 
BRANCH  17  20
HETATM   20  C   UNK N   1      31.786  16.734   6.168  0.00  0.00     0.388 C 
HETATM   21  F   UNK N   1      31.172  17.688   6.966  0.00  0.00    -0.191 F 
HETATM   22  F   UNK N   1      31.039  15.568   6.236  0.00  0.00    -0.191 F 
BRANCH  20  23
HETATM   23  C   UNK N   1      31.735  17.210   4.697  0.00  0.00     0.370 C 
HETATM   24 Br   UNK N   1      31.651  15.756   3.408  0.00  0.00    -0.004 Br
HETATM   25  F   UNK N   1      32.879  17.937   4.428  0.00  0.00    -0.186 F 
HETATM   26  F   UNK N   1      30.645  18.034   4.504  0.00  0.00    -0.186 F 
ENDBRANCH  20  23
ENDBRANCH  17  20
ENDBRANCH   3  17
TORSDOF 7
ENDMDL
MODEL 7
REMARK VINA RESULT:      -6.0     13.194     16.490
REMARK  7 active torsions:
REMARK  status: ('A' for Active; 'I' for Inactive)
REMARK    1  A    between atoms: C_19  and  C_20 
REMARK    2  A    between atoms: C_19  and  C_21 
REMARK    3  A    between atoms: C_20  and  C_22 
REMARK    4  A    between atoms: C_21  and  C_23 
REMARK    5  A    between atoms: C_22  and  C_24 
REMARK    6  A    between atoms: C_23  and  C_25 
REMARK    7  A    between atoms: C_24  and  C_26 
ROOT
HETATM    1  F   UNK N   1      34.441  17.311   9.375  0.00  0.00    -0.192 F 
HETATM    2  F   UNK N   1      35.290  15.742   8.003  0.00  0.00    -0.192 F 
HETATM    3  C   UNK N   1      34.286  16.010   8.922  0.00  0.00     0.384 C 
ENDROOT
BRANCH   3   4
HETATM    4  C   UNK N   1      32.907  15.885   8.217  0.00  0.00     0.384 C 
HETATM    5  F   UNK N   1      31.938  16.456   9.026  0.00  0.00    -0.192 F 
HETATM    6  F   UNK N   1      32.605  14.542   8.048  0.00  0.00    -0.192 F 
BRANCH   4   7
HETATM    7  C   UNK N   1      32.887  16.572   6.825  0.00  0.00     0.387 C 
HETATM    8  F   UNK N   1      33.562  17.781   6.897  0.00  0.00    -0.192 F 
HETATM    9  F   UNK N   1      33.540  15.757   5.916  0.00  0.00    -0.192 F 
BRANCH   7  10
HETATM   10  C   UNK N   1      31.443  16.834   6.318  0.00  0.00     0.409 C 
HETATM   11  F   UNK N   1      30.674  15.693   6.470  0.00  0.00    -0.189 F 
HETATM   12  F   UNK N   1      30.871  17.853   7.062  0.00  0.00    -0.189 F 
BRANCH  10  13
HETATM   13  C   UNK N   1      31.402  17.236   4.833  0.00  0.00     0.461 C 
HETATM   14  F   UNK N   1      30.291  18.010   4.562  0.00  0.00    -0.165 F 
HETATM   15  F   UNK N   1      31.346  16.092   4.054  0.00  0.00    -0.165 F 
HETATM   16  F   UNK N   1      32.543  17.940   4.489  0.00  0.00    -0.165 F 
ENDBRANCH  10  13
ENDBRANCH   7  10
ENDBRANCH   4   7
ENDBRANCH   3   4
BRANCH   3  17
HETATM   17  C   UNK N   1      34.438  15.024  10.112  0.00  0.00     0.385 C 
HETATM   18  F   UNK N   1      34.729  13.767   9.608  0.00  0.00    -0.192 F 
HETATM   19  F   UNK N   1      33.237  14.955  10.801  0.00  0.00    -0.192 F 
BRANCH  17  20
HETATM   20  C   UNK N   1      35.564  15.453  11.093  0.00  0.00     0.388 C 
HETATM   21  F   UNK N   1      35.189  16.624  11.735  0.00  0.00    -0.191 F 
HETATM   22  F   UNK N   1      36.729  15.702  10.385  0.00  0.00    -0.191 F 
BRANCH  20  23
HETATM   23  C   UNK N   1      35.910  14.390  12.161  0.00  0.00     0.370 C 
HETATM   24 Br   UNK N   1      37.218  13.080  11.564  0.00  0.00    -0.004 Br
HETATM   25  F   UNK N   1      34.756  13.703  12.491  0.00  0.00    -0.186 F 
HETATM   26  F   UNK N   1      36.388  15.002  13.301  0.00  0.00    -0.186 F 
ENDBRANCH  20  23
ENDBRANCH  17  20
ENDBRANCH   3  17
TORSDOF 7
ENDMDL
MODEL 8
REMARK VINA RESULT:      -5.9     10.542     12.720
REMARK  7 active torsions:
REMARK  status: ('A' for Active; 'I' for Inactive)
REMARK    1  A    between atoms: C_19  and  C_20 
REMARK    2  A    between atoms: C_19  and  C_21 
REMARK    3  A    between atoms: C_20  and  C_22 
REMARK    4  A    between atoms: C_21  and  C_23 
REMARK    5  A    between atoms: C_22  and  C_24 
REMARK    6  A    between atoms: C_23  and  C_25 
REMARK    7  A    between atoms: C_24  and  C_26 
ROOT
HETATM    1  F   UNK N   1      28.903  16.988   8.423  0.00  0.00    -0.192 F 
HETATM    2  F   UNK N   1      29.484  18.852   7.304  0.00  0.00    -0.192 F 
HETATM    3  C   UNK N   1      29.420  17.469   7.229  0.00  0.00     0.384 C 
ENDROOT
BRANCH   3   4
HETATM    4  C   UNK N   1      28.467  17.066   6.072  0.00  0.00     0.384 C 
HETATM    5  F   UNK N   1      27.909  15.831   6.359  0.00  0.00    -0.192 F 
HETATM    6  F   UNK N   1      29.199  16.957   4.900  0.00  0.00    -0.192 F 
BRANCH   4   7
HETATM    7  C   UNK N   1      27.334  18.104   5.847  0.00  0.00     0.387 C 
HETATM    8  F   UNK N   1      26.129  17.440   5.669  0.00  0.00    -0.192 F 
HETATM    9  F   UNK N   1      27.231  18.904   6.973  0.00  0.00    -0.192 F 
BRANCH   7  10
HETATM   10  C   UNK N   1      27.596  19.006   4.610  0.00  0.00     0.409 C 
HETATM   11  F   UNK N   1      28.927  19.384   4.576  0.00  0.00    -0.189 F 
HETATM   12  F   UNK N   1      27.310  18.298   3.455  0.00  0.00    -0.189 F 
BRANCH  10  13
HETATM   13  C   UNK N   1      26.742  20.286   4.621  0.00  0.00     0.461 C 
HETATM   14  F   UNK N   1      25.468  20.024   5.084  0.00  0.00    -0.165 F 
HETATM   15  F   UNK N   1      26.652  20.783   3.332  0.00  0.00    -0.165 F 
HETATM   16  F   UNK N   1      27.327  21.253   5.421  0.00  0.00    -0.165 F 
ENDBRANCH  10  13
ENDBRANCH   7  10
ENDBRANCH   4   7
ENDBRANCH   3   4
BRANCH   3  17
HETATM   17  C   UNK N   1      30.861  16.923   7.032  0.00  0.00     0.385 C 
HETATM   18  F   UNK N   1      31.431  17.572   5.949  0.00  0.00    -0.192 F 
HETATM   19  F   UNK N   1      30.800  15.568   6.750  0.00  0.00    -0.192 F 
BRANCH  17  20
HETATM   20  C   UNK N   1      31.752  17.143   8.285  0.00  0.00     0.388 C 
HETATM   21  F   UNK N   1      31.556  16.098   9.175  0.00  0.00    -0.191 F 
HETATM   22  F   UNK N   1      31.388  18.322   8.916  0.00  0.00    -0.191 F 
BRANCH  20  23
HETATM   23  C   UNK N   1      33.263  17.254   7.974  0.00  0.00     0.370 C 
HETATM   24 Br   UNK N   1      34.406  16.672   9.435  0.00  0.00    -0.004 Br
HETATM   25  F   UNK N   1      33.565  18.577   7.712  0.00  0.00    -0.186 F 
HETATM   26  F   UNK N   1      33.570  16.511   6.852  0.00  0.00    -0.186 F 
ENDBRANCH  20  23
ENDBRANCH  17  20
ENDBRANCH   3  17
TORSDOF 7
ENDMDL
MODEL 9
REMARK VINA RESULT:      -5.9      3.496      6.266
REMARK  7 active torsions:
REMARK  status: ('A' for Active; 'I' for Inactive)
REMARK    1  A    between atoms: C_19  and  C_20 
REMARK    2  A    between atoms: C_19  and  C_21 
REMARK    3  A    between atoms: C_20  and  C_22 
REMARK    4  A    between atoms: C_21  and  C_23 
REMARK    5  A    between atoms: C_22  and  C_24 
REMARK    6  A    between atoms: C_23  and  C_25 
REMARK    7  A    between atoms: C_24  and  C_26 
ROOT
HETATM    1  F   UNK N   1      26.961  24.771  -3.827  0.00  0.00    -0.192 F 
HETATM    2  F   UNK N   1      25.092  24.894  -5.075  0.00  0.00    -0.192 F 
HETATM    3  C   UNK N   1      26.471  25.042  -5.096  0.00  0.00     0.384 C 
ENDROOT
BRANCH   3   4
HETATM    4  C   UNK N   1      27.075  24.019  -6.096  0.00  0.00     0.384 C 
HETATM    5  F   UNK N   1      27.844  23.106  -5.394  0.00  0.00    -0.192 F 
HETATM    6  F   UNK N   1      27.896  24.691  -6.989  0.00  0.00    -0.192 F 
BRANCH   4   7
HETATM    7  C   UNK N   1      25.987  23.263  -6.904  0.00  0.00     0.387 C 
HETATM    8  F   UNK N   1      25.183  22.542  -6.033  0.00  0.00    -0.192 F 
HETATM    9  F   UNK N   1      25.197  24.188  -7.566  0.00  0.00    -0.192 F 
BRANCH   7  10
HETATM   10  C   UNK N   1      26.597  22.286  -7.946  0.00  0.00     0.409 C 
HETATM   11  F   UNK N   1      27.080  22.996  -9.032  0.00  0.00    -0.189 F 
HETATM   12  F   UNK N   1      27.649  21.595  -7.369  0.00  0.00    -0.189 F 
BRANCH  10  13
HETATM   13  C   UNK N   1      25.572  21.264  -8.469  0.00  0.00     0.461 C 
HETATM   14  F   UNK N   1      25.647  20.083  -7.757  0.00  0.00    -0.165 F 
HETATM   15  F   UNK N   1      25.836  20.996  -9.801  0.00  0.00    -0.165 F 
HETATM   16  F   UNK N   1      24.288  21.773  -8.374  0.00  0.00    -0.165 F 
ENDBRANCH  10  13
ENDBRANCH   7  10
ENDBRANCH   4   7
ENDBRANCH   3   4
BRANCH   3  17
HETATM   17  C   UNK N   1      26.798  26.512  -5.476  0.00  0.00     0.385 C 
HETATM   18  F   UNK N   1      26.404  26.725  -6.786  0.00  0.00    -0.192 F 
HETATM   19  F   UNK N   1      28.167  26.709  -5.391  0.00  0.00    -0.192 F 
BRANCH  17  20
HETATM   20  C   UNK N   1      26.078  27.533  -4.553  0.00  0.00     0.388 C 
HETATM   21  F   UNK N   1      25.980  27.006  -3.275  0.00  0.00    -0.191 F 
HETATM   22  F   UNK N   1      24.796  27.765  -5.025  0.00  0.00    -0.191 F 
BRANCH  20  23
HETATM   23  C   UNK N   1      26.777  28.910  -4.470  0.00  0.00     0.370 C 
HETATM   24 Br   UNK N   1      28.321  28.932  -3.288  0.00  0.00    -0.004 Br
HETATM   25  F   UNK N   1      25.872  29.837  -3.988  0.00  0.00    -0.186 F 
HETATM   26  F   UNK N   1      27.179  29.314  -5.727  0.00  0.00    -0.186 F 
ENDBRANCH  20  23
ENDBRANCH  17  20
ENDBRANCH   3  17
TORSDOF 7
ENDMDL
