MODEL 1
REMARK VINA RESULT:     -23.2      0.000      0.000
REMARK  10 active torsions:
REMARK  status: ('A' for Active; 'I' for Inactive)
REMARK    1  A    between atoms: N_15  and  C_38 
REMARK    2  A    between atoms: C_23  and  C_26 
REMARK    3  A    between atoms: C_24  and  C_25 
REMARK    4  A    between atoms: C_30  and  C_37 
REMARK    5  A    between atoms: C_33  and  C_34 
REMARK    6  A    between atoms: C_43  and  C_47 
REMARK    7  A    between atoms: C_58  and  C_59 
REMARK    8  A    between atoms: C_63  and  C_64 
REMARK    9  A    between atoms: C_69  and  C_71 
REMARK   10  A    between atoms: C_74  and  C_76 
ROOT
HETATM    1  O   UNK N   1      21.539  20.362   2.731  0.00  0.00    -0.393 OA
HETATM    2  O   UNK N   1      23.902  18.595   4.052  0.00  0.00    -0.271 OA
HETATM    3  O   UNK N   1      23.528  17.509   4.630  0.00  0.00    -0.271 OA
HETATM    4  O   UNK N   1      20.770  21.731   1.843  0.00  0.00    -0.394 OA
HETATM    5  O   UNK N   1      22.696  15.827   5.493  0.00  0.00    -0.398 OA
HETATM    6  O   UNK N   1      22.396  19.299   3.453  0.00  0.00    -0.271 OA
HETATM    7  O   UNK N   1      21.971  18.999   3.572  0.00  0.00    -0.271 OA
HETATM    8  O   UNK N   1      22.102  16.966   4.760  0.00  0.00    -0.393 OA
HETATM    9  O   UNK N   1      20.338  17.493   4.230  0.00  0.00    -0.271 OA
HETATM   10  O   UNK N   1      23.289  20.873   2.661  0.00  0.00    -0.393 OA
HETATM   11  O   UNK N   1      22.421  18.528   3.901  0.00  0.00    -0.271 OA
HETATM   12  O   UNK N   1      23.639  15.896   5.574  0.00  0.00    -0.268 OA
HETATM   13  O   UNK N   1      29.597  17.690   5.304  0.00  0.00    -0.351 OA
HETATM   14  N   UNK N   1      22.244  18.247   4.041  0.00  0.00    -0.334 N 
HETATM   15  N   UNK N   1      21.992  20.295   2.828  0.00  0.00    -0.334 N 
HETATM   16  N   UNK N   1      24.098  19.465   3.576  0.00  0.00    -0.357 N 
HETATM   17  N   UNK N   1      21.661  16.878   4.754  0.00  0.00    -0.344 N 
HETATM   18  N   UNK N   1      21.099  18.721   3.620  0.00  0.00    -0.344 N 
HETATM   19  N   UNK N   1      25.793  18.434   4.387  0.00  0.00    -0.414 N 
HETATM   20  N   UNK N   1      23.479  19.000   3.765  0.00  0.00    -0.344 N 
HETATM   21  N   UNK N   1      23.413  17.106   4.848  0.00  0.00    -0.344 N 
HETATM   22  N   UNK N   1      27.716  19.415   4.069  0.00  0.00    -0.429 N 
HETATM   23  C   UNK N   1      20.643  19.071   3.360  0.00  0.00     0.031 A 
HETATM   24  C   UNK N   1      21.704  19.671   3.150  0.00  0.00     0.155 A 
HETATM   25  C   UNK N   1      22.537  18.930   3.684  0.00  0.00     0.208 A 
HETATM   26  C   UNK N   1      21.023  18.074   3.983  0.00  0.00     0.134 A 
HETATM   27  C   UNK N   1      19.877  19.284   3.139  0.00  0.00     0.014 A 
HETATM   28  C   UNK N   1      23.346  19.089   3.696  0.00  0.00     0.243 A 
HETATM   29  C   UNK N   1      22.763  17.721   4.410  0.00  0.00     0.245 A 
HETATM   30  C   UNK N   1      21.244  19.961   2.924  0.00  0.00     0.181 A 
HETATM   31  C   UNK N   1      22.470  17.037   4.767  0.00  0.00     0.200 A 
HETATM   32  C   UNK N   1      20.698  20.459   2.567  0.00  0.00     0.068 A 
HETATM   33  C   UNK N   1      21.105  21.098   2.251  0.00  0.00     0.138 A 
HETATM   34  C   UNK N   1      21.903  20.996   2.412  0.00  0.00     0.158 A 
HETATM   35  C   UNK N   1      24.865  19.253   3.796  0.00  0.00     0.147 A 
HETATM   36  C   UNK N   1      24.995  18.555   4.216  0.00  0.00     0.096 A 
HETATM   37  C   UNK N   1      21.580  19.328   3.332  0.00  0.00     0.241 A 
HETATM   38  C   UNK N   1      22.328  19.661   3.236  0.00  0.00     0.246 A 
HETATM   39  C   UNK N   1      22.988  16.511   5.136  0.00  0.00     0.199 A 
HETATM   40  C   UNK N   1      21.435  18.088   4.028  0.00  0.00     0.205 A 
HETATM   41  C   UNK N   1      24.514  17.949   4.503  0.00  0.00     0.061 A 
HETATM   42  C   UNK N   1      23.144  19.634   3.356  0.00  0.00     0.205 A 
HETATM   43  C   UNK N   1      23.705  17.790   4.491  0.00  0.00     0.179 A 
HETATM   44  C   UNK N   1      21.144  17.404   4.385  0.00  0.00     0.243 A 
HETATM   45  C   UNK N   1      21.458  17.375   4.442  0.00  0.00     0.154 A 
HETATM   46  C   UNK N   1      23.624  20.239   3.069  0.00  0.00     0.146 A 
HETATM   47  C   UNK N   1      23.187  18.316   4.121  0.00  0.00     0.241 A 
HETATM   48  C   UNK N   1      20.697  17.069   4.521  0.00  0.00     0.073 A 
HETATM   49  C   UNK N   1      26.355  18.985   4.142  0.00  0.00     0.133 A 
HETATM   50  C   UNK N   1      24.372  20.574   2.972  0.00  0.00     0.042 A 
HETATM   51  C   UNK N   1      20.188  16.480   4.795  0.00  0.00    -0.056 A 
HETATM   52  C   UNK N   1      27.154  18.864   4.314  0.00  0.00     0.130 A 
HETATM   53  C   UNK N   1      23.930  16.580   5.217  0.00  0.00     0.252 A 
HETATM   54  C   UNK N   1      20.490  15.832   5.207  0.00  0.00     0.007 A 
HETATM   55  C   UNK N   1      19.376  16.539   4.657  0.00  0.00     0.007 A 
HETATM   56  C   UNK N   1      24.740  16.739   5.230  0.00  0.00     0.032 A 
HETATM   57  C   UNK N   1      19.981  15.244   5.481  0.00  0.00     0.001 A 
HETATM   58  C   UNK N   1      18.868  15.950   4.932  0.00  0.00     0.001 A 
HETATM   59  C   UNK N   1      19.170  15.302   5.343  0.00  0.00     0.000 A 
HETATM   60  C   UNK N   1      25.258  16.213   5.599  0.00  0.00     0.018 A 
HETATM   61  C   UNK N   1      25.032  17.423   4.873  0.00  0.00     0.018 A 
HETATM   62  C   UNK N   1      26.068  16.372   5.612  0.00  0.00     0.013 A 
HETATM   63  C   UNK N   1      25.842  17.581   4.885  0.00  0.00     0.013 A 
HETATM   64  C   UNK N   1      26.359  17.056   5.254  0.00  0.00    -0.026 A 
HETATM   65  C   UNK N   1      27.169  17.215   5.267  0.00  0.00    -0.026 A 
HETATM   66  C   UNK N   1      27.461  17.898   4.910  0.00  0.00     0.015 A 
HETATM   67  C   UNK N   1      27.687  16.689   5.636  0.00  0.00     0.015 A 
HETATM   68  C   UNK N   1      28.271  18.057   4.922  0.00  0.00     0.037 A 
HETATM   69  C   UNK N   1      28.496  16.847   5.649  0.00  0.00     0.037 A 
HETATM   70  C   UNK N   1      32.252  16.956   6.067  0.00  0.00     0.000 A 
HETATM   71  C   UNK N   1      28.788  17.532   5.292  0.00  0.00     0.068 A 
HETATM   72  C   UNK N   1      31.442  16.797   6.055  0.00  0.00     0.002 A 
HETATM   73  C   UNK N   1      32.770  16.431   6.437  0.00  0.00     0.000 A 
HETATM   74  C   UNK N   1      30.925  17.323   5.686  0.00  0.00     0.027 A 
HETATM   75  C   UNK N   1      33.579  16.589   6.449  0.00  0.00    -0.000 A 
HETATM   76  C   UNK N   1      30.115  17.164   5.674  0.00  0.00     0.175 A 
HETATM   77  C   UNK N   1      34.096  16.063   6.819  0.00  0.00    -0.005 A 
HETATM   78  C   UNK N   1      34.906  16.222   6.831  0.00  0.00     0.005 A 
HETATM   79  H   UNK N   1      22.262  20.960   2.479  0.00  0.00     0.210 HD
HETATM   80  H   UNK N   1      21.335  22.443   1.505  0.00  0.00     0.210 HD
HETATM   81  H   UNK N   1      21.744  15.641   5.479  0.00  0.00     0.209 HD
HETATM   82  H   UNK N   1      21.962  16.127   5.226  0.00  0.00     0.210 HD
HETATM   83  H   UNK N   1      23.854  21.586   2.322  0.00  0.00     0.210 HD
HETATM   84  H   UNK N   1      24.045  20.314   3.080  0.00  0.00     0.162 HD
HETATM   85  H   UNK N   1      21.313  16.062   5.181  0.00  0.00     0.163 HD
HETATM   86  H   UNK N   1      20.127  18.754   3.477  0.00  0.00     0.163 HD
HETATM   87  H   UNK N   1      26.083  17.603   4.904  0.00  0.00     0.153 HD
HETATM   88  H   UNK N   1      24.457  19.078   3.845  0.00  0.00     0.163 HD
HETATM   89  H   UNK N   1      22.447  16.916   4.833  0.00  0.00     0.163 HD
HETATM   90  H   UNK N   1      28.702  19.266   4.281  0.00  0.00     0.149 HD
HETATM   91  H   UNK N   1      27.426  20.246   3.552  0.00  0.00     0.149 HD
ENDROOT
TORSDOF 10
ENDMDL
MODEL 2
REMARK VINA RESULT:     -21.8      2.931     10.230
REMARK  10 active torsions:
REMARK  status: ('A' for Active; 'I' for Inactive)
REMARK    1  A    between atoms: N_15  and  C_38 
REMARK    2  A    between atoms: C_23  and  C_26 
REMARK    3  A    between atoms: C_24  and  C_25 
REMARK    4  A    between atoms: C_30  and  C_37 
REMARK    5  A    between atoms: C_33  and  C_34 
REMARK    6  A    between atoms: C_43  and  C_47 
REMARK    7  A    between atoms: C_58  and  C_59 
REMARK    8  A    between atoms: C_63  and  C_64 
REMARK    9  A    between atoms: C_69  and  C_71 
REMARK   10  A    between atoms: C_74  and  C_76 
ROOT
HETATM    1  O   UNK N   1      33.274  16.852   8.278  0.00  0.00    -0.393 OA
HETATM    2  O   UNK N   1      30.806  17.032   6.197  0.00  0.00    -0.271 OA
HETATM    3  O   UNK N   1      31.002  16.480   5.053  0.00  0.00    -0.271 OA
HETATM    4  O   UNK N   1      34.191  17.098   9.812  0.00  0.00    -0.394 OA
HETATM    5  O   UNK N   1      31.542  15.532   3.299  0.00  0.00    -0.398 OA
HETATM    6  O   UNK N   1      32.319  16.755   7.069  0.00  0.00    -0.271 OA
HETATM    7  O   UNK N   1      32.675  16.485   6.775  0.00  0.00    -0.271 OA
HETATM    8  O   UNK N   1      32.262  15.753   4.573  0.00  0.00    -0.393 OA
HETATM    9  O   UNK N   1      33.991  15.314   5.271  0.00  0.00    -0.271 OA
HETATM   10  O   UNK N   1      31.707  17.684   8.701  0.00  0.00    -0.393 OA
HETATM   11  O   UNK N   1      32.186  16.468   6.234  0.00  0.00    -0.271 OA
HETATM   12  O   UNK N   1      30.667  15.901   3.304  0.00  0.00    -0.268 OA
HETATM   13  O   UNK N   1      25.338  18.755   4.801  0.00  0.00    -0.351 OA
HETATM   14  N   UNK N   1      32.311  16.296   5.944  0.00  0.00    -0.334 N 
HETATM   15  N   UNK N   1      32.840  16.991   8.172  0.00  0.00    -0.334 N 
HETATM   16  N   UNK N   1      30.747  17.438   7.122  0.00  0.00    -0.357 N 
HETATM   17  N   UNK N   1      32.663  15.559   4.510  0.00  0.00    -0.344 N 
HETATM   18  N   UNK N   1      33.452  16.062   6.540  0.00  0.00    -0.344 N 
HETATM   19  N   UNK N   1      29.011  17.658   5.885  0.00  0.00    -0.414 N 
HETATM   20  N   UNK N   1      31.261  17.034   6.666  0.00  0.00    -0.344 N 
HETATM   21  N   UNK N   1      31.052  16.283   4.626  0.00  0.00    -0.344 N 
HETATM   22  N   UNK N   1      27.348  18.733   6.801  0.00  0.00    -0.429 N 
HETATM   23  C   UNK N   1      33.930  16.031   6.951  0.00  0.00     0.031 A 
HETATM   24  C   UNK N   1      33.021  16.647   7.521  0.00  0.00     0.155 A 
HETATM   25  C   UNK N   1      32.134  16.665   6.660  0.00  0.00     0.208 A 
HETATM   26  C   UNK N   1      33.432  15.786   5.847  0.00  0.00     0.134 A 
HETATM   27  C   UNK N   1      34.678  15.834   7.237  0.00  0.00     0.014 A 
HETATM   28  C   UNK N   1      31.398  17.020   6.771  0.00  0.00     0.243 A 
HETATM   29  C   UNK N   1      31.750  16.283   5.338  0.00  0.00     0.245 A 
HETATM   30  C   UNK N   1      33.494  16.591   7.867  0.00  0.00     0.181 A 
HETATM   31  C   UNK N   1      31.926  15.914   4.621  0.00  0.00     0.200 A 
HETATM   32  C   UNK N   1      34.076  16.584   8.445  0.00  0.00     0.068 A 
HETATM   33  C   UNK N   1      33.786  16.977   9.104  0.00  0.00     0.138 A 
HETATM   34  C   UNK N   1      33.023  17.228   8.935  0.00  0.00     0.158 A 
HETATM   35  C   UNK N   1      29.998  17.635   6.836  0.00  0.00     0.147 A 
HETATM   36  C   UNK N   1      29.776  17.414   6.073  0.00  0.00     0.096 A 
HETATM   37  C   UNK N   1      33.088  16.470   7.159  0.00  0.00     0.241 A 
HETATM   38  C   UNK N   1      32.434  16.870   7.464  0.00  0.00     0.246 A 
HETATM   39  C   UNK N   1      31.365  15.900   4.016  0.00  0.00     0.199 A 
HETATM   40  C   UNK N   1      33.047  15.941   5.832  0.00  0.00     0.205 A 
HETATM   41  C   UNK N   1      30.140  17.007   5.455  0.00  0.00     0.061 A 
HETATM   42  C   UNK N   1      31.666  17.156   7.374  0.00  0.00     0.205 A 
HETATM   43  C   UNK N   1      30.877  16.652   5.343  0.00  0.00     0.179 A 
HETATM   44  C   UNK N   1      33.222  15.573   5.115  0.00  0.00     0.243 A 
HETATM   45  C   UNK N   1      32.923  15.676   5.061  0.00  0.00     0.154 A 
HETATM   46  C   UNK N   1      31.302  17.563   7.992  0.00  0.00     0.146 A 
HETATM   47  C   UNK N   1      31.437  16.666   5.949  0.00  0.00     0.241 A 
HETATM   48  C   UNK N   1      33.594  15.281   4.786  0.00  0.00     0.073 A 
HETATM   49  C   UNK N   1      28.562  18.073   6.437  0.00  0.00     0.133 A 
HETATM   50  C   UNK N   1      30.648  17.963   8.298  0.00  0.00     0.042 A 
HETATM   51  C   UNK N   1      33.987  14.871   4.189  0.00  0.00    -0.056 A 
HETATM   52  C   UNK N   1      27.796  18.317   6.248  0.00  0.00     0.130 A 
HETATM   53  C   UNK N   1      30.492  16.269   4.021  0.00  0.00     0.252 A 
HETATM   54  C   UNK N   1      33.611  14.732   3.467  0.00  0.00     0.007 A 
HETATM   55  C   UNK N   1      34.756  14.598   4.312  0.00  0.00     0.007 A 
HETATM   56  C   UNK N   1      29.756  16.624   4.133  0.00  0.00     0.032 A 
HETATM   57  C   UNK N   1      34.004  14.321   2.870  0.00  0.00     0.001 A 
HETATM   58  C   UNK N   1      35.148  14.187   3.714  0.00  0.00     0.001 A 
HETATM   59  C   UNK N   1      34.773  14.049   2.993  0.00  0.00     0.000 A 
HETATM   60  C   UNK N   1      29.195  16.611   3.527  0.00  0.00     0.018 A 
HETATM   61  C   UNK N   1      29.579  16.993   4.849  0.00  0.00     0.018 A 
HETATM   62  C   UNK N   1      28.459  16.966   3.638  0.00  0.00     0.013 A 
HETATM   63  C   UNK N   1      28.843  17.348   4.961  0.00  0.00     0.013 A 
HETATM   64  C   UNK N   1      28.283  17.335   4.356  0.00  0.00    -0.026 A 
HETATM   65  C   UNK N   1      27.547  17.690   4.467  0.00  0.00    -0.026 A 
HETATM   66  C   UNK N   1      27.370  18.058   5.184  0.00  0.00     0.015 A 
HETATM   67  C   UNK N   1      26.986  17.676   3.861  0.00  0.00     0.015 A 
HETATM   68  C   UNK N   1      26.634  18.413   5.295  0.00  0.00     0.037 A 
HETATM   69  C   UNK N   1      26.250  18.031   3.973  0.00  0.00     0.037 A 
HETATM   70  C   UNK N   1      22.745  19.438   3.814  0.00  0.00     0.000 A 
HETATM   71  C   UNK N   1      26.074  18.400   4.690  0.00  0.00     0.068 A 
HETATM   72  C   UNK N   1      23.481  19.082   3.702  0.00  0.00     0.002 A 
HETATM   73  C   UNK N   1      22.184  19.424   3.209  0.00  0.00     0.000 A 
HETATM   74  C   UNK N   1      24.041  19.096   4.307  0.00  0.00     0.027 A 
HETATM   75  C   UNK N   1      21.448  19.779   3.320  0.00  0.00    -0.000 A 
HETATM   76  C   UNK N   1      24.777  18.741   4.196  0.00  0.00     0.175 A 
HETATM   77  C   UNK N   1      20.887  19.765   2.715  0.00  0.00    -0.005 A 
HETATM   78  C   UNK N   1      20.151  20.120   2.826  0.00  0.00     0.005 A 
HETATM   79  H   UNK N   1      32.682  17.344   8.870  0.00  0.00     0.210 HD
HETATM   80  H   UNK N   1      33.763  17.577  10.539  0.00  0.00     0.210 HD
HETATM   81  H   UNK N   1      32.408  15.114   3.168  0.00  0.00     0.209 HD
HETATM   82  H   UNK N   1      32.273  15.380   3.677  0.00  0.00     0.210 HD
HETATM   83  H   UNK N   1      31.279  18.163   9.428  0.00  0.00     0.210 HD
HETATM   84  H   UNK N   1      30.918  17.744   8.042  0.00  0.00     0.162 HD
HETATM   85  H   UNK N   1      32.872  15.119   3.654  0.00  0.00     0.163 HD
HETATM   86  H   UNK N   1      34.369  15.721   6.647  0.00  0.00     0.163 HD
HETATM   87  H   UNK N   1      28.620  17.444   4.966  0.00  0.00     0.153 HD
HETATM   88  H   UNK N   1      30.355  17.420   6.678  0.00  0.00     0.163 HD
HETATM   89  H   UNK N   1      31.931  15.859   4.493  0.00  0.00     0.163 HD
HETATM   90  H   UNK N   1      26.402  19.034   6.567  0.00  0.00     0.149 HD
HETATM   91  H   UNK N   1      27.739  18.947   7.719  0.00  0.00     0.149 HD
ENDROOT
TORSDOF 10
ENDMDL
MODEL 3
REMARK VINA RESULT:     -21.7      4.853     12.495
REMARK  10 active torsions:
REMARK  status: ('A' for Active; 'I' for Inactive)
REMARK    1  A    between atoms: N_15  and  C_38 
REMARK    2  A    between atoms: C_23  and  C_26 
REMARK    3  A    between atoms: C_24  and  C_25 
REMARK    4  A    between atoms: C_30  and  C_37 
REMARK    5  A    between atoms: C_33  and  C_34 
REMARK    6  A    between atoms: C_43  and  C_47 
REMARK    7  A    between atoms: C_58  and  C_59 
REMARK    8  A    between atoms: C_63  and  C_64 
REMARK    9  A    between atoms: C_69  and  C_71 
REMARK   10  A    between atoms: C_74  and  C_76 
ROOT
HETATM    1  O   UNK N   1      34.724  14.290  10.593  0.00  0.00    -0.393 OA
HETATM    2  O   UNK N   1      33.202  15.580   8.049  0.00  0.00    -0.271 OA
HETATM    3  O   UNK N   1      33.851  15.552   6.940  0.00  0.00    -0.271 OA
HETATM    4  O   UNK N   1      34.982  13.767  12.300  0.00  0.00    -0.394 OA
HETATM    5  O   UNK N   1      35.076  15.396   5.284  0.00  0.00    -0.398 OA
HETATM    6  O   UNK N   1      34.299  14.812   9.204  0.00  0.00    -0.271 OA
HETATM    7  O   UNK N   1      34.757  14.660   8.976  0.00  0.00    -0.271 OA
HETATM    8  O   UNK N   1      35.251  14.982   6.693  0.00  0.00    -0.393 OA
HETATM    9  O   UNK N   1      36.624  14.121   7.715  0.00  0.00    -0.271 OA
HETATM   10  O   UNK N   1      33.053  15.010  10.724  0.00  0.00    -0.393 OA
HETATM   11  O   UNK N   1      34.508  14.923   8.343  0.00  0.00    -0.271 OA
HETATM   12  O   UNK N   1      34.237  15.811   5.126  0.00  0.00    -0.268 OA
HETATM   13  O   UNK N   1      28.531  18.256   5.632  0.00  0.00    -0.351 OA
HETATM   14  N   UNK N   1      34.745  14.880   8.075  0.00  0.00    -0.334 N 
HETATM   15  N   UNK N   1      34.351  14.502  10.406  0.00  0.00    -0.334 N 
HETATM   16  N   UNK N   1      32.772  15.555   8.964  0.00  0.00    -0.357 N 
HETATM   17  N   UNK N   1      35.660  14.795   6.705  0.00  0.00    -0.344 N 
HETATM   18  N   UNK N   1      35.597  14.304   8.885  0.00  0.00    -0.344 N 
HETATM   19  N   UNK N   1      31.610  16.450   7.402  0.00  0.00    -0.414 N 
HETATM   20  N   UNK N   1      33.448  15.337   8.603  0.00  0.00    -0.344 N 
HETATM   21  N   UNK N   1      34.071  15.553   6.522  0.00  0.00    -0.344 N 
HETATM   22  N   UNK N   1      29.648  17.187   8.009  0.00  0.00    -0.429 N 
HETATM   23  C   UNK N   1      35.888  14.054   9.386  0.00  0.00     0.031 A 
HETATM   24  C   UNK N   1      34.788  14.453   9.787  0.00  0.00     0.155 A 
HETATM   25  C   UNK N   1      34.287  14.923   8.760  0.00  0.00     0.208 A 
HETATM   26  C   UNK N   1      35.856  14.353   8.188  0.00  0.00     0.134 A 
HETATM   27  C   UNK N   1      36.489  13.682   9.812  0.00  0.00     0.014 A 
HETATM   28  C   UNK N   1      33.537  15.266   8.734  0.00  0.00     0.243 A 
HETATM   29  C   UNK N   1      34.452  15.181   7.364  0.00  0.00     0.245 A 
HETATM   30  C   UNK N   1      35.100  14.209  10.222  0.00  0.00     0.181 A 
HETATM   31  C   UNK N   1      34.910  15.138   6.680  0.00  0.00     0.200 A 
HETATM   32  C   UNK N   1      35.425  13.899  10.909  0.00  0.00     0.068 A 
HETATM   33  C   UNK N   1      34.881  13.999  11.515  0.00  0.00     0.138 A 
HETATM   34  C   UNK N   1      34.219  14.371  11.204  0.00  0.00     0.158 A 
HETATM   35  C   UNK N   1      32.170  15.927   8.539  0.00  0.00     0.147 A 
HETATM   36  C   UNK N   1      32.266  16.076   7.733  0.00  0.00     0.096 A 
HETATM   37  C   UNK N   1      34.998  14.442   9.437  0.00  0.00     0.241 A 
HETATM   38  C   UNK N   1      34.249  14.735   9.621  0.00  0.00     0.246 A 
HETATM   39  C   UNK N   1      34.618  15.439   5.969  0.00  0.00     0.199 A 
HETATM   40  C   UNK N   1      35.495  14.537   8.101  0.00  0.00     0.205 A 
HETATM   41  C   UNK N   1      32.864  15.939   7.182  0.00  0.00     0.061 A 
HETATM   42  C   UNK N   1      33.550  15.105   9.388  0.00  0.00     0.205 A 
HETATM   43  C   UNK N   1      33.614  15.595   7.207  0.00  0.00     0.179 A 
HETATM   44  C   UNK N   1      35.952  14.495   7.415  0.00  0.00     0.243 A 
HETATM   45  C   UNK N   1      35.688  14.640   7.305  0.00  0.00     0.154 A 
HETATM   46  C   UNK N   1      32.952  15.242   9.939  0.00  0.00     0.146 A 
HETATM   47  C   UNK N   1      33.906  15.295   7.918  0.00  0.00     0.241 A 
HETATM   48  C   UNK N   1      36.440  14.337   7.156  0.00  0.00     0.073 A 
HETATM   49  C   UNK N   1      30.957  16.632   7.872  0.00  0.00     0.133 A 
HETATM   50  C   UNK N   1      32.203  15.535  10.124  0.00  0.00     0.042 A 
HETATM   51  C   UNK N   1      37.057  14.185   6.630  0.00  0.00    -0.056 A 
HETATM   52  C   UNK N   1      30.301  17.006   7.539  0.00  0.00     0.130 A 
HETATM   53  C   UNK N   1      33.780  15.853   5.812  0.00  0.00     0.252 A 
HETATM   54  C   UNK N   1      36.989  14.404   5.838  0.00  0.00     0.007 A 
HETATM   55  C   UNK N   1      37.744  13.813   6.897  0.00  0.00     0.007 A 
HETATM   56  C   UNK N   1      33.030  16.197   5.786  0.00  0.00     0.032 A 
HETATM   57  C   UNK N   1      37.606  14.252   5.312  0.00  0.00     0.001 A 
HETATM   58  C   UNK N   1      38.361  13.660   6.371  0.00  0.00     0.001 A 
HETATM   59  C   UNK N   1      38.292  13.880   5.579  0.00  0.00     0.000 A 
HETATM   60  C   UNK N   1      32.738  16.497   5.075  0.00  0.00     0.018 A 
HETATM   61  C   UNK N   1      32.572  16.239   6.470  0.00  0.00     0.018 A 
HETATM   62  C   UNK N   1      31.988  16.841   5.049  0.00  0.00     0.013 A 
HETATM   63  C   UNK N   1      31.822  16.583   6.445  0.00  0.00     0.013 A 
HETATM   64  C   UNK N   1      31.530  16.883   5.735  0.00  0.00    -0.026 A 
HETATM   65  C   UNK N   1      30.781  17.226   5.709  0.00  0.00    -0.026 A 
HETATM   66  C   UNK N   1      30.323  17.269   6.394  0.00  0.00     0.015 A 
HETATM   67  C   UNK N   1      30.488  17.527   4.998  0.00  0.00     0.015 A 
HETATM   68  C   UNK N   1      29.573  17.612   6.368  0.00  0.00     0.037 A 
HETATM   69  C   UNK N   1      29.739  17.870   4.972  0.00  0.00     0.037 A 
HETATM   70  C   UNK N   1      26.448  19.544   4.160  0.00  0.00     0.000 A 
HETATM   71  C   UNK N   1      29.281  17.913   5.658  0.00  0.00     0.068 A 
HETATM   72  C   UNK N   1      27.198  19.200   4.186  0.00  0.00     0.002 A 
HETATM   73  C   UNK N   1      26.155  19.844   3.450  0.00  0.00     0.000 A 
HETATM   74  C   UNK N   1      27.489  18.900   4.896  0.00  0.00     0.027 A 
HETATM   75  C   UNK N   1      25.405  20.187   3.424  0.00  0.00    -0.000 A 
HETATM   76  C   UNK N   1      28.239  18.557   4.921  0.00  0.00     0.175 A 
HETATM   77  C   UNK N   1      25.114  20.488   2.713  0.00  0.00    -0.005 A 
HETATM   78  C   UNK N   1      24.364  20.831   2.687  0.00  0.00     0.005 A 
HETATM   79  H   UNK N   1      33.919  14.537  11.076  0.00  0.00     0.210 HD
HETATM   80  H   UNK N   1      34.279  13.928  12.948  0.00  0.00     0.210 HD
HETATM   81  H   UNK N   1      35.958  14.993   5.314  0.00  0.00     0.209 HD
HETATM   82  H   UNK N   1      35.624  15.027   5.799  0.00  0.00     0.210 HD
HETATM   83  H   UNK N   1      32.350  15.171  11.373  0.00  0.00     0.210 HD
HETATM   84  H   UNK N   1      32.564  15.422   9.917  0.00  0.00     0.162 HD
HETATM   85  H   UNK N   1      36.206  14.744   5.887  0.00  0.00     0.163 HD
HETATM   86  H   UNK N   1      36.430  13.863   9.164  0.00  0.00     0.163 HD
HETATM   87  H   UNK N   1      31.606  16.688   6.409  0.00  0.00     0.153 HD
HETATM   88  H   UNK N   1      32.576  15.767   8.447  0.00  0.00     0.163 HD
HETATM   89  H   UNK N   1      34.967  15.143   6.552  0.00  0.00     0.163 HD
HETATM   90  H   UNK N   1      28.837  17.650   7.599  0.00  0.00     0.149 HD
HETATM   91  H   UNK N   1      29.652  16.949   9.002  0.00  0.00     0.149 HD
ENDROOT
TORSDOF 10
ENDMDL
MODEL 4
REMARK VINA RESULT:     -21.5     13.303     16.196
REMARK  10 active torsions:
REMARK  status: ('A' for Active; 'I' for Inactive)
REMARK    1  A    between atoms: N_15  and  C_38 
REMARK    2  A    between atoms: C_23  and  C_26 
REMARK    3  A    between atoms: C_24  and  C_25 
REMARK    4  A    between atoms: C_30  and  C_37 
REMARK    5  A    between atoms: C_33  and  C_34 
REMARK    6  A    between atoms: C_43  and  C_47 
REMARK    7  A    between atoms: C_58  and  C_59 
REMARK    8  A    between atoms: C_63  and  C_64 
REMARK    9  A    between atoms: C_69  and  C_71 
REMARK   10  A    between atoms: C_74  and  C_76 
ROOT
HETATM    1  O   UNK N   1      35.929  15.039  11.243  0.00  0.00    -0.393 OA
HETATM    2  O   UNK N   1      35.281  12.791  13.475  0.00  0.00    -0.271 OA
HETATM    3  O   UNK N   1      34.751  11.706  13.033  0.00  0.00    -0.271 OA
HETATM    4  O   UNK N   1      36.508  16.609  10.568  0.00  0.00    -0.394 OA
HETATM    5  O   UNK N   1      33.912  10.066  12.099  0.00  0.00    -0.398 OA
HETATM    6  O   UNK N   1      35.499  13.779  12.025  0.00  0.00    -0.271 OA
HETATM    7  O   UNK N   1      35.329  13.530  11.584  0.00  0.00    -0.271 OA
HETATM    8  O   UNK N   1      34.397  11.364  11.583  0.00  0.00    -0.393 OA
HETATM    9  O   UNK N   1      34.514  12.206   9.866  0.00  0.00    -0.271 OA
HETATM   10  O   UNK N   1      36.292  15.295  13.013  0.00  0.00    -0.393 OA
HETATM   11  O   UNK N   1      35.143  12.960  12.000  0.00  0.00    -0.271 OA
HETATM   12  O   UNK N   1      34.012   9.985  13.039  0.00  0.00    -0.268 OA
HETATM   13  O   UNK N   1      35.272  10.912  19.068  0.00  0.00    -0.351 OA
HETATM   14  N   UNK N   1      35.000  12.692  11.807  0.00  0.00    -0.334 N 
HETATM   15  N   UNK N   1      35.931  14.894  11.689  0.00  0.00    -0.334 N 
HETATM   16  N   UNK N   1      35.698  13.678  13.725  0.00  0.00    -0.357 N 
HETATM   17  N   UNK N   1      34.325  11.343  11.139  0.00  0.00    -0.344 N 
HETATM   18  N   UNK N   1      35.138  13.378  10.701  0.00  0.00    -0.344 N 
HETATM   19  N   UNK N   1      35.343  12.315  15.340  0.00  0.00    -0.414 N 
HETATM   20  N   UNK N   1      35.438  13.287  13.080  0.00  0.00    -0.344 N 
HETATM   21  N   UNK N   1      34.556  11.299  12.893  0.00  0.00    -0.344 N 
HETATM   22  N   UNK N   1      35.935  13.037  17.312  0.00  0.00    -0.429 N 
HETATM   23  C   UNK N   1      35.267  13.822  10.271  0.00  0.00     0.031 A 
HETATM   24  C   UNK N   1      35.621  14.283  11.362  0.00  0.00     0.155 A 
HETATM   25  C   UNK N   1      35.338  13.366  12.141  0.00  0.00     0.208 A 
HETATM   26  C   UNK N   1      34.833  12.708  10.583  0.00  0.00     0.134 A 
HETATM   27  C   UNK N   1      35.310  14.171   9.524  0.00  0.00     0.014 A 
HETATM   28  C   UNK N   1      35.470  13.402  12.955  0.00  0.00     0.243 A 
HETATM   29  C   UNK N   1      34.794  12.053  12.287  0.00  0.00     0.245 A 
HETATM   30  C   UNK N   1      35.722  14.664  10.924  0.00  0.00     0.181 A 
HETATM   31  C   UNK N   1      34.456  11.379  11.953  0.00  0.00     0.200 A 
HETATM   32  C   UNK N   1      35.914  15.278  10.415  0.00  0.00     0.068 A 
HETATM   33  C   UNK N   1      36.239  15.886  10.860  0.00  0.00     0.138 A 
HETATM   34  C   UNK N   1      36.249  15.649  11.645  0.00  0.00     0.158 A 
HETATM   35  C   UNK N   1      35.655  13.329  14.472  0.00  0.00     0.147 A 
HETATM   36  C   UNK N   1      35.341  12.571  14.557  0.00  0.00     0.096 A 
HETATM   37  C   UNK N   1      35.453  13.941  11.217  0.00  0.00     0.241 A 
HETATM   38  C   UNK N   1      35.661  14.171  11.981  0.00  0.00     0.246 A 
HETATM   39  C   UNK N   1      34.250  10.740  12.433  0.00  0.00     0.199 A 
HETATM   40  C   UNK N   1      34.869  12.656  10.993  0.00  0.00     0.205 A 
HETATM   41  C   UNK N   1      35.026  12.010  14.040  0.00  0.00     0.061 A 
HETATM   42  C   UNK N   1      35.708  14.010  12.789  0.00  0.00     0.205 A 
HETATM   43  C   UNK N   1      34.894  11.974  13.227  0.00  0.00     0.179 A 
HETATM   44  C   UNK N   1      34.531  11.981  10.660  0.00  0.00     0.243 A 
HETATM   45  C   UNK N   1      34.540  11.900  10.970  0.00  0.00     0.154 A 
HETATM   46  C   UNK N   1      36.023  14.571  13.304  0.00  0.00     0.146 A 
HETATM   47  C   UNK N   1      35.101  12.613  12.747  0.00  0.00     0.241 A 
HETATM   48  C   UNK N   1      34.344  11.700  10.195  0.00  0.00     0.073 A 
HETATM   49  C   UNK N   1      35.638  12.805  15.934  0.00  0.00     0.133 A 
HETATM   50  C   UNK N   1      36.231  14.803  14.068  0.00  0.00     0.042 A 
HETATM   51  C   UNK N   1      34.034  11.162   9.652  0.00  0.00    -0.056 A 
HETATM   52  C   UNK N   1      35.640  12.548  16.719  0.00  0.00     0.130 A 
HETATM   53  C   UNK N   1      34.350  10.660  13.373  0.00  0.00     0.252 A 
HETATM   54  C   UNK N   1      33.756  10.429   9.910  0.00  0.00     0.007 A 
HETATM   55  C   UNK N   1      34.003  11.355   8.850  0.00  0.00     0.007 A 
HETATM   56  C   UNK N   1      34.482  10.696  14.186  0.00  0.00     0.032 A 
HETATM   57  C   UNK N   1      33.447   9.890   9.367  0.00  0.00     0.001 A 
HETATM   58  C   UNK N   1      33.694  10.816   8.308  0.00  0.00     0.001 A 
HETATM   59  C   UNK N   1      33.416  10.084   8.566  0.00  0.00     0.000 A 
HETATM   60  C   UNK N   1      34.275  10.057  14.667  0.00  0.00     0.018 A 
HETATM   61  C   UNK N   1      34.819  11.371  14.521  0.00  0.00     0.018 A 
HETATM   62  C   UNK N   1      34.407  10.093  15.480  0.00  0.00     0.013 A 
HETATM   63  C   UNK N   1      34.951  11.407  15.334  0.00  0.00     0.013 A 
HETATM   64  C   UNK N   1      34.745  10.768  15.814  0.00  0.00    -0.026 A 
HETATM   65  C   UNK N   1      34.877  10.804  16.627  0.00  0.00    -0.026 A 
HETATM   66  C   UNK N   1      35.214  11.479  16.962  0.00  0.00     0.015 A 
HETATM   67  C   UNK N   1      34.670  10.165  17.108  0.00  0.00     0.015 A 
HETATM   68  C   UNK N   1      35.346  11.515  17.775  0.00  0.00     0.037 A 
HETATM   69  C   UNK N   1      34.802  10.201  17.921  0.00  0.00     0.037 A 
HETATM   70  C   UNK N   1      35.123   9.707  21.655  0.00  0.00     0.000 A 
HETATM   71  C   UNK N   1      35.140  10.876  18.255  0.00  0.00     0.068 A 
HETATM   72  C   UNK N   1      34.991   9.671  20.842  0.00  0.00     0.002 A 
HETATM   73  C   UNK N   1      34.917   9.069  22.135  0.00  0.00     0.000 A 
HETATM   74  C   UNK N   1      35.197  10.309  20.362  0.00  0.00     0.027 A 
HETATM   75  C   UNK N   1      35.048   9.105  22.949  0.00  0.00    -0.000 A 
HETATM   76  C   UNK N   1      35.065  10.273  19.549  0.00  0.00     0.175 A 
HETATM   77  C   UNK N   1      34.842   8.466  23.429  0.00  0.00    -0.005 A 
HETATM   78  C   UNK N   1      34.974   8.502  24.242  0.00  0.00     0.005 A 
HETATM   79  H   UNK N   1      36.258  15.553  11.999  0.00  0.00     0.210 HD
HETATM   80  H   UNK N   1      36.878  17.268  11.175  0.00  0.00     0.210 HD
HETATM   81  H   UNK N   1      33.758  10.023  11.142  0.00  0.00     0.209 HD
HETATM   82  H   UNK N   1      33.999  10.502  11.389  0.00  0.00     0.210 HD
HETATM   83  H   UNK N   1      36.663  15.955  13.619  0.00  0.00     0.210 HD
HETATM   84  H   UNK N   1      36.087  14.582  13.727  0.00  0.00     0.162 HD
HETATM   85  H   UNK N   1      33.922  10.538  10.741  0.00  0.00     0.163 HD
HETATM   86  H   UNK N   1      35.083  13.571   9.738  0.00  0.00     0.163 HD
HETATM   87  H   UNK N   1      34.979  11.390  15.575  0.00  0.00     0.153 HD
HETATM   88  H   UNK N   1      35.545  13.211  14.056  0.00  0.00     0.163 HD
HETATM   89  H   UNK N   1      34.399  11.256  11.922  0.00  0.00     0.163 HD
HETATM   90  H   UNK N   1      35.937  12.720  18.281  0.00  0.00     0.149 HD
HETATM   91  H   UNK N   1      36.299  13.962  17.078  0.00  0.00     0.149 HD
ENDROOT
TORSDOF 10
ENDMDL
MODEL 5
REMARK VINA RESULT:     -21.4      4.632      8.161
REMARK  10 active torsions:
REMARK  status: ('A' for Active; 'I' for Inactive)
REMARK    1  A    between atoms: N_15  and  C_38 
REMARK    2  A    between atoms: C_23  and  C_26 
REMARK    3  A    between atoms: C_24  and  C_25 
REMARK    4  A    between atoms: C_30  and  C_37 
REMARK    5  A    between atoms: C_33  and  C_34 
REMARK    6  A    between atoms: C_43  and  C_47 
REMARK    7  A    between atoms: C_58  and  C_59 
REMARK    8  A    between atoms: C_63  and  C_64 
REMARK    9  A    between atoms: C_69  and  C_71 
REMARK   10  A    between atoms: C_74  and  C_76 
ROOT
HETATM    1  O   UNK N   1      29.693  18.015   8.922  0.00  0.00    -0.393 OA
HETATM    2  O   UNK N   1      30.993  16.804   6.221  0.00  0.00    -0.271 OA
HETATM    3  O   UNK N   1      30.329  17.016   5.141  0.00  0.00    -0.271 OA
HETATM    4  O   UNK N   1      29.536  18.397  10.679  0.00  0.00    -0.394 OA
HETATM    5  O   UNK N   1      29.099  17.477   3.547  0.00  0.00    -0.398 OA
HETATM    6  O   UNK N   1      30.022  17.582   7.477  0.00  0.00    -0.271 OA
HETATM    7  O   UNK N   1      29.581  17.809   7.280  0.00  0.00    -0.271 OA
HETATM    8  O   UNK N   1      29.005  17.771   4.994  0.00  0.00    -0.393 OA
HETATM    9  O   UNK N   1      27.768  18.687   6.135  0.00  0.00    -0.271 OA
HETATM   10  O   UNK N   1      31.266  17.091   8.932  0.00  0.00    -0.393 OA
HETATM   11  O   UNK N   1      29.784  17.581   6.617  0.00  0.00    -0.271 OA
HETATM   12  O   UNK N   1      29.877  16.982   3.324  0.00  0.00    -0.268 OA
HETATM   13  O   UNK N   1      35.251  13.835   3.416  0.00  0.00    -0.351 OA
HETATM   14  N   UNK N   1      29.548  17.677   6.363  0.00  0.00    -0.334 N 
HETATM   15  N   UNK N   1      30.033  17.779   8.704  0.00  0.00    -0.334 N 
HETATM   16  N   UNK N   1      31.441  16.688   7.120  0.00  0.00    -0.357 N 
HETATM   17  N   UNK N   1      28.622  18.003   5.037  0.00  0.00    -0.344 N 
HETATM   18  N   UNK N   1      28.790  18.270   7.250  0.00  0.00    -0.344 N 
HETATM   19  N   UNK N   1      32.453  15.816   5.444  0.00  0.00    -0.414 N 
HETATM   20  N   UNK N   1      30.790  17.019   6.803  0.00  0.00    -0.344 N 
HETATM   21  N   UNK N   1      30.102  17.082   4.732  0.00  0.00    -0.344 N 
HETATM   22  N   UNK N   1      34.323  14.794   5.917  0.00  0.00    -0.429 N 
HETATM   23  C   UNK N   1      28.542  18.504   7.781  0.00  0.00     0.031 A 
HETATM   24  C   UNK N   1      29.593  17.939   8.107  0.00  0.00     0.155 A 
HETATM   25  C   UNK N   1      30.012  17.514   7.025  0.00  0.00     0.208 A 
HETATM   26  C   UNK N   1      28.512  18.320   6.560  0.00  0.00     0.134 A 
HETATM   27  C   UNK N   1      28.000  18.902   8.259  0.00  0.00     0.014 A 
HETATM   28  C   UNK N   1      30.713  17.088   6.943  0.00  0.00     0.243 A 
HETATM   29  C   UNK N   1      29.787  17.414   5.617  0.00  0.00     0.245 A 
HETATM   30  C   UNK N   1      29.322  18.176   8.573  0.00  0.00     0.181 A 
HETATM   31  C   UNK N   1      29.323  17.577   4.955  0.00  0.00     0.200 A 
HETATM   32  C   UNK N   1      29.052  18.454   9.296  0.00  0.00     0.068 A 
HETATM   33  C   UNK N   1      29.592  18.231   9.872  0.00  0.00     0.138 A 
HETATM   34  C   UNK N   1      30.197  17.815   9.507  0.00  0.00     0.158 A 
HETATM   35  C   UNK N   1      31.985  16.290   6.643  0.00  0.00     0.147 A 
HETATM   36  C   UNK N   1      31.855  16.232   5.830  0.00  0.00     0.096 A 
HETATM   37  C   UNK N   1      29.378  18.009   7.767  0.00  0.00     0.241 A 
HETATM   38  C   UNK N   1      30.090  17.612   7.898  0.00  0.00     0.246 A 
HETATM   39  C   UNK N   1      29.562  17.314   4.210  0.00  0.00     0.199 A 
HETATM   40  C   UNK N   1      28.847  18.104   6.444  0.00  0.00     0.205 A 
HETATM   41  C   UNK N   1      31.266  16.493   5.314  0.00  0.00     0.061 A 
HETATM   42  C   UNK N   1      30.734  17.185   7.609  0.00  0.00     0.205 A 
HETATM   43  C   UNK N   1      30.565  16.919   5.395  0.00  0.00     0.179 A 
HETATM   44  C   UNK N   1      28.384  18.266   5.781  0.00  0.00     0.243 A 
HETATM   45  C   UNK N   1      28.626  18.102   5.649  0.00  0.00     0.154 A 
HETATM   46  C   UNK N   1      31.321  16.925   8.126  0.00  0.00     0.146 A 
HETATM   47  C   UNK N   1      30.327  17.182   6.140  0.00  0.00     0.241 A 
HETATM   48  C   UNK N   1      27.913  18.506   5.553  0.00  0.00     0.073 A 
HETATM   49  C   UNK N   1      33.088  15.513   5.874  0.00  0.00     0.133 A 
HETATM   50  C   UNK N   1      32.033  16.528   8.258  0.00  0.00     0.042 A 
HETATM   51  C   UNK N   1      27.309  18.781   5.064  0.00  0.00    -0.056 A 
HETATM   52  C   UNK N   1      33.687  15.097   5.487  0.00  0.00     0.130 A 
HETATM   53  C   UNK N   1      30.340  16.819   3.988  0.00  0.00     0.252 A 
HETATM   54  C   UNK N   1      27.333  18.632   4.252  0.00  0.00     0.007 A 
HETATM   55  C   UNK N   1      26.679  19.205   5.386  0.00  0.00     0.007 A 
HETATM   56  C   UNK N   1      31.042  16.393   3.906  0.00  0.00     0.032 A 
HETATM   57  C   UNK N   1      26.729  18.907   3.764  0.00  0.00     0.001 A 
HETATM   58  C   UNK N   1      26.074  19.480   4.897  0.00  0.00     0.001 A 
HETATM   59  C   UNK N   1      26.099  19.332   4.086  0.00  0.00     0.000 A 
HETATM   60  C   UNK N   1      31.280  16.129   3.161  0.00  0.00     0.018 A 
HETATM   61  C   UNK N   1      31.505  16.229   4.568  0.00  0.00     0.018 A 
HETATM   62  C   UNK N   1      31.982  15.703   3.079  0.00  0.00     0.013 A 
HETATM   63  C   UNK N   1      32.207  15.803   4.487  0.00  0.00     0.013 A 
HETATM   64  C   UNK N   1      32.445  15.540   3.743  0.00  0.00    -0.026 A 
HETATM   65  C   UNK N   1      33.146  15.114   3.661  0.00  0.00    -0.026 A 
HETATM   66  C   UNK N   1      33.610  14.950   4.323  0.00  0.00     0.015 A 
HETATM   67  C   UNK N   1      33.385  14.850   2.916  0.00  0.00     0.015 A 
HETATM   68  C   UNK N   1      34.311  14.524   4.242  0.00  0.00     0.037 A 
HETATM   69  C   UNK N   1      34.087  14.424   2.834  0.00  0.00     0.037 A 
HETATM   70  C   UNK N   1      37.131  12.456   1.763  0.00  0.00     0.000 A 
HETATM   71  C   UNK N   1      34.549  14.261   3.498  0.00  0.00     0.068 A 
HETATM   72  C   UNK N   1      36.429  12.882   1.845  0.00  0.00     0.002 A 
HETATM   73  C   UNK N   1      37.370  12.192   1.019  0.00  0.00     0.000 A 
HETATM   74  C   UNK N   1      36.191  13.145   2.589  0.00  0.00     0.027 A 
HETATM   75  C   UNK N   1      38.071  11.766   0.937  0.00  0.00    -0.000 A 
HETATM   76  C   UNK N   1      35.490  13.571   2.671  0.00  0.00     0.175 A 
HETATM   77  C   UNK N   1      38.309  11.503   0.192  0.00  0.00    -0.005 A 
HETATM   78  C   UNK N   1      39.011  11.076   0.111  0.00  0.00     0.005 A 
HETATM   79  H   UNK N   1      30.472  17.628   9.353  0.00  0.00     0.210 HD
HETATM   80  H   UNK N   1      30.227  18.091  11.285  0.00  0.00     0.210 HD
HETATM   81  H   UNK N   1      28.274  17.978   3.643  0.00  0.00     0.209 HD
HETATM   82  H   UNK N   1      28.611  17.857   4.112  0.00  0.00     0.210 HD
HETATM   83  H   UNK N   1      31.957  16.784   9.540  0.00  0.00     0.210 HD
HETATM   84  H   UNK N   1      31.684  16.703   8.075  0.00  0.00     0.162 HD
HETATM   85  H   UNK N   1      28.069  18.198   4.245  0.00  0.00     0.163 HD
HETATM   86  H   UNK N   1      28.022  18.779   7.595  0.00  0.00     0.163 HD
HETATM   87  H   UNK N   1      32.407  15.676   4.434  0.00  0.00     0.153 HD
HETATM   88  H   UNK N   1      31.599  16.506   6.579  0.00  0.00     0.163 HD
HETATM   89  H   UNK N   1      29.264  17.591   4.829  0.00  0.00     0.163 HD
HETATM   90  H   UNK N   1      35.062  14.280   5.440  0.00  0.00     0.149 HD
HETATM   91  H   UNK N   1      34.369  14.934   6.927  0.00  0.00     0.149 HD
ENDROOT
TORSDOF 10
ENDMDL
MODEL 6
REMARK VINA RESULT:     -21.3      4.355     11.817
REMARK  10 active torsions:
REMARK  status: ('A' for Active; 'I' for Inactive)
REMARK    1  A    between atoms: N_15  and  C_38 
REMARK    2  A    between atoms: C_23  and  C_26 
REMARK    3  A    between atoms: C_24  and  C_25 
REMARK    4  A    between atoms: C_30  and  C_37 
REMARK    5  A    between atoms: C_33  and  C_34 
REMARK    6  A    between atoms: C_43  and  C_47 
REMARK    7  A    between atoms: C_58  and  C_59 
REMARK    8  A    between atoms: C_63  and  C_64 
REMARK    9  A    between atoms: C_69  and  C_71 
REMARK   10  A    between atoms: C_74  and  C_76 
ROOT
HETATM    1  O   UNK N   1      35.992  14.284   5.475  0.00  0.00    -0.393 OA
HETATM    2  O   UNK N   1      33.214  15.854   5.994  0.00  0.00    -0.271 OA
HETATM    3  O   UNK N   1      32.997  16.214   7.209  0.00  0.00    -0.271 OA
HETATM    4  O   UNK N   1      37.278  13.419   4.552  0.00  0.00    -0.394 OA
HETATM    5  O   UNK N   1      32.866  16.686   9.216  0.00  0.00    -0.398 OA
HETATM    6  O   UNK N   1      34.782  15.041   6.064  0.00  0.00    -0.271 OA
HETATM    7  O   UNK N   1      34.984  15.034   6.559  0.00  0.00    -0.271 OA
HETATM    8  O   UNK N   1      33.899  15.982   8.425  0.00  0.00    -0.393 OA
HETATM    9  O   UNK N   1      35.592  15.162   8.791  0.00  0.00    -0.271 OA
HETATM   10  O   UNK N   1      34.811  14.637   4.131  0.00  0.00    -0.393 OA
HETATM   11  O   UNK N   1      34.390  15.393   6.785  0.00  0.00    -0.271 OA
HETATM   12  O   UNK N   1      32.130  16.968   8.688  0.00  0.00    -0.268 OA
HETATM   13  O   UNK N   1      28.133  18.147   4.058  0.00  0.00    -0.351 OA
HETATM   14  N   UNK N   1      34.399  15.459   7.139  0.00  0.00    -0.334 N 
HETATM   15  N   UNK N   1      35.590  14.464   5.317  0.00  0.00    -0.334 N 
HETATM   16  N   UNK N   1      33.473  15.532   5.071  0.00  0.00    -0.357 N 
HETATM   17  N   UNK N   1      34.217  15.874   8.725  0.00  0.00    -0.344 N 
HETATM   18  N   UNK N   1      35.561  14.868   7.250  0.00  0.00    -0.344 N 
HETATM   19  N   UNK N   1      31.595  16.553   5.219  0.00  0.00    -0.414 N 
HETATM   20  N   UNK N   1      33.754  15.534   5.817  0.00  0.00    -0.344 N 
HETATM   21  N   UNK N   1      32.896  16.355   7.649  0.00  0.00    -0.344 N 
HETATM   22  N   UNK N   1      30.498  16.755   3.343  0.00  0.00    -0.429 N 
HETATM   23  C   UNK N   1      36.102  14.561   7.141  0.00  0.00     0.031 A 
HETATM   24  C   UNK N   1      35.525  14.646   6.051  0.00  0.00     0.155 A 
HETATM   25  C   UNK N   1      34.489  15.252   6.346  0.00  0.00     0.208 A 
HETATM   26  C   UNK N   1      35.313  15.130   7.903  0.00  0.00     0.134 A 
HETATM   27  C   UNK N   1      36.829  14.212   7.315  0.00  0.00     0.014 A 
HETATM   28  C   UNK N   1      33.905  15.450   5.798  0.00  0.00     0.243 A 
HETATM   29  C   UNK N   1      33.723  15.865   7.384  0.00  0.00     0.245 A 
HETATM   30  C   UNK N   1      36.040  14.364   6.001  0.00  0.00     0.181 A 
HETATM   31  C   UNK N   1      33.633  16.072   8.177  0.00  0.00     0.200 A 
HETATM   32  C   UNK N   1      36.725  13.962   5.796  0.00  0.00     0.068 A 
HETATM   33  C   UNK N   1      36.700  13.812   4.989  0.00  0.00     0.138 A 
HETATM   34  C   UNK N   1      36.000  14.123   4.694  0.00  0.00     0.158 A 
HETATM   35  C   UNK N   1      32.746  15.881   4.897  0.00  0.00     0.147 A 
HETATM   36  C   UNK N   1      32.303  16.235   5.496  0.00  0.00     0.096 A 
HETATM   37  C   UNK N   1      35.461  14.758   6.438  0.00  0.00     0.241 A 
HETATM   38  C   UNK N   1      35.011  14.858   5.754  0.00  0.00     0.246 A 
HETATM   39  C   UNK N   1      32.957  16.478   8.423  0.00  0.00     0.199 A 
HETATM   40  C   UNK N   1      34.983  15.261   7.687  0.00  0.00     0.205 A 
HETATM   41  C   UNK N   1      32.404  16.345   6.308  0.00  0.00     0.061 A 
HETATM   42  C   UNK N   1      34.333  15.141   5.379  0.00  0.00     0.205 A 
HETATM   43  C   UNK N   1      32.988  16.147   6.856  0.00  0.00     0.179 A 
HETATM   44  C   UNK N   1      34.891  15.469   8.480  0.00  0.00     0.243 A 
HETATM   45  C   UNK N   1      34.621  15.586   8.353  0.00  0.00     0.154 A 
HETATM   46  C   UNK N   1      34.233  15.030   4.568  0.00  0.00     0.146 A 
HETATM   47  C   UNK N   1      33.663  15.741   6.610  0.00  0.00     0.241 A 
HETATM   48  C   UNK N   1      35.095  15.470   9.018  0.00  0.00     0.073 A 
HETATM   49  C   UNK N   1      31.401  16.495   4.420  0.00  0.00     0.133 A 
HETATM   50  C   UNK N   1      33.783  15.130   3.884  0.00  0.00     0.042 A 
HETATM   51  C   UNK N   1      35.226  15.563   9.826  0.00  0.00    -0.056 A 
HETATM   52  C   UNK N   1      30.692  16.814   4.143  0.00  0.00     0.130 A 
HETATM   53  C   UNK N   1      32.222  16.760   7.894  0.00  0.00     0.252 A 
HETATM   54  C   UNK N   1      34.668  15.951  10.294  0.00  0.00     0.007 A 
HETATM   55  C   UNK N   1      35.916  15.267  10.169  0.00  0.00     0.007 A 
HETATM   56  C   UNK N   1      31.638  16.958   7.346  0.00  0.00     0.032 A 
HETATM   57  C   UNK N   1      34.800  16.044  11.103  0.00  0.00     0.001 A 
HETATM   58  C   UNK N   1      36.048  15.361  10.978  0.00  0.00     0.001 A 
HETATM   59  C   UNK N   1      35.490  15.749  11.445  0.00  0.00     0.000 A 
HETATM   60  C   UNK N   1      30.962  17.364   7.592  0.00  0.00     0.018 A 
HETATM   61  C   UNK N   1      31.728  16.751   6.553  0.00  0.00     0.018 A 
HETATM   62  C   UNK N   1      30.378  17.563   7.044  0.00  0.00     0.013 A 
HETATM   63  C   UNK N   1      31.144  16.949   6.005  0.00  0.00     0.013 A 
HETATM   64  C   UNK N   1      30.470  17.355   6.250  0.00  0.00    -0.026 A 
HETATM   65  C   UNK N   1      29.886  17.553   5.702  0.00  0.00    -0.026 A 
HETATM   66  C   UNK N   1      29.976  17.346   4.909  0.00  0.00     0.015 A 
HETATM   67  C   UNK N   1      29.210  17.959   5.948  0.00  0.00     0.015 A 
HETATM   68  C   UNK N   1      29.392  17.544   4.361  0.00  0.00     0.037 A 
HETATM   69  C   UNK N   1      28.626  18.157   5.400  0.00  0.00     0.037 A 
HETATM   70  C   UNK N   1      25.615  19.355   3.453  0.00  0.00     0.000 A 
HETATM   71  C   UNK N   1      28.717  17.949   4.606  0.00  0.00     0.068 A 
HETATM   72  C   UNK N   1      26.199  19.157   4.001  0.00  0.00     0.002 A 
HETATM   73  C   UNK N   1      24.940  19.760   3.698  0.00  0.00     0.000 A 
HETATM   74  C   UNK N   1      26.874  18.751   3.756  0.00  0.00     0.027 A 
HETATM   75  C   UNK N   1      24.356  19.959   3.150  0.00  0.00    -0.000 A 
HETATM   76  C   UNK N   1      27.458  18.553   4.304  0.00  0.00     0.175 A 
HETATM   77  C   UNK N   1      23.681  20.364   3.396  0.00  0.00    -0.005 A 
HETATM   78  C   UNK N   1      23.096  20.562   2.848  0.00  0.00     0.005 A 
HETATM   79  H   UNK N   1      35.690  14.258   4.553  0.00  0.00     0.210 HD
HETATM   80  H   UNK N   1      37.160  13.290   3.598  0.00  0.00     0.210 HD
HETATM   81  H   UNK N   1      33.553  16.453   9.860  0.00  0.00     0.209 HD
HETATM   82  H   UNK N   1      33.610  16.308   9.291  0.00  0.00     0.210 HD
HETATM   83  H   UNK N   1      34.693  14.507   3.176  0.00  0.00     0.210 HD
HETATM   84  H   UNK N   1      33.925  15.137   4.291  0.00  0.00     0.162 HD
HETATM   85  H   UNK N   1      34.107  16.122   9.672  0.00  0.00     0.163 HD
HETATM   86  H   UNK N   1      36.371  14.530   7.696  0.00  0.00     0.163 HD
HETATM   87  H   UNK N   1      30.958  17.020   5.866  0.00  0.00     0.153 HD
HETATM   88  H   UNK N   1      32.994  15.823   5.263  0.00  0.00     0.163 HD
HETATM   89  H   UNK N   1      33.594  16.118   8.303  0.00  0.00     0.163 HD
HETATM   90  H   UNK N   1      29.622  17.149   3.001  0.00  0.00     0.149 HD
HETATM   91  H   UNK N   1      31.135  16.289   2.696  0.00  0.00     0.149 HD
ENDROOT
TORSDOF 10
ENDMDL
MODEL 7
REMARK VINA RESULT:     -21.2      5.957     13.760
REMARK  10 active torsions:
REMARK  status: ('A' for Active; 'I' for Inactive)
REMARK    1  A    between atoms: N_15  and  C_38 
REMARK    2  A    between atoms: C_23  and  C_26 
REMARK    3  A    between atoms: C_24  and  C_25 
REMARK    4  A    between atoms: C_30  and  C_37 
REMARK    5  A    between atoms: C_33  and  C_34 
REMARK    6  A    between atoms: C_43  and  C_47 
REMARK    7  A    between atoms: C_58  and  C_59 
REMARK    8  A    between atoms: C_63  and  C_64 
REMARK    9  A    between atoms: C_69  and  C_71 
REMARK   10  A    between atoms: C_74  and  C_76 
ROOT
HETATM    1  O   UNK N   1      38.080  13.416   8.177  0.00  0.00    -0.393 OA
HETATM    2  O   UNK N   1      35.139  14.758   8.218  0.00  0.00    -0.271 OA
HETATM    3  O   UNK N   1      34.574  14.824   9.371  0.00  0.00    -0.271 OA
HETATM    4  O   UNK N   1      39.637  12.817   7.489  0.00  0.00    -0.394 OA
HETATM    5  O   UNK N   1      33.870  14.821  11.313  0.00  0.00    -0.398 OA
HETATM    6  O   UNK N   1      36.696  13.988   8.550  0.00  0.00    -0.271 OA
HETATM    7  O   UNK N   1      36.758  13.873   9.068  0.00  0.00    -0.271 OA
HETATM    8  O   UNK N   1      35.134  14.342  10.712  0.00  0.00    -0.393 OA
HETATM    9  O   UNK N   1      36.732  13.502  11.354  0.00  0.00    -0.271 OA
HETATM   10  O   UNK N   1      37.276  14.038   6.662  0.00  0.00    -0.393 OA
HETATM   11  O   UNK N   1      36.096  14.156   9.190  0.00  0.00    -0.271 OA
HETATM   12  O   UNK N   1      33.281  15.199  10.672  0.00  0.00    -0.268 OA
HETATM   13  O   UNK N   1      30.583  17.308   5.469  0.00  0.00    -0.351 OA
HETATM   14  N   UNK N   1      36.004  14.140   9.537  0.00  0.00    -0.334 N 
HETATM   15  N   UNK N   1      37.721  13.618   7.954  0.00  0.00    -0.334 N 
HETATM   16  N   UNK N   1      35.663  14.661   7.358  0.00  0.00    -0.357 N 
HETATM   17  N   UNK N   1      35.368  14.177  11.059  0.00  0.00    -0.344 N 
HETATM   18  N   UNK N   1      37.141  13.568   9.842  0.00  0.00    -0.344 N 
HETATM   19  N   UNK N   1      33.732  15.576   7.187  0.00  0.00    -0.414 N 
HETATM   20  N   UNK N   1      35.733  14.499   8.135  0.00  0.00    -0.344 N 
HETATM   21  N   UNK N   1      34.347  14.858   9.784  0.00  0.00    -0.344 N 
HETATM   22  N   UNK N   1      33.164  16.175   5.167  0.00  0.00    -0.429 N 
HETATM   23  C   UNK N   1      37.715  13.307   9.826  0.00  0.00     0.031 A 
HETATM   24  C   UNK N   1      37.447  13.625   8.662  0.00  0.00     0.155 A 
HETATM   25  C   UNK N   1      36.321  14.122   8.776  0.00  0.00     0.208 A 
HETATM   26  C   UNK N   1      36.705  13.668  10.438  0.00  0.00     0.134 A 
HETATM   27  C   UNK N   1      38.397  12.945  10.119  0.00  0.00     0.014 A 
HETATM   28  C   UNK N   1      35.890  14.426   8.142  0.00  0.00     0.243 A 
HETATM   29  C   UNK N   1      35.254  14.463   9.664  0.00  0.00     0.245 A 
HETATM   30  C   UNK N   1      37.979  13.375   8.699  0.00  0.00     0.181 A 
HETATM   31  C   UNK N   1      34.937  14.481  10.425  0.00  0.00     0.200 A 
HETATM   32  C   UNK N   1      38.725  13.047   8.614  0.00  0.00     0.068 A 
HETATM   33  C   UNK N   1      38.931  13.085   7.820  0.00  0.00     0.138 A 
HETATM   34  C   UNK N   1      38.311  13.438   7.414  0.00  0.00     0.158 A 
HETATM   35  C   UNK N   1      34.981  15.023   7.065  0.00  0.00     0.147 A 
HETATM   36  C   UNK N   1      34.365  15.220   7.577  0.00  0.00     0.096 A 
HETATM   37  C   UNK N   1      37.272  13.644   9.030  0.00  0.00     0.241 A 
HETATM   38  C   UNK N   1      37.014  13.886   8.285  0.00  0.00     0.246 A 
HETATM   39  C   UNK N   1      34.187  14.803  10.551  0.00  0.00     0.199 A 
HETATM   40  C   UNK N   1      36.435  13.836  10.172  0.00  0.00     0.205 A 
HETATM   41  C   UNK N   1      34.235  15.144   8.388  0.00  0.00     0.061 A 
HETATM   42  C   UNK N   1      36.439  14.231   7.804  0.00  0.00     0.205 A 
HETATM   43  C   UNK N   1      34.666  14.840   9.023  0.00  0.00     0.179 A 
HETATM   44  C   UNK N   1      36.116  13.855  10.933  0.00  0.00     0.243 A 
HETATM   45  C   UNK N   1      35.880  13.991  10.763  0.00  0.00     0.154 A 
HETATM   46  C   UNK N   1      36.570  14.307   6.993  0.00  0.00     0.146 A 
HETATM   47  C   UNK N   1      35.415  14.518   8.896  0.00  0.00     0.241 A 
HETATM   48  C   UNK N   1      36.167  13.737  11.493  0.00  0.00     0.073 A 
HETATM   49  C   UNK N   1      33.765  15.697   6.372  0.00  0.00     0.133 A 
HETATM   50  C   UNK N   1      36.313  14.549   6.248  0.00  0.00     0.042 A 
HETATM   51  C   UNK N   1      36.069  13.646  12.307  0.00  0.00    -0.056 A 
HETATM   52  C   UNK N   1      33.131  16.053   5.981  0.00  0.00     0.130 A 
HETATM   53  C   UNK N   1      33.599  15.180   9.911  0.00  0.00     0.252 A 
HETATM   54  C   UNK N   1      35.374  13.904  12.671  0.00  0.00     0.007 A 
HETATM   55  C   UNK N   1      36.665  13.297  12.758  0.00  0.00     0.007 A 
HETATM   56  C   UNK N   1      33.168  15.484   9.276  0.00  0.00     0.032 A 
HETATM   57  C   UNK N   1      35.276  13.812  13.484  0.00  0.00     0.001 A 
HETATM   58  C   UNK N   1      36.566  13.206  13.572  0.00  0.00     0.001 A 
HETATM   59  C   UNK N   1      35.872  13.463  13.935  0.00  0.00     0.000 A 
HETATM   60  C   UNK N   1      32.419  15.807   9.403  0.00  0.00     0.018 A 
HETATM   61  C   UNK N   1      33.486  15.466   8.515  0.00  0.00     0.018 A 
HETATM   62  C   UNK N   1      31.988  16.111   8.768  0.00  0.00     0.013 A 
HETATM   63  C   UNK N   1      33.055  15.770   7.880  0.00  0.00     0.013 A 
HETATM   64  C   UNK N   1      32.307  16.092   8.007  0.00  0.00    -0.026 A 
HETATM   65  C   UNK N   1      31.876  16.396   7.373  0.00  0.00    -0.026 A 
HETATM   66  C   UNK N   1      32.193  16.378   6.611  0.00  0.00     0.015 A 
HETATM   67  C   UNK N   1      31.126  16.719   7.499  0.00  0.00     0.015 A 
HETATM   68  C   UNK N   1      31.762  16.682   5.977  0.00  0.00     0.037 A 
HETATM   69  C   UNK N   1      30.695  17.022   6.865  0.00  0.00     0.037 A 
HETATM   70  C   UNK N   1      28.223  18.560   4.453  0.00  0.00     0.000 A 
HETATM   71  C   UNK N   1      31.014  17.004   6.104  0.00  0.00     0.068 A 
HETATM   72  C   UNK N   1      28.654  18.256   5.088  0.00  0.00     0.002 A 
HETATM   73  C   UNK N   1      27.475  18.882   4.579  0.00  0.00     0.000 A 
HETATM   74  C   UNK N   1      29.403  17.934   4.961  0.00  0.00     0.027 A 
HETATM   75  C   UNK N   1      27.044  19.186   3.945  0.00  0.00    -0.000 A 
HETATM   76  C   UNK N   1      29.833  17.630   5.596  0.00  0.00     0.175 A 
HETATM   77  C   UNK N   1      26.295  19.509   4.072  0.00  0.00    -0.005 A 
HETATM   78  C   UNK N   1      25.864  19.812   3.437  0.00  0.00     0.005 A 
HETATM   79  H   UNK N   1      38.040  13.594   7.223  0.00  0.00     0.210 HD
HETATM   80  H   UNK N   1      39.790  12.906   6.536  0.00  0.00     0.210 HD
HETATM   81  H   UNK N   1      34.377  14.464  12.059  0.00  0.00     0.209 HD
HETATM   82  H   UNK N   1      34.596  14.455  11.511  0.00  0.00     0.210 HD
HETATM   83  H   UNK N   1      37.430  14.127   5.709  0.00  0.00     0.210 HD
HETATM   84  H   UNK N   1      36.340  14.466   6.670  0.00  0.00     0.162 HD
HETATM   85  H   UNK N   1      34.988  14.199  11.968  0.00  0.00     0.163 HD
HETATM   86  H   UNK N   1      37.827  13.157  10.414  0.00  0.00     0.163 HD
HETATM   87  H   UNK N   1      32.907  15.866   7.713  0.00  0.00     0.153 HD
HETATM   88  H   UNK N   1      35.127  14.889   7.465  0.00  0.00     0.163 HD
HETATM   89  H   UNK N   1      34.862  14.495  10.541  0.00  0.00     0.163 HD
HETATM   90  H   UNK N   1      32.381  16.615   4.684  0.00  0.00     0.149 HD
HETATM   91  H   UNK N   1      33.989  15.884   4.640  0.00  0.00     0.149 HD
ENDROOT
TORSDOF 10
ENDMDL
MODEL 8
REMARK VINA RESULT:     -21.2     10.542     13.408
REMARK  10 active torsions:
REMARK  status: ('A' for Active; 'I' for Inactive)
REMARK    1  A    between atoms: N_15  and  C_38 
REMARK    2  A    between atoms: C_23  and  C_26 
REMARK    3  A    between atoms: C_24  and  C_25 
REMARK    4  A    between atoms: C_30  and  C_37 
REMARK    5  A    between atoms: C_33  and  C_34 
REMARK    6  A    between atoms: C_43  and  C_47 
REMARK    7  A    between atoms: C_58  and  C_59 
REMARK    8  A    between atoms: C_63  and  C_64 
REMARK    9  A    between atoms: C_69  and  C_71 
REMARK   10  A    between atoms: C_74  and  C_76 
ROOT
HETATM    1  O   UNK N   1      34.679  17.594   8.603  0.00  0.00    -0.393 OA
HETATM    2  O   UNK N   1      34.830  14.822  10.261  0.00  0.00    -0.271 OA
HETATM    3  O   UNK N   1      34.411  13.778   9.639  0.00  0.00    -0.271 OA
HETATM    4  O   UNK N   1      34.860  19.358   8.273  0.00  0.00    -0.394 OA
HETATM    5  O   UNK N   1      33.690  12.252   8.448  0.00  0.00    -0.398 OA
HETATM    6  O   UNK N   1      34.612  16.131   9.093  0.00  0.00    -0.271 OA
HETATM    7  O   UNK N   1      34.405  15.957   8.632  0.00  0.00    -0.271 OA
HETATM    8  O   UNK N   1      33.854  13.704   8.215  0.00  0.00    -0.393 OA
HETATM    9  O   UNK N   1      33.511  14.912   6.768  0.00  0.00    -0.271 OA
HETATM   10  O   UNK N   1      35.318  17.517  10.310  0.00  0.00    -0.393 OA
HETATM   11  O   UNK N   1      34.395  15.284   8.912  0.00  0.00    -0.271 OA
HETATM   12  O   UNK N   1      33.975  11.986   9.314  0.00  0.00    -0.268 OA
HETATM   13  O   UNK N   1      36.165  11.785  15.141  0.00  0.00    -0.351 OA
HETATM   14  N   UNK N   1      34.264  15.042   8.680  0.00  0.00    -0.334 N 
HETATM   15  N   UNK N   1      34.787  17.357   8.993  0.00  0.00    -0.334 N 
HETATM   16  N   UNK N   1      35.137  15.696  10.666  0.00  0.00    -0.357 N 
HETATM   17  N   UNK N   1      33.704  13.767   7.795  0.00  0.00    -0.344 N 
HETATM   18  N   UNK N   1      34.081  15.970   7.775  0.00  0.00    -0.344 N 
HETATM   19  N   UNK N   1      35.314  13.966  11.918  0.00  0.00    -0.414 N 
HETATM   20  N   UNK N   1      34.829  15.415   9.988  0.00  0.00    -0.344 N 
HETATM   21  N   UNK N   1      34.262  13.382   9.430  0.00  0.00    -0.344 N 
HETATM   22  N   UNK N   1      36.137  14.336  13.905  0.00  0.00    -0.429 N 
HETATM   23  C   UNK N   1      34.054  16.515   7.458  0.00  0.00     0.031 A 
HETATM   24  C   UNK N   1      34.525  16.784   8.569  0.00  0.00     0.155 A 
HETATM   25  C   UNK N   1      34.544  15.679   9.123  0.00  0.00     0.208 A 
HETATM   26  C   UNK N   1      33.872  15.296   7.536  0.00  0.00     0.134 A 
HETATM   27  C   UNK N   1      33.901  17.022   6.826  0.00  0.00     0.014 A 
HETATM   28  C   UNK N   1      34.817  15.559   9.892  0.00  0.00     0.243 A 
HETATM   29  C   UNK N   1      34.257  14.284   9.007  0.00  0.00     0.245 A 
HETATM   30  C   UNK N   1      34.480  17.265   8.232  0.00  0.00     0.181 A 
HETATM   31  C   UNK N   1      33.977  13.647   8.564  0.00  0.00     0.200 A 
HETATM   32  C   UNK N   1      34.472  18.002   7.873  0.00  0.00     0.068 A 
HETATM   33  C   UNK N   1      34.771  18.549   8.407  0.00  0.00     0.138 A 
HETATM   34  C   UNK N   1      34.965  18.150   9.097  0.00  0.00     0.158 A 
HETATM   35  C   UNK N   1      35.291  15.189  11.300  0.00  0.00     0.147 A 
HETATM   36  C   UNK N   1      35.125  14.384  11.233  0.00  0.00     0.096 A 
HETATM   37  C   UNK N   1      34.391  16.456   8.367  0.00  0.00     0.241 A 
HETATM   38  C   UNK N   1      34.697  16.548   9.128  0.00  0.00     0.246 A 
HETATM   39  C   UNK N   1      33.970  12.889   8.891  0.00  0.00     0.199 A 
HETATM   40  C   UNK N   1      33.991  15.162   7.911  0.00  0.00     0.205 A 
HETATM   41  C   UNK N   1      34.815  13.900  10.641  0.00  0.00     0.061 A 
HETATM   42  C   UNK N   1      34.918  16.224   9.854  0.00  0.00     0.205 A 
HETATM   43  C   UNK N   1      34.542  14.020   9.872  0.00  0.00     0.179 A 
HETATM   44  C   UNK N   1      33.711  14.524   7.468  0.00  0.00     0.243 A 
HETATM   45  C   UNK N   1      33.791  14.379   7.744  0.00  0.00     0.154 A 
HETATM   46  C   UNK N   1      35.228  16.708  10.444  0.00  0.00     0.146 A 
HETATM   47  C   UNK N   1      34.549  14.778   9.546  0.00  0.00     0.241 A 
HETATM   48  C   UNK N   1      33.489  14.322   6.979  0.00  0.00     0.073 A 
HETATM   49  C   UNK N   1      35.631  14.360  12.568  0.00  0.00     0.133 A 
HETATM   50  C   UNK N   1      35.535  16.801  11.205  0.00  0.00     0.042 A 
HETATM   51  C   UNK N   1      33.176  13.866   6.366  0.00  0.00    -0.056 A 
HETATM   52  C   UNK N   1      35.820  13.941  13.254  0.00  0.00     0.130 A 
HETATM   53  C   UNK N   1      34.255  12.625   9.756  0.00  0.00     0.252 A 
HETATM   54  C   UNK N   1      33.073  13.054   6.467  0.00  0.00     0.007 A 
HETATM   55  C   UNK N   1      32.965  14.223   5.653  0.00  0.00     0.007 A 
HETATM   56  C   UNK N   1      34.528  12.505  10.525  0.00  0.00     0.032 A 
HETATM   57  C   UNK N   1      32.760  12.598   5.855  0.00  0.00     0.001 A 
HETATM   58  C   UNK N   1      32.652  13.767   5.041  0.00  0.00     0.001 A 
HETATM   59  C   UNK N   1      32.549  12.955   5.141  0.00  0.00     0.000 A 
HETATM   60  C   UNK N   1      34.521  11.746  10.853  0.00  0.00     0.018 A 
HETATM   61  C   UNK N   1      34.808  13.142  10.968  0.00  0.00     0.018 A 
HETATM   62  C   UNK N   1      34.793  11.626  11.622  0.00  0.00     0.013 A 
HETATM   63  C   UNK N   1      35.081  13.022  11.738  0.00  0.00     0.013 A 
HETATM   64  C   UNK N   1      35.073  12.265  12.064  0.00  0.00    -0.026 A 
HETATM   65  C   UNK N   1      35.346  12.145  12.833  0.00  0.00    -0.026 A 
HETATM   66  C   UNK N   1      35.626  12.782  13.276  0.00  0.00     0.015 A 
HETATM   67  C   UNK N   1      35.339  11.387  13.160  0.00  0.00     0.015 A 
HETATM   68  C   UNK N   1      35.899  12.662  14.045  0.00  0.00     0.037 A 
HETATM   69  C   UNK N   1      35.612  11.267  13.930  0.00  0.00     0.037 A 
HETATM   70  C   UNK N   1      36.697  10.030  17.333  0.00  0.00     0.000 A 
HETATM   71  C   UNK N   1      35.892  11.905  14.372  0.00  0.00     0.068 A 
HETATM   72  C   UNK N   1      36.424  10.150  16.564  0.00  0.00     0.002 A 
HETATM   73  C   UNK N   1      36.690   9.272  17.660  0.00  0.00     0.000 A 
HETATM   74  C   UNK N   1      36.431  10.907  16.237  0.00  0.00     0.027 A 
HETATM   75  C   UNK N   1      36.963   9.153  18.429  0.00  0.00    -0.000 A 
HETATM   76  C   UNK N   1      36.158  11.027  15.468  0.00  0.00     0.175 A 
HETATM   77  C   UNK N   1      36.956   8.395  18.756  0.00  0.00    -0.005 A 
HETATM   78  C   UNK N   1      37.229   8.275  19.525  0.00  0.00     0.005 A 
HETATM   79  H   UNK N   1      35.055  17.982   9.410  0.00  0.00     0.210 HD
HETATM   80  H   UNK N   1      35.225  19.927   8.968  0.00  0.00     0.210 HD
HETATM   81  H   UNK N   1      33.369  12.393   7.544  0.00  0.00     0.209 HD
HETATM   82  H   UNK N   1      33.571  12.843   7.867  0.00  0.00     0.210 HD
HETATM   83  H   UNK N   1      35.683  18.087  11.006  0.00  0.00     0.210 HD
HETATM   84  H   UNK N   1      35.368  16.637  10.843  0.00  0.00     0.162 HD
HETATM   85  H   UNK N   1      33.370  13.006   7.267  0.00  0.00     0.163 HD
HETATM   86  H   UNK N   1      33.817  16.357   6.910  0.00  0.00     0.163 HD
HETATM   87  H   UNK N   1      35.154  12.958  11.960  0.00  0.00     0.153 HD
HETATM   88  H   UNK N   1      35.126  15.147  10.887  0.00  0.00     0.163 HD
HETATM   89  H   UNK N   1      33.936  13.525   8.511  0.00  0.00     0.163 HD
HETATM   90  H   UNK N   1      36.370  13.818  14.751  0.00  0.00     0.149 HD
HETATM   91  H   UNK N   1      36.296  15.343  13.863  0.00  0.00     0.149 HD
ENDROOT
TORSDOF 10
ENDMDL
MODEL 9
REMARK VINA RESULT:     -20.9      6.705      9.639
REMARK  10 active torsions:
REMARK  status: ('A' for Active; 'I' for Inactive)
REMARK    1  A    between atoms: N_15  and  C_38 
REMARK    2  A    between atoms: C_23  and  C_26 
REMARK    3  A    between atoms: C_24  and  C_25 
REMARK    4  A    between atoms: C_30  and  C_37 
REMARK    5  A    between atoms: C_33  and  C_34 
REMARK    6  A    between atoms: C_43  and  C_47 
REMARK    7  A    between atoms: C_58  and  C_59 
REMARK    8  A    between atoms: C_63  and  C_64 
REMARK    9  A    between atoms: C_69  and  C_71 
REMARK   10  A    between atoms: C_74  and  C_76 
ROOT
HETATM    1  O   UNK N   1      33.683  17.693   7.356  0.00  0.00    -0.393 OA
HETATM    2  O   UNK N   1      31.821  15.859   5.452  0.00  0.00    -0.271 OA
HETATM    3  O   UNK N   1      30.569  15.845   5.745  0.00  0.00    -0.271 OA
HETATM    4  O   UNK N   1      35.188  18.467   7.980  0.00  0.00    -0.394 OA
HETATM    5  O   UNK N   1      28.615  15.978   6.401  0.00  0.00    -0.398 OA
HETATM    6  O   UNK N   1      32.530  16.935   6.663  0.00  0.00    -0.271 OA
HETATM    7  O   UNK N   1      32.164  17.127   7.002  0.00  0.00    -0.271 OA
HETATM    8  O   UNK N   1      29.870  16.594   6.884  0.00  0.00    -0.393 OA
HETATM    9  O   UNK N   1      30.363  17.787   8.300  0.00  0.00    -0.271 OA
HETATM   10  O   UNK N   1      34.365  16.740   5.958  0.00  0.00    -0.393 OA
HETATM   11  O   UNK N   1      31.657  16.747   6.638  0.00  0.00    -0.271 OA
HETATM   12  O   UNK N   1      28.749  15.418   5.646  0.00  0.00    -0.268 OA
HETATM   13  O   UNK N   1      31.133  12.185   0.887  0.00  0.00    -0.351 OA
HETATM   14  N   UNK N   1      31.329  16.792   6.778  0.00  0.00    -0.334 N 
HETATM   15  N   UNK N   1      33.633  17.402   6.993  0.00  0.00    -0.334 N 
HETATM   16  N   UNK N   1      32.818  15.933   5.301  0.00  0.00    -0.357 N 
HETATM   17  N   UNK N   1      29.744  16.844   7.236  0.00  0.00    -0.344 N 
HETATM   18  N   UNK N   1      31.798  17.596   7.698  0.00  0.00    -0.344 N 
HETATM   19  N   UNK N   1      31.751  14.670   3.938  0.00  0.00    -0.414 N 
HETATM   20  N   UNK N   1      32.255  16.207   5.794  0.00  0.00    -0.344 N 
HETATM   21  N   UNK N   1      30.106  15.825   5.834  0.00  0.00    -0.344 N 
HETATM   22  N   UNK N   1      32.975  13.716   2.404  0.00  0.00    -0.429 N 
HETATM   23  C   UNK N   1      32.168  17.952   8.065  0.00  0.00     0.031 A 
HETATM   24  C   UNK N   1      32.910  17.439   7.220  0.00  0.00     0.155 A 
HETATM   25  C   UNK N   1      32.120  16.766   6.548  0.00  0.00     0.208 A 
HETATM   26  C   UNK N   1      31.061  17.499   7.755  0.00  0.00     0.134 A 
HETATM   27  C   UNK N   1      32.363  18.467   8.680  0.00  0.00     0.014 A 
HETATM   28  C   UNK N   1      32.348  16.308   5.901  0.00  0.00     0.243 A 
HETATM   29  C   UNK N   1      30.764  16.359   6.359  0.00  0.00     0.245 A 
HETATM   30  C   UNK N   1      33.211  17.784   7.590  0.00  0.00     0.181 A 
HETATM   31  C   UNK N   1      29.972  16.385   6.589  0.00  0.00     0.200 A 
HETATM   32  C   UNK N   1      33.743  18.228   8.030  0.00  0.00     0.068 A 
HETATM   33  C   UNK N   1      34.490  18.122   7.708  0.00  0.00     0.138 A 
HETATM   34  C   UNK N   1      34.422  17.613   7.068  0.00  0.00     0.158 A 
HETATM   35  C   UNK N   1      32.623  15.418   4.686  0.00  0.00     0.147 A 
HETATM   36  C   UNK N   1      31.840  15.183   4.577  0.00  0.00     0.096 A 
HETATM   37  C   UNK N   1      32.513  17.438   7.317  0.00  0.00     0.241 A 
HETATM   38  C   UNK N   1      32.935  17.056   6.720  0.00  0.00     0.246 A 
HETATM   39  C   UNK N   1      29.407  15.952   6.171  0.00  0.00     0.199 A 
HETATM   40  C   UNK N   1      31.101  17.251   7.425  0.00  0.00     0.205 A 
HETATM   41  C   UNK N   1      31.126  15.342   4.958  0.00  0.00     0.061 A 
HETATM   42  C   UNK N   1      32.953  16.553   6.066  0.00  0.00     0.205 A 
HETATM   43  C   UNK N   1      30.898  15.800   5.606  0.00  0.00     0.179 A 
HETATM   44  C   UNK N   1      30.309  17.276   7.654  0.00  0.00     0.243 A 
HETATM   45  C   UNK N   1      30.295  17.078   7.402  0.00  0.00     0.154 A 
HETATM   46  C   UNK N   1      33.667  16.395   5.686  0.00  0.00     0.146 A 
HETATM   47  C   UNK N   1      31.463  16.233   6.023  0.00  0.00     0.241 A 
HETATM   48  C   UNK N   1      29.903  17.474   8.010  0.00  0.00     0.073 A 
HETATM   49  C   UNK N   1      32.408  14.450   3.491  0.00  0.00     0.133 A 
HETATM   50  C   UNK N   1      34.090  16.013   5.089  0.00  0.00     0.042 A 
HETATM   51  C   UNK N   1      29.206  17.653   8.413  0.00  0.00    -0.056 A 
HETATM   52  C   UNK N   1      32.318  13.936   2.851  0.00  0.00     0.130 A 
HETATM   53  C   UNK N   1      29.541  15.393   5.417  0.00  0.00     0.252 A 
HETATM   54  C   UNK N   1      28.490  17.324   8.167  0.00  0.00     0.007 A 
HETATM   55  C   UNK N   1      29.225  18.161   9.063  0.00  0.00     0.007 A 
HETATM   56  C   UNK N   1      29.769  14.935   4.770  0.00  0.00     0.032 A 
HETATM   57  C   UNK N   1      27.794  17.504   8.571  0.00  0.00     0.001 A 
HETATM   58  C   UNK N   1      28.527  18.340   9.466  0.00  0.00     0.001 A 
HETATM   59  C   UNK N   1      27.812  18.011   9.221  0.00  0.00     0.000 A 
HETATM   60  C   UNK N   1      29.204  14.501   4.352  0.00  0.00     0.018 A 
HETATM   61  C   UNK N   1      30.561  14.909   4.540  0.00  0.00     0.018 A 
HETATM   62  C   UNK N   1      29.431  14.043   3.705  0.00  0.00     0.013 A 
HETATM   63  C   UNK N   1      30.788  14.450   3.893  0.00  0.00     0.013 A 
HETATM   64  C   UNK N   1      30.224  14.018   3.476  0.00  0.00    -0.026 A 
HETATM   65  C   UNK N   1      30.451  13.560   2.829  0.00  0.00    -0.026 A 
HETATM   66  C   UNK N   1      31.243  13.534   2.599  0.00  0.00     0.015 A 
HETATM   67  C   UNK N   1      29.886  13.126   2.410  0.00  0.00     0.015 A 
HETATM   68  C   UNK N   1      31.470  13.075   1.952  0.00  0.00     0.037 A 
HETATM   69  C   UNK N   1      30.114  12.668   1.763  0.00  0.00     0.037 A 
HETATM   70  C   UNK N   1      30.459  10.402  -1.243  0.00  0.00     0.000 A 
HETATM   71  C   UNK N   1      30.906  12.643   1.534  0.00  0.00     0.068 A 
HETATM   72  C   UNK N   1      30.232  10.861  -0.596  0.00  0.00     0.002 A 
HETATM   73  C   UNK N   1      29.895   9.969  -1.661  0.00  0.00     0.000 A 
HETATM   74  C   UNK N   1      30.796  11.293  -0.178  0.00  0.00     0.027 A 
HETATM   75  C   UNK N   1      30.122   9.511  -2.308  0.00  0.00    -0.000 A 
HETATM   76  C   UNK N   1      30.568  11.751   0.469  0.00  0.00     0.175 A 
HETATM   77  C   UNK N   1      29.557   9.078  -2.726  0.00  0.00    -0.005 A 
HETATM   78  C   UNK N   1      29.785   8.620  -3.373  0.00  0.00     0.005 A 
HETATM   79  H   UNK N   1      34.402  17.386   6.781  0.00  0.00     0.210 HD
HETATM   80  H   UNK N   1      36.027  18.282   7.532  0.00  0.00     0.210 HD
HETATM   81  H   UNK N   1      28.348  16.517   7.162  0.00  0.00     0.209 HD
HETATM   82  H   UNK N   1      28.912  16.493   6.991  0.00  0.00     0.210 HD
HETATM   83  H   UNK N   1      35.205  16.555   5.510  0.00  0.00     0.210 HD
HETATM   84  H   UNK N   1      33.777  16.155   5.349  0.00  0.00     0.162 HD
HETATM   85  H   UNK N   1      28.799  16.874   7.510  0.00  0.00     0.163 HD
HETATM   86  H   UNK N   1      31.778  18.197   8.477  0.00  0.00     0.163 HD
HETATM   87  H   UNK N   1      30.827  14.308   3.700  0.00  0.00     0.153 HD
HETATM   88  H   UNK N   1      32.401  15.628   5.011  0.00  0.00     0.163 HD
HETATM   89  H   UNK N   1      29.834  16.373   6.607  0.00  0.00     0.163 HD
HETATM   90  H   UNK N   1      32.865  13.081   1.614  0.00  0.00     0.149 HD
HETATM   91  H   UNK N   1      33.899  14.078   2.642  0.00  0.00     0.149 HD
ENDROOT
TORSDOF 10
ENDMDL
