REMARK  3 active torsions:
REMARK  status: ('A' for Active; 'I' for Inactive)
REMARK    1  A    between atoms: C_3  and  O_9 
REMARK    2  A    between atoms: C_13  and  O_19 
REMARK    3  A    between atoms: C_23  and  O_29 
ROOT
HETATM    1 Ga   UNK N   1       1.464   4.088  -1.673  0.00  0.00     0.000 Ga
HETATM    2  H   UNK N   1       2.933   4.088  -1.673  0.00  0.00     0.000 HD
HETATM    3  H   UNK N   1       0.730   5.361  -1.673  0.00  0.00     0.000 HD
HETATM    4  H   UNK N   1       0.730   2.816  -1.673  0.00  0.00     0.000 HD
ENDROOT
TORSDOF 3
