REMARK  10 active torsions:
REMARK  status: ('A' for Active; 'I' for Inactive)
REMARK    1  A    between atoms: O_1  and  C_24 
REMARK    2  A    between atoms: O_1  and  C_29 
REMARK    3  A    between atoms: O_3  and  C_32 
REMARK    4  A    between atoms: O_4  and  C_40 
REMARK    5  A    between atoms: O_4  and  C_41 
REMARK    6  A    between atoms: N_5  and  C_18 
REMARK    7  A    between atoms: N_6  and  C_25 
REMARK       I    between atoms: N_7  and  C_27 
REMARK       I    between atoms: N_10  and  C_27 
REMARK    8  A    between atoms: N_10  and  C_34 
REMARK    9  A    between atoms: C_18  and  C_19 
REMARK   10  A    between atoms: C_19  and  C_24 
ROOT
HETATM    1  N   UNK N   1       9.765   3.291   0.284  0.00  0.00    -0.338 N 
ATOM      2  HN  UNK N   1      10.731   3.018   0.470  1.00  0.00     0.168 HD
HETATM    3  N   UNK N   1       8.188   4.985  -0.198  0.00  0.00    -0.351 N 
ATOM      4  HN  UNK N   1       7.978   5.971  -0.360  1.00  0.00     0.166 HD
HETATM    5  C   UNK N   1       8.790   2.344   0.280  0.00  0.00     0.117 A 
HETATM    6  C   UNK N   1       7.469   2.724  -0.000  0.00  0.00     0.037 A 
HETATM    7  C   UNK N   1       7.183   4.071  -0.226  0.00  0.00     0.050 A 
HETATM    8  C   UNK N   1       4.818   3.501  -0.481  0.00  0.00     0.104 A 
HETATM    9  C   UNK N   1       6.445   1.788  -0.058  0.00  0.00     0.057 A 
HETATM   10  C   UNK N   1       5.860   4.462  -0.461  0.00  0.00     0.070 A 
HETATM   11  C   UNK N   1       5.130   2.138  -0.290  0.00  0.00     0.102 A 
HETATM   12  C   UNK N   1       9.472   4.599   0.043  0.00  0.00     0.182 A 
ENDROOT
BRANCH   5  13
HETATM   13  N   UNK N   1       9.110   0.992   0.584  0.00  0.00    -0.363 N 
HETATM   14  C   UNK N   1       8.539   0.389   1.777  0.00  0.00     0.144 C 
HETATM   15  C   UNK N   1       7.270  -0.393   1.423  0.00  0.00     0.147 C 
HETATM   16  N   UNK N   1       7.508  -1.207   0.251  0.00  0.00    -0.331 N 
HETATM   17  C   UNK N   1       8.131  -0.613  -0.924  0.00  0.00     0.147 C 
HETATM   18  C   UNK N   1       7.289  -2.540   0.306  0.00  0.00     0.323 C 
HETATM   19  C   UNK N   1       9.418   0.105  -0.513  0.00  0.00     0.144 C 
HETATM   20  O   UNK N   1       6.839  -3.044   1.330  0.00  0.00    -0.247 OA
HETATM   21  N   UNK N   1       7.658  -3.323  -0.729  0.00  0.00    -0.309 N 
HETATM   22  H   UNK N   1       7.768  -2.930  -1.625  0.00  0.00     0.170 HD
BRANCH  21  23
HETATM   23  C   UNK N   1       7.886  -4.694  -0.537  0.00  0.00     0.036 A 
HETATM   24  C   UNK N   1       9.170  -5.079  -0.168  0.00  0.00     0.032 A 
HETATM   25  C   UNK N   1       9.459  -6.408   0.072  0.00  0.00     0.039 A 
HETATM   26  C   UNK N   1       8.461  -7.383  -0.056  0.00  0.00     0.069 A 
HETATM   27  C   UNK N   1       7.156  -6.994  -0.400  0.00  0.00     0.039 A 
HETATM   28  C   UNK N   1       6.862  -5.643  -0.637  0.00  0.00     0.032 A 
BRANCH  26  29
HETATM   29  O   UNK N   1       8.751  -8.697   0.116  0.00  0.00    -0.347 OA
BRANCH  29  30
HETATM   30  C   UNK N   1      10.013  -9.177   0.426  0.00  0.00     0.120 C 
HETATM   31  C   UNK N   1       9.957 -10.684   0.528  0.00  0.00     0.040 C 
HETATM   32  C   UNK N   1      11.032  -8.814  -0.647  0.00  0.00     0.040 C 
ENDBRANCH  29  30
ENDBRANCH  26  29
ENDBRANCH  21  23
ENDBRANCH   5  13
BRANCH  11  33
HETATM   33  O   UNK N   1       4.214   1.133  -0.300  0.00  0.00    -0.353 OA
HETATM   34  C   UNK N   1       2.856   1.283  -0.450  0.00  0.00     0.210 C 
ENDBRANCH  11  33
BRANCH   8  35
HETATM   35  O   UNK N   1       3.533   3.874  -0.671  0.00  0.00    -0.348 OA
BRANCH  35  36
HETATM   36  C   UNK N   1       3.130   5.181  -0.772  0.00  0.00     0.177 C 
BRANCH  36  37
HETATM   37  C   UNK N   1       3.249   5.881   0.572  0.00  0.00     0.057 C 
BRANCH  37  38
HETATM   38  C   UNK N   1       2.972   7.356   0.345  0.00  0.00     0.274 C 
BRANCH  38  39
HETATM   39  N   UNK N   1       1.570   7.711   0.556  0.00  0.00     0.088 N 
HETATM   40  C   UNK N   1       1.439   9.084   0.072  0.00  0.00     0.272 C 
HETATM   41  C   UNK N   1       0.013   9.589   0.273  0.00  0.00     0.030 C 
HETATM   42  C   UNK N   1      -0.968   8.677  -0.456  0.00  0.00     0.003 C 
HETATM   43  C   UNK N   1      -0.766   7.233  -0.017  0.00  0.00     0.030 C 
HETATM   44  C   UNK N   1       0.690   6.853  -0.247  0.00  0.00     0.272 C 
ENDBRANCH  38  39
ENDBRANCH  37  38
ENDBRANCH  36  37
ENDBRANCH  35  36
ENDBRANCH   8  35
TORSDOF 10
