MODEL 1
REMARK VINA RESULT:      -7.3      0.000      0.000
REMARK  2 active torsions:
REMARK  status: ('A' for Active; 'I' for Inactive)
REMARK    1  A    between atoms: C_15  and  C_14 
REMARK    2  A    between atoms: O_24  and  C_15 
ROOT
HETATM    1  C   UNK N   1      32.629  16.301   2.794  0.00  0.00     0.001 A 
HETATM    2  C   UNK N   1      33.698  15.943   3.600  0.00  0.00     0.001 A 
HETATM    3  C   UNK N   1      31.441  16.729   3.374  0.00  0.00     0.007 A 
HETATM    4  C   UNK N   1      33.576  16.014   4.984  0.00  0.00     0.009 A 
HETATM    5  C   UNK N   1      29.941  17.288   5.212  0.00  0.00     0.059 C 
HETATM    6  C   UNK N   1      33.748  16.758   7.792  0.00  0.00     0.041 C 
HETATM    7  C   UNK N   1      32.020  14.960   7.589  0.00  0.00     0.041 C 
HETATM    8  C   UNK N   1      34.818  15.681   7.585  0.00  0.00     0.115 C 
HETATM    9  C   UNK N   1      33.173  13.992   7.312  0.00  0.00     0.115 C 
HETATM   10  C   UNK N   1      29.416  16.645   6.468  0.00  0.00     0.135 C 
HETATM   11  C   UNK N   1      30.484  18.719   9.243  0.00  0.00     0.123 A 
HETATM   12  C   UNK N   1      31.292  16.816   4.765  0.00  0.00    -0.049 A 
HETATM   13  C   UNK N   1      32.396  16.461   5.618  0.00  0.00    -0.035 A 
HETATM   14  C   UNK N   1      29.494  18.240   8.408  0.00  0.00     0.102 A 
HETATM   15  C   UNK N   1      31.350  17.306   7.858  0.00  0.00     0.097 A 
HETATM   16  C   UNK N   1      32.367  16.401   7.173  0.00  0.00     0.049 C 
HETATM   17  N   UNK N   1      34.347  14.392   8.083  0.00  0.00    -0.421 N 
HETATM   18  N   UNK N   1      31.648  18.130   8.891  0.00  0.00    -0.352 N 
ATOM     19  HN  UNK N   1      32.563  18.276   9.317  1.00  0.00     0.166 HD
HETATM   20  N   UNK N   1      30.045  17.354   7.556  0.00  0.00    -0.331 N 
HETATM   21  H   UNK N   1      34.769  13.859   8.844  0.00  0.00     0.153 HD
ENDROOT
BRANCH  14  22
HETATM   22  C   UNK N   1      28.079  18.670   8.422  0.00  0.00     0.162 C 
HETATM   23  N   UNK N   1      27.631  19.437   7.497  0.00  0.00    -0.378 N 
HETATM   24  H   UNK N   1      26.737  19.332   7.099  0.00  0.00     0.158 HD
ATOM     25  HN  UNK N   1      28.230  20.189   7.158  1.00  0.00     0.158 HD
BRANCH  22  26
HETATM   26  O   UNK N   1      27.244  18.245   9.390  0.00  0.00    -0.345 OA
HETATM   27  H   UNK N   1      26.973  18.664  10.183  0.00  0.00     0.219 HD
ENDBRANCH  22  26
ENDBRANCH  14  22
TORSDOF 2
ENDMDL
MODEL 2
REMARK VINA RESULT:      -6.8     12.330     14.272
REMARK  2 active torsions:
REMARK  status: ('A' for Active; 'I' for Inactive)
REMARK    1  A    between atoms: C_15  and  C_14 
REMARK    2  A    between atoms: O_24  and  C_15 
ROOT
HETATM    1  C   UNK N   1      28.204  21.239  -7.642  0.00  0.00     0.001 A 
HETATM    2  C   UNK N   1      29.462  21.203  -7.063  0.00  0.00     0.001 A 
HETATM    3  C   UNK N   1      27.284  22.198  -7.236  0.00  0.00     0.007 A 
HETATM    4  C   UNK N   1      29.797  22.126  -6.078  0.00  0.00     0.009 A 
HETATM    5  C   UNK N   1      26.481  24.094  -5.933  0.00  0.00     0.059 C 
HETATM    6  C   UNK N   1      30.896  24.356  -4.564  0.00  0.00     0.041 C 
HETATM    7  C   UNK N   1      29.130  23.280  -3.155  0.00  0.00     0.041 C 
HETATM    8  C   UNK N   1      31.800  23.159  -4.251  0.00  0.00     0.115 C 
HETATM    9  C   UNK N   1      30.095  22.104  -2.983  0.00  0.00     0.115 C 
HETATM   10  C   UNK N   1      26.368  24.495  -4.487  0.00  0.00     0.135 C 
HETATM   11  C   UNK N   1      28.352  27.499  -4.062  0.00  0.00     0.123 A 
HETATM   12  C   UNK N   1      27.597  23.144  -6.251  0.00  0.00    -0.049 A 
HETATM   13  C   UNK N   1      28.904  23.131  -5.646  0.00  0.00    -0.035 A 
HETATM   14  C   UNK N   1      27.128  26.864  -4.136  0.00  0.00     0.102 A 
HETATM   15  C   UNK N   1      28.670  25.381  -4.339  0.00  0.00     0.097 A 
HETATM   16  C   UNK N   1      29.377  24.037  -4.473  0.00  0.00     0.049 C 
HETATM   17  N   UNK N   1      31.469  22.597  -2.945  0.00  0.00    -0.421 N 
HETATM   18  N   UNK N   1      29.317  26.562  -4.193  0.00  0.00    -0.352 N 
ATOM     19  HN  UNK N   1      30.325  26.714  -4.182  1.00  0.00     0.166 HD
HETATM   20  N   UNK N   1      27.340  25.544  -4.299  0.00  0.00    -0.331 N 
HETATM   21  H   UNK N   1      32.093  22.555  -2.140  0.00  0.00     0.153 HD
ENDROOT
BRANCH  14  22
HETATM   22  C   UNK N   1      25.810  27.534  -4.090  0.00  0.00     0.162 C 
HETATM   23  N   UNK N   1      25.098  27.625  -5.153  0.00  0.00    -0.378 N 
HETATM   24  H   UNK N   1      24.120  27.514  -5.155  0.00  0.00     0.158 HD
ATOM     25  HN  UNK N   1      25.568  27.818  -6.037  1.00  0.00     0.158 HD
BRANCH  22  26
HETATM   26  O   UNK N   1      25.337  28.036  -2.933  0.00  0.00    -0.345 OA
HETATM   27  H   UNK N   1      25.153  27.611  -2.119  0.00  0.00     0.219 HD
ENDBRANCH  22  26
ENDBRANCH  14  22
TORSDOF 2
ENDMDL
MODEL 3
REMARK VINA RESULT:      -6.8      2.755      6.173
REMARK  2 active torsions:
REMARK  status: ('A' for Active; 'I' for Inactive)
REMARK    1  A    between atoms: C_15  and  C_14 
REMARK    2  A    between atoms: O_24  and  C_15 
ROOT
HETATM    1  C   UNK N   1      29.127  18.303   9.716  0.00  0.00     0.001 A 
HETATM    2  C   UNK N   1      28.170  18.622   8.766  0.00  0.00     0.001 A 
HETATM    3  C   UNK N   1      30.285  17.637   9.333  0.00  0.00     0.007 A 
HETATM    4  C   UNK N   1      28.374  18.275   7.434  0.00  0.00     0.009 A 
HETATM    5  C   UNK N   1      31.815  16.560   7.772  0.00  0.00     0.059 C 
HETATM    6  C   UNK N   1      28.933  18.272   4.578  0.00  0.00     0.041 C 
HETATM    7  C   UNK N   1      28.817  15.887   5.331  0.00  0.00     0.041 C 
HETATM    8  C   UNK N   1      27.407  18.328   4.700  0.00  0.00     0.115 C 
HETATM    9  C   UNK N   1      27.309  16.094   5.491  0.00  0.00     0.115 C 
HETATM   10  C   UNK N   1      31.776  15.474   6.730  0.00  0.00     0.135 C 
HETATM   11  C   UNK N   1      32.674  17.008   3.570  0.00  0.00     0.123 A 
HETATM   12  C   UNK N   1      30.519  17.280   7.999  0.00  0.00    -0.049 A 
HETATM   13  C   UNK N   1      29.543  17.615   6.995  0.00  0.00    -0.035 A 
HETATM   14  C   UNK N   1      32.970  16.180   4.635  0.00  0.00     0.102 A 
HETATM   15  C   UNK N   1      30.987  16.959   4.918  0.00  0.00     0.097 A 
HETATM   16  C   UNK N   1      29.598  17.205   5.494  0.00  0.00     0.049 C 
HETATM   17  N   UNK N   1      26.827  17.011   4.462  0.00  0.00    -0.421 N 
HETATM   18  N   UNK N   1      31.428  17.496   3.755  0.00  0.00    -0.352 N 
ATOM     19  HN  UNK N   1      30.923  18.138   3.143  1.00  0.00     0.166 HD
HETATM   20  N   UNK N   1      31.908  16.151   5.462  0.00  0.00    -0.331 N 
HETATM   21  H   UNK N   1      26.188  16.770   3.703  0.00  0.00     0.153 HD
ENDROOT
BRANCH  14  22
HETATM   22  C   UNK N   1      34.258  15.484   4.846  0.00  0.00     0.162 C 
HETATM   23  N   UNK N   1      34.540  14.434   4.165  0.00  0.00    -0.378 N 
HETATM   24  H   UNK N   1      35.440  14.248   3.814  0.00  0.00     0.158 HD
ATOM     25  HN  UNK N   1      33.796  13.763   3.978  1.00  0.00     0.158 HD
BRANCH  22  26
HETATM   26  O   UNK N   1      35.152  15.953   5.737  0.00  0.00    -0.345 OA
HETATM   27  H   UNK N   1      35.815  16.609   5.642  0.00  0.00     0.219 HD
ENDBRANCH  22  26
ENDBRANCH  14  22
TORSDOF 2
ENDMDL
MODEL 4
REMARK VINA RESULT:      -6.7      2.497      4.896
REMARK  2 active torsions:
REMARK  status: ('A' for Active; 'I' for Inactive)
REMARK    1  A    between atoms: C_15  and  C_14 
REMARK    2  A    between atoms: O_24  and  C_15 
ROOT
HETATM    1  C   UNK N   1      27.813  19.048   6.654  0.00  0.00     0.001 A 
HETATM    2  C   UNK N   1      28.100  18.625   5.365  0.00  0.00     0.001 A 
HETATM    3  C   UNK N   1      28.656  18.694   7.700  0.00  0.00     0.007 A 
HETATM    4  C   UNK N   1      29.229  17.848   5.128  0.00  0.00     0.009 A 
HETATM    5  C   UNK N   1      30.587  17.625   8.733  0.00  0.00     0.059 C 
HETATM    6  C   UNK N   1      31.850  16.852   4.346  0.00  0.00     0.041 C 
HETATM    7  C   UNK N   1      30.755  15.088   5.744  0.00  0.00     0.041 C 
HETATM    8  C   UNK N   1      30.904  16.462   3.206  0.00  0.00     0.115 C 
HETATM    9  C   UNK N   1      29.814  14.847   4.561  0.00  0.00     0.115 C 
HETATM   10  C   UNK N   1      31.215  16.258   8.793  0.00  0.00     0.135 C 
HETATM   11  C   UNK N   1      34.543  16.560   7.390  0.00  0.00     0.123 A 
HETATM   12  C   UNK N   1      29.803  17.917   7.489  0.00  0.00    -0.049 A 
HETATM   13  C   UNK N   1      30.125  17.479   6.156  0.00  0.00    -0.035 A 
HETATM   14  C   UNK N   1      33.703  16.384   8.472  0.00  0.00     0.102 A 
HETATM   15  C   UNK N   1      32.498  16.530   6.698  0.00  0.00     0.097 A 
HETATM   16  C   UNK N   1      31.295  16.530   5.763  0.00  0.00     0.049 C 
HETATM   17  N   UNK N   1      30.536  15.053   3.309  0.00  0.00    -0.421 N 
HETATM   18  N   UNK N   1      33.780  16.653   6.279  0.00  0.00    -0.352 N 
ATOM     19  HN  UNK N   1      34.104  16.788   5.321  1.00  0.00     0.166 HD
HETATM   20  N   UNK N   1      32.433  16.358   8.026  0.00  0.00    -0.331 N 
HETATM   21  H   UNK N   1      30.748  14.332   2.619  0.00  0.00     0.153 HD
ENDROOT
BRANCH  14  22
HETATM   22  C   UNK N   1      34.133  16.289   9.884  0.00  0.00     0.162 C 
HETATM   23  N   UNK N   1      34.924  17.171  10.376  0.00  0.00    -0.378 N 
HETATM   24  H   UNK N   1      34.831  17.528  11.288  0.00  0.00     0.158 HD
ATOM     25  HN  UNK N   1      35.685  17.520   9.792  1.00  0.00     0.158 HD
BRANCH  22  26
HETATM   26  O   UNK N   1      33.684  15.293  10.671  0.00  0.00    -0.345 OA
HETATM   27  H   UNK N   1      33.246  14.495  10.448  0.00  0.00     0.219 HD
ENDBRANCH  22  26
ENDBRANCH  14  22
TORSDOF 2
ENDMDL
MODEL 5
REMARK VINA RESULT:      -6.7      8.593     11.242
REMARK  2 active torsions:
REMARK  status: ('A' for Active; 'I' for Inactive)
REMARK    1  A    between atoms: C_15  and  C_14 
REMARK    2  A    between atoms: O_24  and  C_15 
ROOT
HETATM    1  C   UNK N   1      35.261  12.522  18.815  0.00  0.00     0.001 A 
HETATM    2  C   UNK N   1      35.303  11.161  18.557  0.00  0.00     0.001 A 
HETATM    3  C   UNK N   1      35.396  13.428  17.770  0.00  0.00     0.007 A 
HETATM    4  C   UNK N   1      35.480  10.710  17.253  0.00  0.00     0.009 A 
HETATM    5  C   UNK N   1      35.707  14.116  15.454  0.00  0.00     0.059 C 
HETATM    6  C   UNK N   1      35.132   9.606  14.582  0.00  0.00     0.041 C 
HETATM    7  C   UNK N   1      37.399  10.662  14.676  0.00  0.00     0.041 C 
HETATM    8  C   UNK N   1      35.689   8.460  15.433  0.00  0.00     0.115 C 
HETATM    9  C   UNK N   1      37.814   9.505  15.588  0.00  0.00     0.115 C 
HETATM   10  C   UNK N   1      36.671  13.860  14.326  0.00  0.00     0.135 C 
HETATM   11  C   UNK N   1      34.764  12.380  11.621  0.00  0.00     0.123 A 
HETATM   12  C   UNK N   1      35.569  13.002  16.447  0.00  0.00    -0.049 A 
HETATM   13  C   UNK N   1      35.602  11.592  16.156  0.00  0.00    -0.035 A 
HETATM   14  C   UNK N   1      35.455  13.444  12.166  0.00  0.00     0.102 A 
HETATM   15  C   UNK N   1      35.538  11.803  13.553  0.00  0.00     0.097 A 
HETATM   16  C   UNK N   1      35.889  10.951  14.767  0.00  0.00     0.049 C 
HETATM   17  N   UNK N   1      37.117   8.287  15.184  0.00  0.00    -0.421 N 
HETATM   18  N   UNK N   1      34.818  11.354  12.497  0.00  0.00    -0.352 N 
ATOM     19  HN  UNK N   1      34.402  10.429  12.386  1.00  0.00     0.166 HD
HETATM   20  N   UNK N   1      35.940  13.069  13.365  0.00  0.00    -0.331 N 
HETATM   21  H   UNK N   1      37.555   7.453  14.794  0.00  0.00     0.153 HD
ENDROOT
BRANCH  14  22
HETATM   22  C   UNK N   1      35.594  14.782  11.551  0.00  0.00     0.162 C 
HETATM   23  N   UNK N   1      34.549  15.470  11.268  0.00  0.00    -0.378 N 
HETATM   24  H   UNK N   1      34.496  16.444  11.400  0.00  0.00     0.158 HD
ATOM     25  HN  UNK N   1      33.736  14.985  10.890  1.00  0.00     0.158 HD
BRANCH  22  26
HETATM   26  O   UNK N   1      36.813  15.298  11.302  0.00  0.00    -0.345 OA
HETATM   27  H   UNK N   1      37.515  15.502  11.887  0.00  0.00     0.219 HD
ENDBRANCH  22  26
ENDBRANCH  14  22
TORSDOF 2
ENDMDL
MODEL 6
REMARK VINA RESULT:      -6.6     14.648     16.762
REMARK  2 active torsions:
REMARK  status: ('A' for Active; 'I' for Inactive)
REMARK    1  A    between atoms: C_15  and  C_14 
REMARK    2  A    between atoms: O_24  and  C_15 
ROOT
HETATM    1  C   UNK N   1      30.761  25.980  -3.371  0.00  0.00     0.001 A 
HETATM    2  C   UNK N   1      30.234  27.262  -3.372  0.00  0.00     0.001 A 
HETATM    3  C   UNK N   1      30.107  24.965  -4.058  0.00  0.00     0.007 A 
HETATM    4  C   UNK N   1      29.054  27.525  -4.059  0.00  0.00     0.009 A 
HETATM    5  C   UNK N   1      28.351  23.990  -5.437  0.00  0.00     0.059 C 
HETATM    6  C   UNK N   1      27.046  28.399  -5.976  0.00  0.00     0.041 C 
HETATM    7  C   UNK N   1      25.921  26.871  -4.344  0.00  0.00     0.041 C 
HETATM    8  C   UNK N   1      27.064  29.470  -4.881  0.00  0.00     0.115 C 
HETATM    9  C   UNK N   1      26.072  27.992  -3.312  0.00  0.00     0.115 C 
HETATM   10  C   UNK N   1      26.848  23.903  -5.445  0.00  0.00     0.135 C 
HETATM   11  C   UNK N   1      25.714  25.491  -8.501  0.00  0.00     0.123 A 
HETATM   12  C   UNK N   1      28.921  25.203  -4.764  0.00  0.00    -0.049 A 
HETATM   13  C   UNK N   1      28.364  26.531  -4.788  0.00  0.00    -0.035 A 
HETATM   14  C   UNK N   1      25.922  24.360  -7.736  0.00  0.00     0.102 A 
HETATM   15  C   UNK N   1      26.525  26.072  -6.586  0.00  0.00     0.097 A 
HETATM   16  C   UNK N   1      27.009  26.943  -5.432  0.00  0.00     0.049 C 
HETATM   17  N   UNK N   1      25.937  29.288  -3.971  0.00  0.00    -0.421 N 
HETATM   18  N   UNK N   1      26.096  26.563  -7.773  0.00  0.00    -0.352 N 
ATOM     19  HN  UNK N   1      26.068  27.542  -8.060  1.00  0.00     0.166 HD
HETATM   20  N   UNK N   1      26.419  24.737  -6.542  0.00  0.00    -0.331 N 
HETATM   21  H   UNK N   1      25.182  29.956  -3.819  0.00  0.00     0.153 HD
ENDROOT
BRANCH  14  22
HETATM   22  C   UNK N   1      25.682  22.969  -8.180  0.00  0.00     0.162 C 
HETATM   23  N   UNK N   1      26.667  22.231  -8.542  0.00  0.00    -0.378 N 
HETATM   24  H   UNK N   1      26.732  21.276  -8.318  0.00  0.00     0.158 HD
ATOM     25  HN  UNK N   1      27.417  22.656  -9.086  1.00  0.00     0.158 HD
BRANCH  22  26
HETATM   26  O   UNK N   1      24.436  22.459  -8.188  0.00  0.00    -0.345 OA
HETATM   27  H   UNK N   1      23.719  22.620  -8.768  0.00  0.00     0.219 HD
ENDBRANCH  22  26
ENDBRANCH  14  22
TORSDOF 2
ENDMDL
MODEL 7
REMARK VINA RESULT:      -6.4     12.828     15.175
REMARK  2 active torsions:
REMARK  status: ('A' for Active; 'I' for Inactive)
REMARK    1  A    between atoms: C_15  and  C_14 
REMARK    2  A    between atoms: O_24  and  C_15 
ROOT
HETATM    1  C   UNK N   1      30.623  21.371  -3.814  0.00  0.00     0.001 A 
HETATM    2  C   UNK N   1      30.359  20.980  -5.117  0.00  0.00     0.001 A 
HETATM    3  C   UNK N   1      30.047  22.531  -3.311  0.00  0.00     0.007 A 
HETATM    4  C   UNK N   1      29.519  21.751  -5.914  0.00  0.00     0.009 A 
HETATM    5  C   UNK N   1      28.671  24.541  -3.387  0.00  0.00     0.059 C 
HETATM    6  C   UNK N   1      27.288  22.811  -7.453  0.00  0.00     0.041 C 
HETATM    7  C   UNK N   1      29.023  24.609  -7.295  0.00  0.00     0.041 C 
HETATM    8  C   UNK N   1      28.190  22.104  -8.469  0.00  0.00     0.115 C 
HETATM    9  C   UNK N   1      29.868  23.768  -8.255  0.00  0.00     0.115 C 
HETATM   10  C   UNK N   1      28.522  25.767  -4.248  0.00  0.00     0.135 C 
HETATM   11  C   UNK N   1      25.148  25.725  -5.573  0.00  0.00     0.123 A 
HETATM   12  C   UNK N   1      29.192  23.323  -4.089  0.00  0.00    -0.049 A 
HETATM   13  C   UNK N   1      28.895  22.926  -5.441  0.00  0.00    -0.035 A 
HETATM   14  C   UNK N   1      26.104  26.253  -4.728  0.00  0.00     0.102 A 
HETATM   15  C   UNK N   1      27.016  24.687  -5.883  0.00  0.00     0.097 A 
HETATM   16  C   UNK N   1      28.056  23.740  -6.470  0.00  0.00     0.049 C 
HETATM   17  N   UNK N   1      28.996  23.076  -9.200  0.00  0.00    -0.421 N 
HETATM   18  N   UNK N   1      25.726  24.740  -6.294  0.00  0.00    -0.352 N 
ATOM     19  HN  UNK N   1      25.282  24.156  -7.003  1.00  0.00     0.166 HD
HETATM   20  N   UNK N   1      27.265  25.604  -4.938  0.00  0.00    -0.331 N 
HETATM   21  H   UNK N   1      28.958  23.244 -10.206  0.00  0.00     0.153 HD
ENDROOT
BRANCH  14  22
HETATM   22  C   UNK N   1      25.870  27.320  -3.730  0.00  0.00     0.162 C 
HETATM   23  N   UNK N   1      25.543  28.499  -4.115  0.00  0.00    -0.378 N 
HETATM   24  H   UNK N   1      24.879  29.052  -3.645  0.00  0.00     0.158 HD
ATOM     25  HN  UNK N   1      25.991  28.879  -4.949  1.00  0.00     0.158 HD
BRANCH  22  26
HETATM   26  O   UNK N   1      25.978  27.062  -2.413  0.00  0.00    -0.345 OA
HETATM   27  H   UNK N   1      25.347  26.724  -1.808  0.00  0.00     0.219 HD
ENDBRANCH  22  26
ENDBRANCH  14  22
TORSDOF 2
ENDMDL
MODEL 8
REMARK VINA RESULT:      -6.4     12.169     14.784
REMARK  2 active torsions:
REMARK  status: ('A' for Active; 'I' for Inactive)
REMARK    1  A    between atoms: C_15  and  C_14 
REMARK    2  A    between atoms: O_24  and  C_15 
ROOT
HETATM    1  C   UNK N   1      26.560  21.436  -8.528  0.00  0.00     0.001 A 
HETATM    2  C   UNK N   1      25.745  22.437  -8.024  0.00  0.00     0.001 A 
HETATM    3  C   UNK N   1      27.799  21.196  -7.947  0.00  0.00     0.007 A 
HETATM    4  C   UNK N   1      26.172  23.196  -6.940  0.00  0.00     0.009 A 
HETATM    5  C   UNK N   1      29.614  21.551  -6.361  0.00  0.00     0.059 C 
HETATM    6  C   UNK N   1      26.571  24.372  -4.307  0.00  0.00     0.041 C 
HETATM    7  C   UNK N   1      28.381  25.234  -5.806  0.00  0.00     0.041 C 
HETATM    8  C   UNK N   1      25.598  25.307  -5.034  0.00  0.00     0.115 C 
HETATM    9  C   UNK N   1      27.300  26.061  -6.505  0.00  0.00     0.115 C 
HETATM   10  C   UNK N   1      30.475  22.686  -5.874  0.00  0.00     0.135 C 
HETATM   11  C   UNK N   1      29.864  23.029  -2.318  0.00  0.00     0.123 A 
HETATM   12  C   UNK N   1      28.252  21.941  -6.850  0.00  0.00    -0.049 A 
HETATM   13  C   UNK N   1      27.414  22.977  -6.304  0.00  0.00    -0.035 A 
HETATM   14  C   UNK N   1      30.680  22.666  -3.370  0.00  0.00     0.102 A 
HETATM   15  C   UNK N   1      28.853  23.459  -4.177  0.00  0.00     0.097 A 
HETATM   16  C   UNK N   1      27.804  23.960  -5.162  0.00  0.00     0.049 C 
HETATM   17  N   UNK N   1      26.299  26.487  -5.531  0.00  0.00    -0.421 N 
HETATM   18  N   UNK N   1      28.717  23.525  -2.831  0.00  0.00    -0.352 N 
ATOM     19  HN  UNK N   1      27.913  23.877  -2.310  1.00  0.00     0.166 HD
HETATM   20  N   UNK N   1      30.043  22.947  -4.522  0.00  0.00    -0.331 N 
HETATM   21  H   UNK N   1      26.119  27.449  -5.246  0.00  0.00     0.153 HD
ENDROOT
BRANCH  14  22
HETATM   22  C   UNK N   1      32.010  22.031  -3.244  0.00  0.00     0.162 C 
HETATM   23  N   UNK N   1      32.904  22.227  -4.143  0.00  0.00    -0.378 N 
HETATM   24  H   UNK N   1      33.857  22.353  -3.934  0.00  0.00     0.158 HD
ATOM     25  HN  UNK N   1      32.611  22.255  -5.119  1.00  0.00     0.158 HD
BRANCH  22  26
HETATM   26  O   UNK N   1      32.303  21.261  -2.178  0.00  0.00    -0.345 OA
HETATM   27  H   UNK N   1      31.755  20.953  -1.484  0.00  0.00     0.219 HD
ENDBRANCH  22  26
ENDBRANCH  14  22
TORSDOF 2
ENDMDL
MODEL 9
REMARK VINA RESULT:      -6.4      4.619      7.613
REMARK  2 active torsions:
REMARK  status: ('A' for Active; 'I' for Inactive)
REMARK    1  A    between atoms: C_15  and  C_14 
REMARK    2  A    between atoms: O_24  and  C_15 
ROOT
HETATM    1  C   UNK N   1      36.609  12.907  14.261  0.00  0.00     0.001 A 
HETATM    2  C   UNK N   1      37.158  11.944  13.429  0.00  0.00     0.001 A 
HETATM    3  C   UNK N   1      36.054  14.057  13.713  0.00  0.00     0.007 A 
HETATM    4  C   UNK N   1      37.150  12.134  12.051  0.00  0.00     0.009 A 
HETATM    5  C   UNK N   1      35.398  15.570  11.919  0.00  0.00     0.059 C 
HETATM    6  C   UNK N   1      36.598  12.024   9.195  0.00  0.00     0.041 C 
HETATM    7  C   UNK N   1      38.125  13.965   9.598  0.00  0.00     0.041 C 
HETATM    8  C   UNK N   1      37.800  11.100   9.419  0.00  0.00     0.115 C 
HETATM    9  C   UNK N   1      39.225  12.940   9.880  0.00  0.00     0.115 C 
HETATM   10  C   UNK N   1      36.033  16.248  10.734  0.00  0.00     0.135 C 
HETATM   11  C   UNK N   1      34.289  15.070   7.783  0.00  0.00     0.123 A 
HETATM   12  C   UNK N   1      36.027  14.272  12.329  0.00  0.00    -0.049 A 
HETATM   13  C   UNK N   1      36.580  13.277  11.447  0.00  0.00    -0.035 A 
HETATM   14  C   UNK N   1      34.577  16.066   8.694  0.00  0.00     0.102 A 
HETATM   15  C   UNK N   1      35.727  14.325   9.211  0.00  0.00     0.097 A 
HETATM   16  C   UNK N   1      36.724  13.403   9.902  0.00  0.00     0.049 C 
HETATM   17  N   UNK N   1      39.037  11.769   9.028  0.00  0.00    -0.421 N 
HETATM   18  N   UNK N   1      35.013  13.978   8.114  0.00  0.00    -0.352 N 
ATOM     19  HN  UNK N   1      35.020  13.078   7.635  1.00  0.00     0.166 HD
HETATM   20  N   UNK N   1      35.481  15.593   9.573  0.00  0.00    -0.331 N 
HETATM   21  H   UNK N   1      39.666  11.468   8.284  0.00  0.00     0.153 HD
ENDROOT
BRANCH  14  22
HETATM   22  C   UNK N   1      33.957  17.409   8.721  0.00  0.00     0.162 C 
HETATM   23  N   UNK N   1      34.645  18.441   8.396  0.00  0.00    -0.378 N 
HETATM   24  H   UNK N   1      34.279  19.186   7.869  0.00  0.00     0.158 HD
ATOM     25  HN  UNK N   1      35.618  18.489   8.696  1.00  0.00     0.158 HD
BRANCH  22  26
HETATM   26  O   UNK N   1      32.664  17.559   9.065  0.00  0.00    -0.345 OA
HETATM   27  H   UNK N   1      32.110  17.017   9.593  0.00  0.00     0.219 HD
ENDBRANCH  22  26
ENDBRANCH  14  22
TORSDOF 2
ENDMDL
