MODEL 1
REMARK VINA RESULT:      -7.9      0.000      0.000
REMARK  5 active torsions:
REMARK  status: ('A' for Active; 'I' for Inactive)
REMARK    1  A    between atoms: C_2  and  O_27 
REMARK    2  A    between atoms: C_7  and  O_26 
REMARK    3  A    between atoms: C_8  and  C_11 
REMARK       I    between atoms: C_11  and  N_12 
REMARK    4  A    between atoms: N_12  and  C_13 
REMARK    5  A    between atoms: C_17  and  C_20 
ROOT
HETATM    1  C   UNK N   1      31.057  17.421   5.770  0.00  0.00     0.059 A 
HETATM    2  C   UNK N   1      32.270  17.380   5.025  0.00  0.00     0.083 A 
HETATM    3  C   UNK N   1      33.493  17.239   5.701  0.00  0.00     0.038 A 
HETATM    4  C   UNK N   1      33.535  17.138   7.087  0.00  0.00     0.005 A 
HETATM    5  C   UNK N   1      32.355  17.169   7.820  0.00  0.00     0.031 A 
HETATM    6  C   UNK N   1      31.110  17.308   7.182  0.00  0.00     0.052 A 
HETATM    7  C   UNK N   1      29.797  17.576   5.148  0.00  0.00     0.102 A 
HETATM    8  C   UNK N   1      28.611  17.624   5.919  0.00  0.00     0.134 A 
HETATM    9  C   UNK N   1      28.723  17.453   7.324  0.00  0.00     0.266 A 
HETATM   10  N   UNK N   1      29.958  17.319   7.921  0.00  0.00    -0.317 N 
HETATM   11  O   UNK N   1      27.722  17.380   8.017  0.00  0.00    -0.267 OA
HETATM   12  C   UNK N   1      30.024  17.170   9.377  0.00  0.00     0.159 C 
ENDROOT
BRANCH   8  13
HETATM   13  C   UNK N   1      27.278  17.819   5.209  0.00  0.00     0.266 C 
HETATM   14  N   UNK N   1      26.557  19.005   5.251  0.00  0.00    -0.318 N 
HETATM   15  C   UNK N   1      27.124  20.178   5.884  0.00  0.00     0.159 C 
HETATM   16  O   UNK N   1      26.865  16.888   4.534  0.00  0.00    -0.267 OA
BRANCH  14  17
HETATM   17  C   UNK N   1      25.305  19.197   4.553  0.00  0.00     0.037 A 
HETATM   18  C   UNK N   1      24.199  18.390   4.885  0.00  0.00     0.030 A 
HETATM   19  C   UNK N   1      22.955  18.587   4.291  0.00  0.00     0.018 A 
HETATM   20  C   UNK N   1      22.775  19.608   3.356  0.00  0.00     0.048 A 
HETATM   21  C   UNK N   1      23.866  20.410   2.995  0.00  0.00     0.018 A 
HETATM   22  C   UNK N   1      25.120  20.201   3.583  0.00  0.00     0.030 A 
BRANCH  20  23
HETATM   23  C   UNK N   1      21.406  19.849   2.788  0.00  0.00     0.417 C 
HETATM   24  F   UNK N   1      21.454  20.734   1.725  0.00  0.00    -0.166 F 
HETATM   25  F   UNK N   1      20.862  18.654   2.355  0.00  0.00    -0.166 F 
HETATM   26  F   UNK N   1      20.594  20.383   3.773  0.00  0.00    -0.166 F 
ENDBRANCH  20  23
ENDBRANCH  14  17
ENDBRANCH   8  13
BRANCH   7  27
HETATM   27  O   UNK N   1      29.720  17.707   3.809  0.00  0.00    -0.358 OA
HETATM   28  H   UNK N   1      29.915  16.976   3.254  0.00  0.00     0.217 HD
ENDBRANCH   7  27
BRANCH   2  29
HETATM   29  O   UNK N   1      32.250  17.472   3.671  0.00  0.00    -0.355 OA
HETATM   30  C   UNK N   1      32.912  16.595   2.839  0.00  0.00     0.210 C 
ENDBRANCH   2  29
TORSDOF 5
ENDMDL
MODEL 2
REMARK VINA RESULT:      -7.6     10.606     14.247
REMARK  5 active torsions:
REMARK  status: ('A' for Active; 'I' for Inactive)
REMARK    1  A    between atoms: C_2  and  O_27 
REMARK    2  A    between atoms: C_7  and  O_26 
REMARK    3  A    between atoms: C_8  and  C_11 
REMARK       I    between atoms: C_11  and  N_12 
REMARK    4  A    between atoms: N_12  and  C_13 
REMARK    5  A    between atoms: C_17  and  C_20 
ROOT
HETATM    1  C   UNK N   1      34.922  14.647   9.437  0.00  0.00     0.059 A 
HETATM    2  C   UNK N   1      33.842  15.252   8.732  0.00  0.00     0.083 A 
HETATM    3  C   UNK N   1      33.960  15.482   7.351  0.00  0.00     0.038 A 
HETATM    4  C   UNK N   1      35.115  15.127   6.665  0.00  0.00     0.005 A 
HETATM    5  C   UNK N   1      36.169  14.530   7.344  0.00  0.00     0.031 A 
HETATM    6  C   UNK N   1      36.092  14.281   8.726  0.00  0.00     0.052 A 
HETATM    7  C   UNK N   1      34.869  14.403  10.829  0.00  0.00     0.102 A 
HETATM    8  C   UNK N   1      35.965  13.810  11.500  0.00  0.00     0.134 A 
HETATM    9  C   UNK N   1      37.087  13.417  10.726  0.00  0.00     0.266 A 
HETATM   10  N   UNK N   1      37.134  13.675   9.372  0.00  0.00    -0.317 N 
HETATM   11  O   UNK N   1      38.008  12.806  11.242  0.00  0.00    -0.267 OA
HETATM   12  C   UNK N   1      38.325  13.273   8.620  0.00  0.00     0.159 C 
ENDROOT
BRANCH   8  13
HETATM   13  C   UNK N   1      35.875  13.591  13.005  0.00  0.00     0.266 C 
HETATM   14  N   UNK N   1      35.371  12.431  13.579  0.00  0.00    -0.318 N 
HETATM   15  C   UNK N   1      35.019  11.301  12.744  0.00  0.00     0.159 C 
HETATM   16  O   UNK N   1      36.321  14.473  13.723  0.00  0.00    -0.267 OA
BRANCH  14  17
HETATM   17  C   UNK N   1      35.312  12.214  15.008  0.00  0.00     0.037 A 
HETATM   18  C   UNK N   1      35.854  11.032  15.549  0.00  0.00     0.030 A 
HETATM   19  C   UNK N   1      35.885  10.813  16.924  0.00  0.00     0.018 A 
HETATM   20  C   UNK N   1      35.386  11.777  17.801  0.00  0.00     0.048 A 
HETATM   21  C   UNK N   1      34.823  12.953  17.284  0.00  0.00     0.018 A 
HETATM   22  C   UNK N   1      34.781  13.164  15.900  0.00  0.00     0.030 A 
BRANCH  20  23
HETATM   23  C   UNK N   1      35.500  11.552  19.282  0.00  0.00     0.417 C 
HETATM   24  F   UNK N   1      36.688  10.916  19.602  0.00  0.00    -0.166 F 
HETATM   25  F   UNK N   1      35.444  12.763  19.946  0.00  0.00    -0.166 F 
HETATM   26  F   UNK N   1      34.447  10.759  19.701  0.00  0.00    -0.166 F 
ENDBRANCH  20  23
ENDBRANCH  14  17
ENDBRANCH   8  13
BRANCH   7  27
HETATM   27  O   UNK N   1      33.777  14.761  11.532  0.00  0.00    -0.358 OA
HETATM   28  H   UNK N   1      33.238  15.469  11.234  0.00  0.00     0.217 HD
ENDBRANCH   7  27
BRANCH   2  29
HETATM   29  O   UNK N   1      32.704  15.601   9.384  0.00  0.00    -0.355 OA
HETATM   30  C   UNK N   1      31.596  16.123   8.753  0.00  0.00     0.210 C 
ENDBRANCH   2  29
TORSDOF 5
ENDMDL
MODEL 3
REMARK VINA RESULT:      -7.5     11.186     14.550
REMARK  5 active torsions:
REMARK  status: ('A' for Active; 'I' for Inactive)
REMARK    1  A    between atoms: C_2  and  O_27 
REMARK    2  A    between atoms: C_7  and  O_26 
REMARK    3  A    between atoms: C_8  and  C_11 
REMARK       I    between atoms: C_11  and  N_12 
REMARK    4  A    between atoms: N_12  and  C_13 
REMARK    5  A    between atoms: C_17  and  C_20 
ROOT
HETATM    1  C   UNK N   1      37.196  13.620   9.569  0.00  0.00     0.059 A 
HETATM    2  C   UNK N   1      38.352  13.277   8.812  0.00  0.00     0.083 A 
HETATM    3  C   UNK N   1      38.347  13.462   7.418  0.00  0.00     0.038 A 
HETATM    4  C   UNK N   1      37.229  13.975   6.772  0.00  0.00     0.005 A 
HETATM    5  C   UNK N   1      36.101  14.320   7.505  0.00  0.00     0.031 A 
HETATM    6  C   UNK N   1      36.065  14.151   8.901  0.00  0.00     0.052 A 
HETATM    7  C   UNK N   1      37.135  13.443  10.971  0.00  0.00     0.102 A 
HETATM    8  C   UNK N   1      35.967  13.784  11.692  0.00  0.00     0.134 A 
HETATM    9  C   UNK N   1      34.886  14.361  10.975  0.00  0.00     0.266 A 
HETATM   10  N   UNK N   1      34.950  14.514   9.607  0.00  0.00    -0.317 N 
HETATM   11  O   UNK N   1      33.901  14.769  11.569  0.00  0.00    -0.267 OA
HETATM   12  C   UNK N   1      33.800  15.090   8.908  0.00  0.00     0.159 C 
ENDROOT
BRANCH   8  13
HETATM   13  C   UNK N   1      35.936  13.552  13.197  0.00  0.00     0.266 C 
HETATM   14  N   UNK N   1      35.269  12.489  13.792  0.00  0.00    -0.318 N 
HETATM   15  C   UNK N   1      34.666  11.459  12.972  0.00  0.00     0.159 C 
HETATM   16  O   UNK N   1      36.579  14.324  13.892  0.00  0.00    -0.267 OA
BRANCH  14  17
HETATM   17  C   UNK N   1      35.264  12.255  15.220  0.00  0.00     0.037 A 
HETATM   18  C   UNK N   1      35.763  11.037  15.721  0.00  0.00     0.030 A 
HETATM   19  C   UNK N   1      35.844  10.797  17.090  0.00  0.00     0.018 A 
HETATM   20  C   UNK N   1      35.442  11.774  18.001  0.00  0.00     0.048 A 
HETATM   21  C   UNK N   1      34.922  12.987  17.525  0.00  0.00     0.018 A 
HETATM   22  C   UNK N   1      34.828  13.220  16.147  0.00  0.00     0.030 A 
BRANCH  20  23
HETATM   23  C   UNK N   1      35.611  11.521  19.472  0.00  0.00     0.417 C 
HETATM   24  F   UNK N   1      35.759  12.707  20.171  0.00  0.00    -0.166 F 
HETATM   25  F   UNK N   1      34.508  10.845  19.960  0.00  0.00    -0.166 F 
HETATM   26  F   UNK N   1      36.740  10.746  19.671  0.00  0.00    -0.166 F 
ENDBRANCH  20  23
ENDBRANCH  14  17
ENDBRANCH   8  13
BRANCH   7  27
HETATM   27  O   UNK N   1      38.189  12.920  11.628  0.00  0.00    -0.358 OA
HETATM   28  H   UNK N   1      39.012  12.816  11.189  0.00  0.00     0.217 HD
ENDBRANCH   7  27
BRANCH   2  29
HETATM   29  O   UNK N   1      39.456  12.779   9.426  0.00  0.00    -0.355 OA
HETATM   30  C   UNK N   1      40.301  11.861   8.843  0.00  0.00     0.210 C 
ENDBRANCH   2  29
TORSDOF 5
ENDMDL
MODEL 4
REMARK VINA RESULT:      -7.2      1.395      3.217
REMARK  5 active torsions:
REMARK  status: ('A' for Active; 'I' for Inactive)
REMARK    1  A    between atoms: C_2  and  O_27 
REMARK    2  A    between atoms: C_7  and  O_26 
REMARK    3  A    between atoms: C_8  and  C_11 
REMARK       I    between atoms: C_11  and  N_12 
REMARK    4  A    between atoms: N_12  and  C_13 
REMARK    5  A    between atoms: C_17  and  C_20 
ROOT
HETATM    1  C   UNK N   1      29.847  17.459   6.897  0.00  0.00     0.059 A 
HETATM    2  C   UNK N   1      30.329  17.653   8.223  0.00  0.00     0.083 A 
HETATM    3  C   UNK N   1      31.659  17.320   8.532  0.00  0.00     0.038 A 
HETATM    4  C   UNK N   1      32.509  16.806   7.560  0.00  0.00     0.005 A 
HETATM    5  C   UNK N   1      32.048  16.622   6.263  0.00  0.00     0.031 A 
HETATM    6  C   UNK N   1      30.725  16.943   5.912  0.00  0.00     0.052 A 
HETATM    7  C   UNK N   1      28.515  17.762   6.530  0.00  0.00     0.102 A 
HETATM    8  C   UNK N   1      28.065  17.548   5.205  0.00  0.00     0.134 A 
HETATM    9  C   UNK N   1      29.004  17.078   4.250  0.00  0.00     0.266 A 
HETATM   10  N   UNK N   1      30.295  16.772   4.624  0.00  0.00    -0.317 N 
HETATM   11  O   UNK N   1      28.692  16.981   3.075  0.00  0.00    -0.267 OA
HETATM   12  C   UNK N   1      31.222  16.267   3.608  0.00  0.00     0.159 C 
ENDROOT
BRANCH   8  13
HETATM   13  C   UNK N   1      26.615  17.861   4.860  0.00  0.00     0.266 C 
HETATM   14  N   UNK N   1      26.202  19.076   4.329  0.00  0.00    -0.318 N 
HETATM   15  C   UNK N   1      27.181  20.075   3.954  0.00  0.00     0.159 C 
HETATM   16  O   UNK N   1      25.799  16.966   5.019  0.00  0.00    -0.267 OA
BRANCH  14  17
HETATM   17  C   UNK N   1      24.828  19.362   3.977  0.00  0.00     0.037 A 
HETATM   18  C   UNK N   1      24.549  20.423   3.093  0.00  0.00     0.030 A 
HETATM   19  C   UNK N   1      23.249  20.688   2.669  0.00  0.00     0.018 A 
HETATM   20  C   UNK N   1      22.190  19.892   3.107  0.00  0.00     0.048 A 
HETATM   21  C   UNK N   1      22.442  18.843   4.003  0.00  0.00     0.018 A 
HETATM   22  C   UNK N   1      23.748  18.586   4.439  0.00  0.00     0.030 A 
BRANCH  20  23
HETATM   23  C   UNK N   1      20.809  20.151   2.576  0.00  0.00     0.417 C 
HETATM   24  F   UNK N   1      19.899  20.316   3.605  0.00  0.00    -0.166 F 
HETATM   25  F   UNK N   1      20.815  21.290   1.792  0.00  0.00    -0.166 F 
HETATM   26  F   UNK N   1      20.412  19.074   1.802  0.00  0.00    -0.166 F 
ENDBRANCH  20  23
ENDBRANCH  14  17
ENDBRANCH   8  13
BRANCH   7  27
HETATM   27  O   UNK N   1      27.654  18.234   7.453  0.00  0.00    -0.358 OA
HETATM   28  H   UNK N   1      27.715  19.125   7.739  0.00  0.00     0.217 HD
ENDBRANCH   7  27
BRANCH   2  29
HETATM   29  O   UNK N   1      29.516  18.159   9.186  0.00  0.00    -0.355 OA
HETATM   30  C   UNK N   1      29.105  17.443  10.288  0.00  0.00     0.210 C 
ENDBRANCH   2  29
TORSDOF 5
ENDMDL
MODEL 5
REMARK VINA RESULT:      -7.2      2.923      3.515
REMARK  5 active torsions:
REMARK  status: ('A' for Active; 'I' for Inactive)
REMARK    1  A    between atoms: C_2  and  O_27 
REMARK    2  A    between atoms: C_7  and  O_26 
REMARK    3  A    between atoms: C_8  and  C_11 
REMARK       I    between atoms: C_11  and  N_12 
REMARK    4  A    between atoms: N_12  and  C_13 
REMARK    5  A    between atoms: C_17  and  C_20 
ROOT
HETATM    1  C   UNK N   1      31.674  16.890   6.429  0.00  0.00     0.059 A 
HETATM    2  C   UNK N   1      33.025  16.758   5.998  0.00  0.00     0.083 A 
HETATM    3  C   UNK N   1      34.057  17.321   6.769  0.00  0.00     0.038 A 
HETATM    4  C   UNK N   1      33.775  18.004   7.945  0.00  0.00     0.005 A 
HETATM    5  C   UNK N   1      32.461  18.130   8.377  0.00  0.00     0.031 A 
HETATM    6  C   UNK N   1      31.399  17.580   7.635  0.00  0.00     0.052 A 
HETATM    7  C   UNK N   1      30.593  16.357   5.689  0.00  0.00     0.102 A 
HETATM    8  C   UNK N   1      29.262  16.516   6.141  0.00  0.00     0.134 A 
HETATM    9  C   UNK N   1      29.053  17.171   7.382  0.00  0.00     0.266 A 
HETATM   10  N   UNK N   1      30.113  17.699   8.087  0.00  0.00    -0.317 N 
HETATM   11  O   UNK N   1      27.934  17.236   7.863  0.00  0.00    -0.267 OA
HETATM   12  C   UNK N   1      29.845  18.389   9.351  0.00  0.00     0.159 C 
ENDROOT
BRANCH   8  13
HETATM   13  C   UNK N   1      28.126  15.950   5.298  0.00  0.00     0.266 C 
HETATM   14  N   UNK N   1      27.396  16.708   4.392  0.00  0.00    -0.318 N 
HETATM   15  C   UNK N   1      27.782  18.076   4.113  0.00  0.00     0.159 C 
HETATM   16  O   UNK N   1      27.896  14.755   5.405  0.00  0.00    -0.267 OA
BRANCH  14  17
HETATM   17  C   UNK N   1      26.336  16.162   3.573  0.00  0.00     0.037 A 
HETATM   18  C   UNK N   1      26.643  15.652   2.297  0.00  0.00     0.030 A 
HETATM   19  C   UNK N   1      25.669  15.051   1.503  0.00  0.00     0.018 A 
HETATM   20  C   UNK N   1      24.358  14.931   1.969  0.00  0.00     0.048 A 
HETATM   21  C   UNK N   1      24.025  15.450   3.228  0.00  0.00     0.018 A 
HETATM   22  C   UNK N   1      25.004  16.066   4.018  0.00  0.00     0.030 A 
BRANCH  20  23
HETATM   23  C   UNK N   1      23.344  14.212   1.127  0.00  0.00     0.417 C 
HETATM   24  F   UNK N   1      22.210  14.983   0.940  0.00  0.00    -0.166 F 
HETATM   25  F   UNK N   1      23.890  13.907  -0.106  0.00  0.00    -0.166 F 
HETATM   26  F   UNK N   1      22.980  13.037   1.762  0.00  0.00    -0.166 F 
ENDBRANCH  20  23
ENDBRANCH  14  17
ENDBRANCH   8  13
BRANCH   7  27
HETATM   27  O   UNK N   1      30.826  15.715   4.527  0.00  0.00    -0.358 OA
HETATM   28  H   UNK N   1      30.164  15.166   4.153  0.00  0.00     0.217 HD
ENDBRANCH   7  27
BRANCH   2  29
HETATM   29  O   UNK N   1      33.322  16.090   4.853  0.00  0.00    -0.355 OA
HETATM   30  C   UNK N   1      34.308  15.132   4.765  0.00  0.00     0.210 C 
ENDBRANCH   2  29
TORSDOF 5
ENDMDL
MODEL 6
REMARK VINA RESULT:      -7.2      5.371      7.950
REMARK  5 active torsions:
REMARK  status: ('A' for Active; 'I' for Inactive)
REMARK    1  A    between atoms: C_2  and  O_27 
REMARK    2  A    between atoms: C_7  and  O_26 
REMARK    3  A    between atoms: C_8  and  C_11 
REMARK       I    between atoms: C_11  and  N_12 
REMARK    4  A    between atoms: N_12  and  C_13 
REMARK    5  A    between atoms: C_17  and  C_20 
ROOT
HETATM    1  C   UNK N   1      35.700  13.945  10.627  0.00  0.00     0.059 A 
HETATM    2  C   UNK N   1      35.845  13.425  11.945  0.00  0.00     0.083 A 
HETATM    3  C   UNK N   1      36.939  12.597  12.247  0.00  0.00     0.038 A 
HETATM    4  C   UNK N   1      37.882  12.279  11.276  0.00  0.00     0.005 A 
HETATM    5  C   UNK N   1      37.752  12.789   9.991  0.00  0.00     0.031 A 
HETATM    6  C   UNK N   1      36.672  13.622   9.647  0.00  0.00     0.052 A 
HETATM    7  C   UNK N   1      34.613  14.771  10.259  0.00  0.00     0.102 A 
HETATM    8  C   UNK N   1      34.494  15.262   8.937  0.00  0.00     0.134 A 
HETATM    9  C   UNK N   1      35.526  14.948   8.014  0.00  0.00     0.266 A 
HETATM   10  N   UNK N   1      36.572  14.129   8.380  0.00  0.00    -0.317 N 
HETATM   11  O   UNK N   1      35.522  15.436   6.896  0.00  0.00    -0.267 OA
HETATM   12  C   UNK N   1      37.600  13.813   7.385  0.00  0.00     0.159 C 
ENDROOT
BRANCH   8  13
HETATM   13  C   UNK N   1      33.293  16.126   8.578  0.00  0.00     0.266 C 
HETATM   14  N   UNK N   1      32.238  15.680   7.793  0.00  0.00    -0.318 N 
HETATM   15  C   UNK N   1      32.177  14.294   7.379  0.00  0.00     0.159 C 
HETATM   16  O   UNK N   1      33.253  17.250   9.057  0.00  0.00    -0.267 OA
BRANCH  14  17
HETATM   17  C   UNK N   1      31.085  16.494   7.476  0.00  0.00     0.037 A 
HETATM   18  C   UNK N   1      30.405  17.161   8.513  0.00  0.00     0.030 A 
HETATM   19  C   UNK N   1      29.335  18.012   8.247  0.00  0.00     0.018 A 
HETATM   20  C   UNK N   1      28.921  18.232   6.932  0.00  0.00     0.048 A 
HETATM   21  C   UNK N   1      29.570  17.563   5.885  0.00  0.00     0.018 A 
HETATM   22  C   UNK N   1      30.637  16.696   6.156  0.00  0.00     0.030 A 
BRANCH  20  23
HETATM   23  C   UNK N   1      27.815  19.213   6.666  0.00  0.00     0.417 C 
HETATM   24  F   UNK N   1      26.720  18.590   6.094  0.00  0.00    -0.166 F 
HETATM   25  F   UNK N   1      27.426  19.812   7.850  0.00  0.00    -0.166 F 
HETATM   26  F   UNK N   1      28.274  20.188   5.797  0.00  0.00    -0.166 F 
ENDBRANCH  20  23
ENDBRANCH  14  17
ENDBRANCH   8  13
BRANCH   7  27
HETATM   27  O   UNK N   1      33.664  15.076  11.166  0.00  0.00    -0.358 OA
HETATM   28  H   UNK N   1      33.680  15.906  11.601  0.00  0.00     0.217 HD
ENDBRANCH   7  27
BRANCH   2  29
HETATM   29  O   UNK N   1      34.937  13.728  12.908  0.00  0.00    -0.355 OA
HETATM   30  C   UNK N   1      34.988  13.220  14.188  0.00  0.00     0.210 C 
ENDBRANCH   2  29
TORSDOF 5
ENDMDL
MODEL 7
REMARK VINA RESULT:      -7.1     11.158     14.129
REMARK  5 active torsions:
REMARK  status: ('A' for Active; 'I' for Inactive)
REMARK    1  A    between atoms: C_2  and  O_27 
REMARK    2  A    between atoms: C_7  and  O_26 
REMARK    3  A    between atoms: C_8  and  C_11 
REMARK       I    between atoms: C_11  and  N_12 
REMARK    4  A    between atoms: N_12  and  C_13 
REMARK    5  A    between atoms: C_17  and  C_20 
ROOT
HETATM    1  C   UNK N   1      27.132  25.854  -5.208  0.00  0.00     0.059 A 
HETATM    2  C   UNK N   1      25.859  25.720  -5.832  0.00  0.00     0.083 A 
HETATM    3  C   UNK N   1      24.914  26.752  -5.704  0.00  0.00     0.038 A 
HETATM    4  C   UNK N   1      25.205  27.900  -4.977  0.00  0.00     0.005 A 
HETATM    5  C   UNK N   1      26.448  28.041  -4.373  0.00  0.00     0.031 A 
HETATM    6  C   UNK N   1      27.423  27.033  -4.478  0.00  0.00     0.052 A 
HETATM    7  C   UNK N   1      28.119  24.844  -5.289  0.00  0.00     0.102 A 
HETATM    8  C   UNK N   1      29.371  25.004  -4.648  0.00  0.00     0.134 A 
HETATM    9  C   UNK N   1      29.623  26.229  -3.976  0.00  0.00     0.266 A 
HETATM   10  N   UNK N   1      28.647  27.199  -3.890  0.00  0.00    -0.317 N 
HETATM   11  O   UNK N   1      30.723  26.455  -3.501  0.00  0.00    -0.267 OA
HETATM   12  C   UNK N   1      28.946  28.435  -3.164  0.00  0.00     0.159 C 
ENDROOT
BRANCH   8  13
HETATM   13  C   UNK N   1      30.394  23.880  -4.739  0.00  0.00     0.266 C 
HETATM   14  N   UNK N   1      30.534  22.895  -3.770  0.00  0.00    -0.318 N 
HETATM   15  C   UNK N   1      29.600  22.824  -2.666  0.00  0.00     0.159 C 
HETATM   16  O   UNK N   1      31.081  23.833  -5.748  0.00  0.00    -0.267 OA
BRANCH  14  17
HETATM   17  C   UNK N   1      31.488  21.812  -3.872  0.00  0.00     0.037 A 
HETATM   18  C   UNK N   1      31.299  20.815  -4.848  0.00  0.00     0.030 A 
HETATM   19  C   UNK N   1      32.229  19.794  -5.030  0.00  0.00     0.018 A 
HETATM   20  C   UNK N   1      33.384  19.748  -4.249  0.00  0.00     0.048 A 
HETATM   21  C   UNK N   1      33.583  20.718  -3.256  0.00  0.00     0.018 A 
HETATM   22  C   UNK N   1      32.640  21.736  -3.066  0.00  0.00     0.030 A 
BRANCH  20  23
HETATM   23  C   UNK N   1      34.408  18.682  -4.516  0.00  0.00     0.417 C 
HETATM   24  F   UNK N   1      35.694  19.174  -4.369  0.00  0.00    -0.166 F 
HETATM   25  F   UNK N   1      34.226  17.628  -3.640  0.00  0.00    -0.166 F 
HETATM   26  F   UNK N   1      34.255  18.223  -5.813  0.00  0.00    -0.166 F 
ENDBRANCH  20  23
ENDBRANCH  14  17
ENDBRANCH   8  13
BRANCH   7  27
HETATM   27  O   UNK N   1      27.860  23.704  -5.960  0.00  0.00    -0.358 OA
HETATM   28  H   UNK N   1      27.046  23.258  -5.829  0.00  0.00     0.217 HD
ENDBRANCH   7  27
BRANCH   2  29
HETATM   29  O   UNK N   1      25.556  24.609  -6.550  0.00  0.00    -0.355 OA
HETATM   30  C   UNK N   1      25.563  24.567  -7.927  0.00  0.00     0.210 C 
ENDBRANCH   2  29
TORSDOF 5
ENDMDL
MODEL 8
REMARK VINA RESULT:      -7.0      9.606     13.267
REMARK  5 active torsions:
REMARK  status: ('A' for Active; 'I' for Inactive)
REMARK    1  A    between atoms: C_2  and  O_27 
REMARK    2  A    between atoms: C_7  and  O_26 
REMARK    3  A    between atoms: C_8  and  C_11 
REMARK       I    between atoms: C_11  and  N_12 
REMARK    4  A    between atoms: N_12  and  C_13 
REMARK    5  A    between atoms: C_17  and  C_20 
ROOT
HETATM    1  C   UNK N   1      33.810  15.457   8.407  0.00  0.00     0.059 A 
HETATM    2  C   UNK N   1      32.738  16.353   8.132  0.00  0.00     0.083 A 
HETATM    3  C   UNK N   1      32.707  17.040   6.907  0.00  0.00     0.038 A 
HETATM    4  C   UNK N   1      33.708  16.856   5.961  0.00  0.00     0.005 A 
HETATM    5  C   UNK N   1      34.753  15.978   6.219  0.00  0.00     0.031 A 
HETATM    6  C   UNK N   1      34.821  15.270   7.432  0.00  0.00     0.052 A 
HETATM    7  C   UNK N   1      33.904  14.748   9.627  0.00  0.00     0.102 A 
HETATM    8  C   UNK N   1      34.989  13.874   9.873  0.00  0.00     0.134 A 
HETATM    9  C   UNK N   1      35.942  13.688   8.838  0.00  0.00     0.266 A 
HETATM   10  N   UNK N   1      35.849  14.396   7.659  0.00  0.00    -0.317 N 
HETATM   11  O   UNK N   1      36.834  12.864   8.963  0.00  0.00    -0.267 OA
HETATM   12  C   UNK N   1      36.871  14.188   6.630  0.00  0.00     0.159 C 
ENDROOT
BRANCH   8  13
HETATM   13  C   UNK N   1      35.065  13.152  11.212  0.00  0.00     0.266 C 
HETATM   14  N   UNK N   1      35.738  13.658  12.316  0.00  0.00    -0.318 N 
HETATM   15  C   UNK N   1      36.303  14.991  12.274  0.00  0.00     0.159 C 
HETATM   16  O   UNK N   1      34.452  12.099  11.311  0.00  0.00    -0.267 OA
BRANCH  14  17
HETATM   17  C   UNK N   1      35.785  12.983  13.595  0.00  0.00     0.037 A 
HETATM   18  C   UNK N   1      34.963  13.437  14.645  0.00  0.00     0.030 A 
HETATM   19  C   UNK N   1      34.921  12.774  15.869  0.00  0.00     0.018 A 
HETATM   20  C   UNK N   1      35.692  11.629  16.076  0.00  0.00     0.048 A 
HETATM   21  C   UNK N   1      36.534  11.172  15.052  0.00  0.00     0.018 A 
HETATM   22  C   UNK N   1      36.584  11.848  13.826  0.00  0.00     0.030 A 
BRANCH  20  23
HETATM   23  C   UNK N   1      35.572  10.889  17.377  0.00  0.00     0.417 C 
HETATM   24  F   UNK N   1      34.694   9.825  17.270  0.00  0.00    -0.166 F 
HETATM   25  F   UNK N   1      36.813  10.413  17.761  0.00  0.00    -0.166 F 
HETATM   26  F   UNK N   1      35.102  11.756  18.349  0.00  0.00    -0.166 F 
ENDBRANCH  20  23
ENDBRANCH  14  17
ENDBRANCH   8  13
BRANCH   7  27
HETATM   27  O   UNK N   1      32.967  14.925  10.580  0.00  0.00    -0.358 OA
HETATM   28  H   UNK N   1      32.552  15.759  10.681  0.00  0.00     0.217 HD
ENDBRANCH   7  27
BRANCH   2  29
HETATM   29  O   UNK N   1      31.747  16.542   9.041  0.00  0.00    -0.355 OA
HETATM   30  C   UNK N   1      30.674  17.380   8.833  0.00  0.00     0.210 C 
ENDBRANCH   2  29
TORSDOF 5
ENDMDL
MODEL 9
REMARK VINA RESULT:      -7.0      9.272     12.433
REMARK  5 active torsions:
REMARK  status: ('A' for Active; 'I' for Inactive)
REMARK    1  A    between atoms: C_2  and  O_27 
REMARK    2  A    between atoms: C_7  and  O_26 
REMARK    3  A    between atoms: C_8  and  C_11 
REMARK       I    between atoms: C_11  and  N_12 
REMARK    4  A    between atoms: N_12  and  C_13 
REMARK    5  A    between atoms: C_17  and  C_20 
ROOT
HETATM    1  C   UNK N   1      36.104  11.603  15.003  0.00  0.00     0.059 A 
HETATM    2  C   UNK N   1      35.622  11.669  16.341  0.00  0.00     0.083 A 
HETATM    3  C   UNK N   1      35.988  10.668  17.258  0.00  0.00     0.038 A 
HETATM    4  C   UNK N   1      36.811   9.617  16.876  0.00  0.00     0.005 A 
HETATM    5  C   UNK N   1      37.291   9.550  15.574  0.00  0.00     0.031 A 
HETATM    6  C   UNK N   1      36.951  10.531  14.626  0.00  0.00     0.052 A 
HETATM    7  C   UNK N   1      35.759  12.571  14.031  0.00  0.00     0.102 A 
HETATM    8  C   UNK N   1      36.246  12.470  12.706  0.00  0.00     0.134 A 
HETATM    9  C   UNK N   1      37.133  11.404  12.402  0.00  0.00     0.266 A 
HETATM   10  N   UNK N   1      37.449  10.457  13.353  0.00  0.00    -0.317 N 
HETATM   11  O   UNK N   1      37.662  11.337  11.305  0.00  0.00    -0.267 OA
HETATM   12  C   UNK N   1      38.348   9.362  12.985  0.00  0.00     0.159 C 
ENDROOT
BRANCH   8  13
HETATM   13  C   UNK N   1      35.828  13.520  11.686  0.00  0.00     0.266 C 
HETATM   14  N   UNK N   1      34.989  13.251  10.613  0.00  0.00    -0.318 N 
HETATM   15  C   UNK N   1      34.359  11.953  10.491  0.00  0.00     0.159 C 
HETATM   16  O   UNK N   1      36.223  14.662  11.869  0.00  0.00    -0.267 OA
BRANCH  14  17
HETATM   17  C   UNK N   1      34.572  14.256   9.660  0.00  0.00     0.037 A 
HETATM   18  C   UNK N   1      33.383  14.976   9.893  0.00  0.00     0.030 A 
HETATM   19  C   UNK N   1      32.980  16.002   9.042  0.00  0.00     0.018 A 
HETATM   20  C   UNK N   1      33.761  16.349   7.938  0.00  0.00     0.048 A 
HETATM   21  C   UNK N   1      34.937  15.632   7.676  0.00  0.00     0.018 A 
HETATM   22  C   UNK N   1      35.334  14.592   8.525  0.00  0.00     0.030 A 
BRANCH  20  23
HETATM   23  C   UNK N   1      33.345  17.508   7.080  0.00  0.00     0.417 C 
HETATM   24  F   UNK N   1      32.032  17.376   6.661  0.00  0.00    -0.166 F 
HETATM   25  F   UNK N   1      33.474  18.687   7.791  0.00  0.00    -0.166 F 
HETATM   26  F   UNK N   1      34.162  17.563   5.965  0.00  0.00    -0.166 F 
ENDBRANCH  20  23
ENDBRANCH  14  17
ENDBRANCH   8  13
BRANCH   7  27
HETATM   27  O   UNK N   1      34.938  13.588  14.359  0.00  0.00    -0.358 OA
HETATM   28  H   UNK N   1      35.095  14.447  14.017  0.00  0.00     0.217 HD
ENDBRANCH   7  27
BRANCH   2  29
HETATM   29  O   UNK N   1      34.820  12.690  16.736  0.00  0.00    -0.355 OA
HETATM   30  C   UNK N   1      35.043  13.438  17.872  0.00  0.00     0.210 C 
ENDBRANCH   2  29
TORSDOF 5
ENDMDL
