MODEL 1
REMARK VINA RESULT:      -7.3      0.000      0.000
REMARK  6 active torsions:
REMARK  status: ('A' for Active; 'I' for Inactive)
REMARK    1  A    between atoms: S_1  and  N_8 
REMARK    2  A    between atoms: O_4  and  C_15 
REMARK    3  A    between atoms: O_4  and  C_19 
REMARK    4  A    between atoms: N_8  and  C_13 
REMARK       I    between atoms: N_9  and  C_20 
REMARK    5  A    between atoms: C_12  and  C_20 
REMARK    6  A    between atoms: C_14  and  C_18 
ROOT
HETATM    1  O   UNK N   1      22.032  15.299   7.459  0.00  0.00    -0.308 OA
HETATM    2  C   UNK N   1      21.530  14.395   5.523  0.00  0.00     0.019 A 
HETATM    3  C   UNK N   1      21.830  15.548   6.185  0.00  0.00     0.089 A 
HETATM    4  C   UNK N   1      21.546  13.373   6.445  0.00  0.00     0.079 A 
HETATM    5  C   UNK N   1      21.678  16.795   4.128  0.00  0.00     0.078 A 
HETATM    6  C   UNK N   1      21.890  13.998   7.668  0.00  0.00     0.103 A 
HETATM    7  C   UNK N   1      21.371  15.592   3.438  0.00  0.00     0.097 A 
HETATM    8  C   UNK N   1      21.285  14.382   4.154  0.00  0.00     0.054 A 
HETATM    9  C   UNK N   1      21.915  16.771   5.525  0.00  0.00     0.071 A 
ENDROOT
BRANCH   6  10
HETATM   10  C   UNK N   1      22.148  13.383   8.996  0.00  0.00    -0.001 A 
HETATM   11  C   UNK N   1      21.098  13.021   9.849  0.00  0.00     0.017 A 
HETATM   12  C   UNK N   1      21.342  12.399  11.071  0.00  0.00     0.043 A 
HETATM   13  C   UNK N   1      22.651  12.125  11.462  0.00  0.00     0.116 A 
HETATM   14  F   UNK N   1      22.886  11.526  12.653  0.00  0.00    -0.206 F 
HETATM   15  C   UNK N   1      23.715  12.468  10.619  0.00  0.00     0.043 A 
HETATM   16  C   UNK N   1      23.463  13.084   9.385  0.00  0.00     0.017 A 
ENDBRANCH   6  10
BRANCH   4  17
HETATM   17  C   UNK N   1      21.243  11.946   6.125  0.00  0.00     0.255 C 
HETATM   18  O   UNK N   1      20.095  11.565   5.988  0.00  0.00    -0.268 OA
HETATM   19  N   UNK N   1      22.264  11.071   5.946  0.00  0.00    -0.361 N 
HETATM   20  C   UNK N   1      22.032   9.687   5.621  0.00  0.00     0.149 C 
HETATM   21  H   UNK N   1      23.190  11.392   6.040  0.00  0.00     0.162 HD
ENDBRANCH   4  17
BRANCH   5  22
HETATM   22  N   UNK N   1      21.773  18.009   3.390  0.00  0.00    -0.282 N 
HETATM   23  H   UNK N   1      22.650  18.252   3.014  0.00  0.00     0.178 HD
BRANCH  22  24
HETATM   24  S   UNK N   1      20.418  19.101   3.108  0.00  0.00     0.227 S 
HETATM   25  O   UNK N   1      20.570  19.725   1.714  0.00  0.00    -0.206 OA
HETATM   26  O   UNK N   1      20.555  20.265   4.102  0.00  0.00    -0.206 OA
HETATM   27  C   UNK N   1      21.995  19.991   2.928  0.00  0.00     0.186 C 
ENDBRANCH  22  24
ENDBRANCH   5  22
BRANCH   7  28
HETATM   28  O   UNK N   1      21.206  15.632   2.085  0.00  0.00    -0.344 OA
BRANCH  28  29
HETATM   29  C   UNK N   1      20.026  15.476   1.363  0.00  0.00     0.120 C 
HETATM   30  C   UNK N   1      19.903  14.086   0.776  0.00  0.00     0.040 C 
HETATM   31  C   UNK N   1      19.721  16.565   0.340  0.00  0.00     0.040 C 
ENDBRANCH  28  29
ENDBRANCH   7  28
TORSDOF 6
ENDMDL
MODEL 2
REMARK VINA RESULT:      -6.9     14.202     16.404
REMARK  6 active torsions:
REMARK  status: ('A' for Active; 'I' for Inactive)
REMARK    1  A    between atoms: S_1  and  N_8 
REMARK    2  A    between atoms: O_4  and  C_15 
REMARK    3  A    between atoms: O_4  and  C_19 
REMARK    4  A    between atoms: N_8  and  C_13 
REMARK       I    between atoms: N_9  and  C_20 
REMARK    5  A    between atoms: C_12  and  C_20 
REMARK    6  A    between atoms: C_14  and  C_18 
ROOT
HETATM    1  O   UNK N   1      35.207  13.785  14.179  0.00  0.00    -0.308 OA
HETATM    2  C   UNK N   1      36.624  12.965  12.716  0.00  0.00     0.019 A 
HETATM    3  C   UNK N   1      35.673  13.912  12.957  0.00  0.00     0.089 A 
HETATM    4  C   UNK N   1      36.750  12.207  13.859  0.00  0.00     0.079 A 
HETATM    5  C   UNK N   1      35.982  14.817  10.745  0.00  0.00     0.078 A 
HETATM    6  C   UNK N   1      35.836  12.781  14.774  0.00  0.00     0.103 A 
HETATM    7  C   UNK N   1      36.978  13.834  10.497  0.00  0.00     0.097 A 
HETATM    8  C   UNK N   1      37.288  12.891  11.497  0.00  0.00     0.054 A 
HETATM    9  C   UNK N   1      35.323  14.858  11.999  0.00  0.00     0.071 A 
ENDROOT
BRANCH   6  10
HETATM   10  C   UNK N   1      35.599  12.442  16.201  0.00  0.00    -0.001 A 
HETATM   11  C   UNK N   1      35.700  11.125  16.665  0.00  0.00     0.017 A 
HETATM   12  C   UNK N   1      35.528  10.818  18.013  0.00  0.00     0.043 A 
HETATM   13  C   UNK N   1      35.251  11.833  18.925  0.00  0.00     0.116 A 
HETATM   14  F   UNK N   1      35.077  11.532  20.234  0.00  0.00    -0.206 F 
HETATM   15  C   UNK N   1      35.158  13.158  18.486  0.00  0.00     0.043 A 
HETATM   16  C   UNK N   1      35.343  13.464  17.130  0.00  0.00     0.017 A 
ENDBRANCH   6  10
BRANCH   4  17
HETATM   17  C   UNK N   1      37.676  11.044  13.998  0.00  0.00     0.255 C 
HETATM   18  O   UNK N   1      38.748  11.161  14.564  0.00  0.00    -0.268 OA
HETATM   19  N   UNK N   1      37.301   9.830  13.522  0.00  0.00    -0.361 N 
HETATM   20  C   UNK N   1      38.148   8.671  13.642  0.00  0.00     0.149 C 
HETATM   21  H   UNK N   1      36.425   9.740  13.084  0.00  0.00     0.162 HD
ENDBRANCH   4  17
BRANCH   5  22
HETATM   22  N   UNK N   1      35.688  15.772   9.731  0.00  0.00    -0.282 N 
HETATM   23  H   UNK N   1      36.187  16.621   9.737  0.00  0.00     0.178 HD
BRANCH  22  24
HETATM   24  S   UNK N   1      34.487  15.526   8.463  0.00  0.00     0.227 S 
HETATM   25  O   UNK N   1      34.827  16.439   7.278  0.00  0.00    -0.206 OA
HETATM   26  O   UNK N   1      33.141  16.031   9.006  0.00  0.00    -0.206 OA
HETATM   27  C   UNK N   1      34.543  17.278   8.948  0.00  0.00     0.186 C 
ENDBRANCH  22  24
ENDBRANCH   5  22
BRANCH   7  28
HETATM   28  O   UNK N   1      37.641  13.852   9.306  0.00  0.00    -0.344 OA
BRANCH  28  29
HETATM   29  C   UNK N   1      37.458  13.009   8.212  0.00  0.00     0.120 C 
HETATM   30  C   UNK N   1      37.566  13.756   6.901  0.00  0.00     0.040 C 
HETATM   31  C   UNK N   1      36.231  12.106   8.265  0.00  0.00     0.040 C 
ENDBRANCH  28  29
ENDBRANCH   7  28
TORSDOF 6
ENDMDL
MODEL 3
REMARK VINA RESULT:      -6.9      8.711     10.902
REMARK  6 active torsions:
REMARK  status: ('A' for Active; 'I' for Inactive)
REMARK    1  A    between atoms: S_1  and  N_8 
REMARK    2  A    between atoms: O_4  and  C_15 
REMARK    3  A    between atoms: O_4  and  C_19 
REMARK    4  A    between atoms: N_8  and  C_13 
REMARK       I    between atoms: N_9  and  C_20 
REMARK    5  A    between atoms: C_12  and  C_20 
REMARK    6  A    between atoms: C_14  and  C_18 
ROOT
HETATM    1  O   UNK N   1      28.731  18.402   5.651  0.00  0.00    -0.308 OA
HETATM    2  C   UNK N   1      29.314  16.306   5.362  0.00  0.00     0.019 A 
HETATM    3  C   UNK N   1      29.592  17.475   6.005  0.00  0.00     0.089 A 
HETATM    4  C   UNK N   1      28.216  16.526   4.561  0.00  0.00     0.079 A 
HETATM    5  C   UNK N   1      31.432  16.429   7.158  0.00  0.00     0.078 A 
HETATM    6  C   UNK N   1      27.867  17.878   4.794  0.00  0.00     0.103 A 
HETATM    7  C   UNK N   1      31.138  15.209   6.492  0.00  0.00     0.097 A 
HETATM    8  C   UNK N   1      30.071  15.158   5.573  0.00  0.00     0.054 A 
HETATM    9  C   UNK N   1      30.642  17.580   6.913  0.00  0.00     0.071 A 
ENDROOT
BRANCH   6  10
HETATM   10  C   UNK N   1      26.707  18.650   4.277  0.00  0.00    -0.001 A 
HETATM   11  C   UNK N   1      25.392  18.289   4.592  0.00  0.00     0.017 A 
HETATM   12  C   UNK N   1      24.309  19.045   4.148  0.00  0.00     0.043 A 
HETATM   13  C   UNK N   1      24.527  20.184   3.377  0.00  0.00     0.116 A 
HETATM   14  F   UNK N   1      23.474  20.913   2.941  0.00  0.00    -0.206 F 
HETATM   15  C   UNK N   1      25.835  20.569   3.060  0.00  0.00     0.043 A 
HETATM   16  C   UNK N   1      26.922  19.812   3.519  0.00  0.00     0.017 A 
ENDBRANCH   6  10
BRANCH   4  17
HETATM   17  C   UNK N   1      27.605  15.496   3.669  0.00  0.00     0.255 C 
HETATM   18  O   UNK N   1      28.034  15.306   2.546  0.00  0.00    -0.268 OA
HETATM   19  N   UNK N   1      26.583  14.733   4.132  0.00  0.00    -0.361 N 
HETATM   20  C   UNK N   1      25.966  13.715   3.322  0.00  0.00     0.149 C 
HETATM   21  H   UNK N   1      26.256  14.879   5.049  0.00  0.00     0.162 HD
ENDBRANCH   4  17
BRANCH   5  22
HETATM   22  N   UNK N   1      32.506  16.463   8.092  0.00  0.00    -0.282 N 
HETATM   23  H   UNK N   1      32.627  15.686   8.685  0.00  0.00     0.178 HD
BRANCH  22  24
HETATM   24  S   UNK N   1      33.632  17.811   8.253  0.00  0.00     0.227 S 
HETATM   25  O   UNK N   1      34.517  17.866   7.001  0.00  0.00    -0.206 OA
HETATM   26  O   UNK N   1      34.578  17.480   9.418  0.00  0.00    -0.206 OA
HETATM   27  C   UNK N   1      34.540  16.257   7.993  0.00  0.00     0.186 C 
ENDBRANCH  22  24
ENDBRANCH   5  22
BRANCH   7  28
HETATM   28  O   UNK N   1      31.875  14.101   6.789  0.00  0.00    -0.344 OA
BRANCH  28  29
HETATM   29  C   UNK N   1      32.828  13.469   5.994  0.00  0.00     0.120 C 
HETATM   30  C   UNK N   1      33.810  12.668   6.821  0.00  0.00     0.040 C 
HETATM   31  C   UNK N   1      33.523  14.349   4.961  0.00  0.00     0.040 C 
ENDBRANCH  28  29
ENDBRANCH   7  28
TORSDOF 6
ENDMDL
MODEL 4
REMARK VINA RESULT:      -6.8      2.572      4.088
REMARK  6 active torsions:
REMARK  status: ('A' for Active; 'I' for Inactive)
REMARK    1  A    between atoms: S_1  and  N_8 
REMARK    2  A    between atoms: O_4  and  C_15 
REMARK    3  A    between atoms: O_4  and  C_19 
REMARK    4  A    between atoms: N_8  and  C_13 
REMARK       I    between atoms: N_9  and  C_20 
REMARK    5  A    between atoms: C_12  and  C_20 
REMARK    6  A    between atoms: C_14  and  C_18 
ROOT
HETATM    1  O   UNK N   1      22.407  13.092   6.956  0.00  0.00    -0.308 OA
HETATM    2  C   UNK N   1      21.017  14.631   6.238  0.00  0.00     0.019 A 
HETATM    3  C   UNK N   1      21.925  13.679   5.884  0.00  0.00     0.089 A 
HETATM    4  C   UNK N   1      20.936  14.634   7.613  0.00  0.00     0.079 A 
HETATM    5  C   UNK N   1      21.555  14.160   3.552  0.00  0.00     0.078 A 
HETATM    6  C   UNK N   1      21.831  13.618   8.028  0.00  0.00     0.103 A 
HETATM    7  C   UNK N   1      20.604  15.149   3.922  0.00  0.00     0.097 A 
HETATM    8  C   UNK N   1      20.347  15.391   5.286  0.00  0.00     0.054 A 
HETATM    9  C   UNK N   1      22.223  13.410   4.551  0.00  0.00     0.071 A 
ENDROOT
BRANCH   6  10
HETATM   10  C   UNK N   1      22.095  13.102   9.396  0.00  0.00    -0.001 A 
HETATM   11  C   UNK N   1      21.051  12.701  10.238  0.00  0.00     0.017 A 
HETATM   12  C   UNK N   1      21.305  12.169  11.501  0.00  0.00     0.043 A 
HETATM   13  C   UNK N   1      22.619  12.027  11.942  0.00  0.00     0.116 A 
HETATM   14  F   UNK N   1      22.863  11.516  13.172  0.00  0.00    -0.206 F 
HETATM   15  C   UNK N   1      23.678  12.410  11.111  0.00  0.00     0.043 A 
HETATM   16  C   UNK N   1      23.417  12.934   9.837  0.00  0.00     0.017 A 
ENDBRANCH   6  10
BRANCH   4  17
HETATM   17  C   UNK N   1      20.066  15.555   8.403  0.00  0.00     0.255 C 
HETATM   18  O   UNK N   1      19.191  15.121   9.129  0.00  0.00    -0.268 OA
HETATM   19  N   UNK N   1      20.279  16.893   8.340  0.00  0.00    -0.361 N 
HETATM   20  C   UNK N   1      19.480  17.828   9.090  0.00  0.00     0.149 C 
HETATM   21  H   UNK N   1      21.001  17.235   7.765  0.00  0.00     0.162 HD
ENDBRANCH   4  17
BRANCH   5  22
HETATM   22  N   UNK N   1      21.796  13.918   2.170  0.00  0.00    -0.282 N 
HETATM   23  H   UNK N   1      21.042  14.022   1.545  0.00  0.00     0.178 HD
BRANCH  22  24
HETATM   24  S   UNK N   1      23.361  13.447   1.510  0.00  0.00     0.227 S 
HETATM   25  O   UNK N   1      23.505  14.048   0.106  0.00  0.00    -0.206 OA
HETATM   26  O   UNK N   1      23.332  11.923   1.309  0.00  0.00    -0.206 OA
HETATM   27  C   UNK N   1      22.021  12.914   0.400  0.00  0.00     0.186 C 
ENDBRANCH  22  24
ENDBRANCH   5  22
BRANCH   7  28
HETATM   28  O   UNK N   1      19.930  15.817   2.942  0.00  0.00    -0.344 OA
BRANCH  28  29
HETATM   29  C   UNK N   1      20.301  16.996   2.301  0.00  0.00     0.120 C 
HETATM   30  C   UNK N   1      19.672  18.211   2.947  0.00  0.00     0.040 C 
HETATM   31  C   UNK N   1      20.152  17.005   0.783  0.00  0.00     0.040 C 
ENDBRANCH  28  29
ENDBRANCH   7  28
TORSDOF 6
ENDMDL
MODEL 5
REMARK VINA RESULT:      -6.7     15.265     17.258
REMARK  6 active torsions:
REMARK  status: ('A' for Active; 'I' for Inactive)
REMARK    1  A    between atoms: S_1  and  N_8 
REMARK    2  A    between atoms: O_4  and  C_15 
REMARK    3  A    between atoms: O_4  and  C_19 
REMARK    4  A    between atoms: N_8  and  C_13 
REMARK       I    between atoms: N_9  and  C_20 
REMARK    5  A    between atoms: C_12  and  C_20 
REMARK    6  A    between atoms: C_14  and  C_18 
ROOT
HETATM    1  O   UNK N   1      35.339  12.559  15.354  0.00  0.00    -0.308 OA
HETATM    2  C   UNK N   1      36.735  11.707  13.890  0.00  0.00     0.019 A 
HETATM    3  C   UNK N   1      35.944  12.771  14.207  0.00  0.00     0.089 A 
HETATM    4  C   UNK N   1      36.608  10.782  14.902  0.00  0.00     0.079 A 
HETATM    5  C   UNK N   1      36.633  13.911  12.199  0.00  0.00     0.078 A 
HETATM    6  C   UNK N   1      35.718  11.379  15.827  0.00  0.00     0.103 A 
HETATM    7  C   UNK N   1      37.462  12.805  11.872  0.00  0.00     0.097 A 
HETATM    8  C   UNK N   1      37.498  11.686  12.728  0.00  0.00     0.054 A 
HETATM    9  C   UNK N   1      35.864  13.894  13.390  0.00  0.00     0.071 A 
ENDROOT
BRANCH   6  10
HETATM   10  C   UNK N   1      35.280  10.889  17.159  0.00  0.00    -0.001 A 
HETATM   11  C   UNK N   1      34.649   9.649  17.308  0.00  0.00     0.017 A 
HETATM   12  C   UNK N   1      34.285   9.169  18.565  0.00  0.00     0.043 A 
HETATM   13  C   UNK N   1      34.552   9.930  19.701  0.00  0.00     0.116 A 
HETATM   14  F   UNK N   1      34.192   9.466  20.921  0.00  0.00    -0.206 F 
HETATM   15  C   UNK N   1      35.192  11.168  19.576  0.00  0.00     0.043 A 
HETATM   16  C   UNK N   1      35.567  11.640  18.310  0.00  0.00     0.017 A 
ENDBRANCH   6  10
BRANCH   4  17
HETATM   17  C   UNK N   1      37.299   9.458  14.922  0.00  0.00     0.255 C 
HETATM   18  O   UNK N   1      38.447   9.356  15.314  0.00  0.00    -0.268 OA
HETATM   19  N   UNK N   1      36.624   8.347  14.536  0.00  0.00    -0.361 N 
HETATM   20  C   UNK N   1      37.234   7.042  14.549  0.00  0.00     0.149 C 
HETATM   21  H   UNK N   1      35.689   8.435  14.239  0.00  0.00     0.162 HD
ENDBRANCH   4  17
BRANCH   5  22
HETATM   22  N   UNK N   1      36.615  15.040  11.332  0.00  0.00    -0.282 N 
HETATM   23  H   UNK N   1      37.406  15.202  10.769  0.00  0.00     0.178 HD
BRANCH  22  24
HETATM   24  S   UNK N   1      35.264  16.166  11.205  0.00  0.00     0.227 S 
HETATM   25  O   UNK N   1      34.081  15.443  10.548  0.00  0.00    -0.206 OA
HETATM   26  O   UNK N   1      35.679  17.268  10.218  0.00  0.00    -0.206 OA
HETATM   27  C   UNK N   1      35.695  15.508   9.565  0.00  0.00     0.186 C 
ENDBRANCH  22  24
ENDBRANCH   5  22
BRANCH   7  28
HETATM   28  O   UNK N   1      38.237  12.870  10.752  0.00  0.00    -0.344 OA
BRANCH  28  29
HETATM   29  C   UNK N   1      38.281  11.971   9.690  0.00  0.00     0.120 C 
HETATM   30  C   UNK N   1      39.643  11.944   9.030  0.00  0.00     0.040 C 
HETATM   31  C   UNK N   1      37.148  12.081   8.676  0.00  0.00     0.040 C 
ENDBRANCH  28  29
ENDBRANCH   7  28
TORSDOF 6
ENDMDL
MODEL 6
REMARK VINA RESULT:      -6.6      8.990      9.910
REMARK  6 active torsions:
REMARK  status: ('A' for Active; 'I' for Inactive)
REMARK    1  A    between atoms: S_1  and  N_8 
REMARK    2  A    between atoms: O_4  and  C_15 
REMARK    3  A    between atoms: O_4  and  C_19 
REMARK    4  A    between atoms: N_8  and  C_13 
REMARK       I    between atoms: N_9  and  C_20 
REMARK    5  A    between atoms: C_12  and  C_20 
REMARK    6  A    between atoms: C_14  and  C_18 
ROOT
HETATM    1  O   UNK N   1      31.144  17.134   8.744  0.00  0.00    -0.308 OA
HETATM    2  C   UNK N   1      30.508  16.515   6.736  0.00  0.00     0.019 A 
HETATM    3  C   UNK N   1      30.250  17.327   7.800  0.00  0.00     0.089 A 
HETATM    4  C   UNK N   1      31.628  15.774   7.043  0.00  0.00     0.079 A 
HETATM    5  C   UNK N   1      28.359  18.276   6.648  0.00  0.00     0.078 A 
HETATM    6  C   UNK N   1      32.010  16.219   8.332  0.00  0.00     0.103 A 
HETATM    7  C   UNK N   1      28.632  17.434   5.536  0.00  0.00     0.097 A 
HETATM    8  C   UNK N   1      29.715  16.534   5.594  0.00  0.00     0.054 A 
HETATM    9  C   UNK N   1      29.186  18.223   7.797  0.00  0.00     0.071 A 
ENDROOT
BRANCH   6  10
HETATM   10  C   UNK N   1      33.201  15.845   9.138  0.00  0.00    -0.001 A 
HETATM   11  C   UNK N   1      33.419  14.524   9.548  0.00  0.00     0.017 A 
HETATM   12  C   UNK N   1      34.563  14.168  10.261  0.00  0.00     0.043 A 
HETATM   13  C   UNK N   1      35.514  15.136  10.574  0.00  0.00     0.116 A 
HETATM   14  F   UNK N   1      36.621  14.790  11.272  0.00  0.00    -0.206 F 
HETATM   15  C   UNK N   1      35.322  16.460  10.164  0.00  0.00     0.043 A 
HETATM   16  C   UNK N   1      34.175  16.811   9.437  0.00  0.00     0.017 A 
ENDBRANCH   6  10
BRANCH   4  17
HETATM   17  C   UNK N   1      32.227  14.743   6.144  0.00  0.00     0.255 C 
HETATM   18  O   UNK N   1      31.938  13.567   6.260  0.00  0.00    -0.268 OA
HETATM   19  N   UNK N   1      33.075  15.129   5.158  0.00  0.00    -0.361 N 
HETATM   20  C   UNK N   1      33.671  14.180   4.253  0.00  0.00     0.149 C 
HETATM   21  H   UNK N   1      33.288  16.085   5.059  0.00  0.00     0.162 HD
ENDBRANCH   4  17
BRANCH   5  22
HETATM   22  N   UNK N   1      27.268  19.187   6.570  0.00  0.00    -0.282 N 
HETATM   23  H   UNK N   1      26.374  18.861   6.823  0.00  0.00     0.178 HD
BRANCH  22  24
HETATM   24  S   UNK N   1      27.421  20.866   6.052  0.00  0.00     0.227 S 
HETATM   25  O   UNK N   1      26.311  21.690   6.718  0.00  0.00    -0.206 OA
HETATM   26  O   UNK N   1      27.123  20.908   4.545  0.00  0.00    -0.206 OA
HETATM   27  C   UNK N   1      25.765  20.229   5.650  0.00  0.00     0.186 C 
ENDBRANCH  22  24
ENDBRANCH   5  22
BRANCH   7  28
HETATM   28  O   UNK N   1      27.858  17.544   4.419  0.00  0.00    -0.344 OA
BRANCH  28  29
HETATM   29  C   UNK N   1      26.921  16.636   3.934  0.00  0.00     0.120 C 
HETATM   30  C   UNK N   1      27.481  15.795   2.808  0.00  0.00     0.040 C 
HETATM   31  C   UNK N   1      25.547  17.208   3.602  0.00  0.00     0.040 C 
ENDBRANCH  28  29
ENDBRANCH   7  28
TORSDOF 6
ENDMDL
MODEL 7
REMARK VINA RESULT:      -6.4      8.404      9.150
REMARK  6 active torsions:
REMARK  status: ('A' for Active; 'I' for Inactive)
REMARK    1  A    between atoms: S_1  and  N_8 
REMARK    2  A    between atoms: O_4  and  C_15 
REMARK    3  A    between atoms: O_4  and  C_19 
REMARK    4  A    between atoms: N_8  and  C_13 
REMARK       I    between atoms: N_9  and  C_20 
REMARK    5  A    between atoms: C_12  and  C_20 
REMARK    6  A    between atoms: C_14  and  C_18 
ROOT
HETATM    1  O   UNK N   1      30.183  17.774   6.617  0.00  0.00    -0.308 OA
HETATM    2  C   UNK N   1      29.679  16.302   5.068  0.00  0.00     0.019 A 
HETATM    3  C   UNK N   1      29.337  17.484   5.655  0.00  0.00     0.089 A 
HETATM    4  C   UNK N   1      30.805  15.834   5.709  0.00  0.00     0.079 A 
HETATM    5  C   UNK N   1      27.480  17.725   4.137  0.00  0.00     0.078 A 
HETATM    6  C   UNK N   1      31.101  16.820   6.681  0.00  0.00     0.103 A 
HETATM    7  C   UNK N   1      27.842  16.496   3.522  0.00  0.00     0.097 A 
HETATM    8  C   UNK N   1      28.950  15.775   4.008  0.00  0.00     0.054 A 
HETATM    9  C   UNK N   1      28.245  18.228   5.219  0.00  0.00     0.071 A 
ENDROOT
BRANCH   6  10
HETATM   10  C   UNK N   1      32.258  16.904   7.610  0.00  0.00    -0.001 A 
HETATM   11  C   UNK N   1      32.480  15.927   8.588  0.00  0.00     0.017 A 
HETATM   12  C   UNK N   1      33.594  15.982   9.424  0.00  0.00     0.043 A 
HETATM   13  C   UNK N   1      34.510  17.023   9.292  0.00  0.00     0.116 A 
HETATM   14  F   UNK N   1      35.588  17.078  10.109  0.00  0.00    -0.206 F 
HETATM   15  C   UNK N   1      34.313  18.003   8.313  0.00  0.00     0.043 A 
HETATM   16  C   UNK N   1      33.197  17.937   7.466  0.00  0.00     0.017 A 
ENDBRANCH   6  10
BRANCH   4  17
HETATM   17  C   UNK N   1      31.487  14.547   5.379  0.00  0.00     0.255 C 
HETATM   18  O   UNK N   1      31.222  13.525   5.985  0.00  0.00    -0.268 OA
HETATM   19  N   UNK N   1      32.385  14.509   4.364  0.00  0.00    -0.361 N 
HETATM   20  C   UNK N   1      33.062  13.293   3.992  0.00  0.00     0.149 C 
HETATM   21  H   UNK N   1      32.579  15.336   3.866  0.00  0.00     0.162 HD
ENDBRANCH   4  17
BRANCH   5  22
HETATM   22  N   UNK N   1      26.366  18.449   3.627  0.00  0.00    -0.282 N 
HETATM   23  H   UNK N   1      25.575  17.938   3.339  0.00  0.00     0.178 HD
BRANCH  22  24
HETATM   24  S   UNK N   1      26.314  20.206   3.482  0.00  0.00     0.227 S 
HETATM   25  O   UNK N   1      25.683  20.788   4.754  0.00  0.00    -0.206 OA
HETATM   26  O   UNK N   1      25.340  20.542   2.342  0.00  0.00    -0.206 OA
HETATM   27  C   UNK N   1      24.644  19.547   3.775  0.00  0.00     0.186 C 
ENDBRANCH  22  24
ENDBRANCH   5  22
BRANCH   7  28
HETATM   28  O   UNK N   1      27.128  16.062   2.444  0.00  0.00    -0.344 OA
BRANCH  28  29
HETATM   29  C   UNK N   1      26.240  14.992   2.382  0.00  0.00     0.120 C 
HETATM   30  C   UNK N   1      25.336  14.938   3.594  0.00  0.00     0.040 C 
HETATM   31  C   UNK N   1      26.853  13.635   2.056  0.00  0.00     0.040 C 
ENDBRANCH  28  29
ENDBRANCH   7  28
TORSDOF 6
ENDMDL
MODEL 8
REMARK VINA RESULT:      -6.4      8.969     11.204
REMARK  6 active torsions:
REMARK  status: ('A' for Active; 'I' for Inactive)
REMARK    1  A    between atoms: S_1  and  N_8 
REMARK    2  A    between atoms: O_4  and  C_15 
REMARK    3  A    between atoms: O_4  and  C_19 
REMARK    4  A    between atoms: N_8  and  C_13 
REMARK       I    between atoms: N_9  and  C_20 
REMARK    5  A    between atoms: C_12  and  C_20 
REMARK    6  A    between atoms: C_14  and  C_18 
ROOT
HETATM    1  O   UNK N   1      28.211  17.188   3.216  0.00  0.00    -0.308 OA
HETATM    2  C   UNK N   1      29.639  17.335   4.876  0.00  0.00     0.019 A 
HETATM    3  C   UNK N   1      29.429  16.886   3.607  0.00  0.00     0.089 A 
HETATM    4  C   UNK N   1      28.480  17.951   5.294  0.00  0.00     0.079 A 
HETATM    5  C   UNK N   1      31.681  16.035   3.510  0.00  0.00     0.078 A 
HETATM    6  C   UNK N   1      27.600  17.848   4.190  0.00  0.00     0.103 A 
HETATM    7  C   UNK N   1      31.902  16.509   4.831  0.00  0.00     0.097 A 
HETATM    8  C   UNK N   1      30.858  17.156   5.522  0.00  0.00     0.054 A 
HETATM    9  C   UNK N   1      30.423  16.231   2.887  0.00  0.00     0.071 A 
ENDROOT
BRANCH   6  10
HETATM   10  C   UNK N   1      26.236  18.413   4.021  0.00  0.00    -0.001 A 
HETATM   11  C   UNK N   1      26.036  19.675   3.449  0.00  0.00     0.017 A 
HETATM   12  C   UNK N   1      24.753  20.181   3.245  0.00  0.00     0.043 A 
HETATM   13  C   UNK N   1      23.643  19.424   3.611  0.00  0.00     0.116 A 
HETATM   14  F   UNK N   1      22.398  19.919   3.419  0.00  0.00    -0.206 F 
HETATM   15  C   UNK N   1      23.821  18.154   4.173  0.00  0.00     0.043 A 
HETATM   16  C   UNK N   1      25.113  17.645   4.366  0.00  0.00     0.017 A 
ENDBRANCH   6  10
BRANCH   4  17
HETATM   17  C   UNK N   1      28.291  18.559   6.645  0.00  0.00     0.255 C 
HETATM   18  O   UNK N   1      28.005  19.736   6.767  0.00  0.00    -0.268 OA
HETATM   19  N   UNK N   1      28.400  17.779   7.749  0.00  0.00    -0.361 N 
HETATM   20  C   UNK N   1      28.213  18.309   9.076  0.00  0.00     0.149 C 
HETATM   21  H   UNK N   1      28.612  16.825   7.640  0.00  0.00     0.162 HD
ENDBRANCH   4  17
BRANCH   5  22
HETATM   22  N   UNK N   1      32.748  15.394   2.820  0.00  0.00    -0.282 N 
HETATM   23  H   UNK N   1      33.477  15.957   2.471  0.00  0.00     0.178 HD
BRANCH  22  24
HETATM   24  S   UNK N   1      32.847  13.653   2.554  0.00  0.00     0.227 S 
HETATM   25  O   UNK N   1      33.808  13.050   3.586  0.00  0.00    -0.206 OA
HETATM   26  O   UNK N   1      33.514  13.438   1.186  0.00  0.00    -0.206 OA
HETATM   27  C   UNK N   1      34.502  14.401   2.460  0.00  0.00     0.186 C 
ENDBRANCH  22  24
ENDBRANCH   5  22
BRANCH   7  28
HETATM   28  O   UNK N   1      33.138  16.361   5.387  0.00  0.00    -0.344 OA
BRANCH  28  29
HETATM   29  C   UNK N   1      33.525  15.474   6.388  0.00  0.00     0.120 C 
HETATM   30  C   UNK N   1      34.973  15.059   6.245  0.00  0.00     0.040 C 
HETATM   31  C   UNK N   1      32.601  14.282   6.616  0.00  0.00     0.040 C 
ENDBRANCH  28  29
ENDBRANCH   7  28
TORSDOF 6
ENDMDL
MODEL 9
REMARK VINA RESULT:      -6.4      9.752     12.157
REMARK  6 active torsions:
REMARK  status: ('A' for Active; 'I' for Inactive)
REMARK    1  A    between atoms: S_1  and  N_8 
REMARK    2  A    between atoms: O_4  and  C_15 
REMARK    3  A    between atoms: O_4  and  C_19 
REMARK    4  A    between atoms: N_8  and  C_13 
REMARK       I    between atoms: N_9  and  C_20 
REMARK    5  A    between atoms: C_12  and  C_20 
REMARK    6  A    between atoms: C_14  and  C_18 
ROOT
HETATM    1  O   UNK N   1      29.769  17.429   3.979  0.00  0.00    -0.308 OA
HETATM    2  C   UNK N   1      30.529  17.188   6.024  0.00  0.00     0.019 A 
HETATM    3  C   UNK N   1      30.780  16.995   4.698  0.00  0.00     0.089 A 
HETATM    4  C   UNK N   1      29.287  17.773   6.129  0.00  0.00     0.079 A 
HETATM    5  C   UNK N   1      32.939  16.061   5.218  0.00  0.00     0.078 A 
HETATM    6  C   UNK N   1      28.847  17.925   4.793  0.00  0.00     0.103 A 
HETATM    7  C   UNK N   1      32.680  16.268   6.600  0.00  0.00     0.097 A 
HETATM    8  C   UNK N   1      31.451  16.827   7.001  0.00  0.00     0.054 A 
HETATM    9  C   UNK N   1      31.973  16.436   4.252  0.00  0.00     0.071 A 
ENDROOT
BRANCH   6  10
HETATM   10  C   UNK N   1      27.617  18.581   4.278  0.00  0.00    -0.001 A 
HETATM   11  C   UNK N   1      27.576  19.958   4.027  0.00  0.00     0.017 A 
HETATM   12  C   UNK N   1      26.439  20.563   3.496  0.00  0.00     0.043 A 
HETATM   13  C   UNK N   1      25.316  19.792   3.205  0.00  0.00     0.116 A 
HETATM   14  F   UNK N   1      24.209  20.382   2.696  0.00  0.00    -0.206 F 
HETATM   15  C   UNK N   1      25.339  18.412   3.438  0.00  0.00     0.043 A 
HETATM   16  C   UNK N   1      26.490  17.807   3.961  0.00  0.00     0.017 A 
ENDBRANCH   6  10
BRANCH   4  17
HETATM   17  C   UNK N   1      28.631  18.127   7.423  0.00  0.00     0.255 C 
HETATM   18  O   UNK N   1      28.222  19.255   7.631  0.00  0.00    -0.268 OA
HETATM   19  N   UNK N   1      28.452  17.167   8.365  0.00  0.00    -0.361 N 
HETATM   20  C   UNK N   1      27.812  17.447   9.625  0.00  0.00     0.149 C 
HETATM   21  H   UNK N   1      28.768  16.253   8.181  0.00  0.00     0.162 HD
ENDBRANCH   4  17
BRANCH   5  22
HETATM   22  N   UNK N   1      34.190  15.507   4.827  0.00  0.00    -0.282 N 
HETATM   23  H   UNK N   1      34.954  16.120   4.718  0.00  0.00     0.178 HD
BRANCH  22  24
HETATM   24  S   UNK N   1      34.458  13.790   4.527  0.00  0.00     0.227 S 
HETATM   25  O   UNK N   1      34.765  13.098   5.862  0.00  0.00    -0.206 OA
HETATM   26  O   UNK N   1      35.740  13.666   3.689  0.00  0.00    -0.206 OA
HETATM   27  C   UNK N   1      35.904  14.519   5.354  0.00  0.00     0.186 C 
ENDBRANCH  22  24
ENDBRANCH   5  22
BRANCH   7  28
HETATM   28  O   UNK N   1      33.649  15.955   7.507  0.00  0.00    -0.344 OA
BRANCH  28  29
HETATM   29  C   UNK N   1      34.459  16.828   8.230  0.00  0.00     0.120 C 
HETATM   30  C   UNK N   1      34.434  16.523   9.712  0.00  0.00     0.040 C 
HETATM   31  C   UNK N   1      34.264  18.312   7.939  0.00  0.00     0.040 C 
ENDBRANCH  28  29
ENDBRANCH   7  28
TORSDOF 6
ENDMDL
