REMARK  4 active torsions:
REMARK  status: ('A' for Active; 'I' for Inactive)
REMARK    1  A    between atoms: C_14  and  C_11 
REMARK    2  A    between atoms: C_19  and  C_16 
REMARK    3  A    between atoms: O_24  and  C_17 
REMARK    4  A    between atoms: O_25  and  C_18 
ROOT
HETATM    1  C   UNK N   1      -1.161   7.364   0.220  0.00  0.00     0.024 C 
HETATM    2  C   UNK N   1      -2.235   6.661  -0.581  0.00  0.00     0.042 C 
HETATM    3  C   UNK N   1       0.180   6.676  -0.033  0.00  0.00     0.120 C 
HETATM    4  C   UNK N   1      -3.501   4.667   0.224  0.00  0.00     0.023 C 
HETATM    5  C   UNK N   1      -2.310   5.247  -0.096  0.00  0.00    -0.030 C 
HETATM    6  C   UNK N   1      -0.986   4.521   0.017  0.00  0.00     0.046 C 
HETATM    7  N   UNK N   1       0.111   5.222   0.025  0.00  0.00    -0.389 N 
ATOM      8  HN  UNK N   1       0.992   4.712   0.075  1.00  0.00     0.159 HD
ENDROOT
BRANCH   4   9
HETATM    9  C   UNK N   1      -4.867   5.275   0.112  0.00  0.00    -0.002 A 
HETATM   10  C   UNK N   1      -5.013   6.665  -0.037  0.00  0.00     0.017 A 
HETATM   11  C   UNK N   1      -6.274   7.261  -0.098  0.00  0.00     0.038 A 
HETATM   12  C   UNK N   1      -7.424   6.482  -0.004  0.00  0.00     0.070 A 
HETATM   13  C   UNK N   1      -7.302   5.097   0.143  0.00  0.00     0.074 A 
HETATM   14  C   UNK N   1      -6.054   4.473   0.190  0.00  0.00     0.081 A 
BRANCH  12  15
HETATM   15  O   UNK N   1      -8.637   7.080  -0.071  0.00  0.00    -0.356 OA
HETATM   16  C   UNK N   1      -9.823   6.380  -0.026  0.00  0.00     0.210 C 
ENDBRANCH  12  15
BRANCH  14  17
HETATM   17  O   UNK N   1      -6.066   3.116   0.280  0.00  0.00    -0.355 OA
HETATM   18  C   UNK N   1      -5.166   2.267  -0.321  0.00  0.00     0.210 C 
ENDBRANCH  14  17
ENDBRANCH   4   9
BRANCH   6  19
HETATM   19  C   UNK N   1      -0.842   3.023   0.044  0.00  0.00     0.006 A 
HETATM   20  C   UNK N   1       0.419   2.449   0.267  0.00  0.00     0.016 A 
HETATM   21  C   UNK N   1       0.579   1.062   0.252  0.00  0.00     0.018 A 
HETATM   22  C   UNK N   1      -0.525   0.249   0.003  0.00  0.00     0.087 A 
HETATM   23  N   UNK N   1      -1.740   0.808  -0.231  0.00  0.00    -0.374 N 
HETATM   24  C   UNK N   1      -1.911   2.156  -0.225  0.00  0.00     0.101 A 
ATOM     25  HN  UNK N   1      -2.541   0.203  -0.416  1.00  0.00     0.164 HD
ENDBRANCH   6  19
TORSDOF 4
