REMARK  7 active torsions:
REMARK  status: ('A' for Active; 'I' for Inactive)
REMARK    1  A    between atoms: C_15  and  O_3 
REMARK    2  A    between atoms: C_17  and  O_4 
REMARK    3  A    between atoms: C_16  and  N_6 
REMARK       I    between atoms: N_9  and  C_19 
REMARK    4  A    between atoms: N_12  and  C_23 
REMARK    5  A    between atoms: N_12  and  C_26 
REMARK    6  A    between atoms: C_18  and  C_19 
REMARK    7  A    between atoms: C_26  and  C_27 
ROOT
HETATM    1  N   UNK N   1       5.752   1.123  -0.203  0.00  0.00    -0.297 N 
HETATM    2  N   UNK N   1       5.232  -0.947  -0.893  0.00  0.00    -0.346 N 
ATOM      3  HN  UNK N   1       5.302  -1.885  -1.286  1.00  0.00     0.167 HD
HETATM    4  N   UNK N   1       3.560   1.680   0.690  0.00  0.00    -0.336 N 
ATOM      5  HN  UNK N   1       3.818   2.617   1.000  1.00  0.00     0.168 HD
HETATM    6  N   UNK N   1       1.928  -0.019   0.353  0.00  0.00    -0.337 N 
ATOM      7  HN  UNK N   1       0.965  -0.344   0.443  1.00  0.00     0.168 HD
HETATM    8  C   UNK N   1       4.479   0.852   0.126  0.00  0.00     0.142 A 
HETATM    9  C   UNK N   1       6.200   0.005  -0.828  0.00  0.00     0.188 A 
HETATM   10  C   UNK N   1       4.160  -0.368  -0.318  0.00  0.00     0.122 A 
HETATM   11  C   UNK N   1       2.863  -0.820  -0.243  0.00  0.00     0.133 A 
HETATM   12  C   UNK N   1       2.277   1.221   0.830  0.00  0.00     0.183 A 
ENDROOT
BRANCH   1  13
HETATM   13  C   UNK N   1       6.388   2.433  -0.296  0.00  0.00     0.263 C 
HETATM   14  O   UNK N   1       7.076   2.834   0.856  0.00  0.00    -0.346 OA
HETATM   15  C   UNK N   1       7.148   4.249   0.726  0.00  0.00     0.247 C 
HETATM   16  C   UNK N   1       6.143   4.704  -0.325  0.00  0.00     0.189 C 
HETATM   17  C   UNK N   1       5.355   3.486  -0.563  0.00  0.00     0.199 C 
BRANCH  15  18
HETATM   18  C   UNK N   1       8.505   4.814   0.322  0.00  0.00     0.249 C 
HETATM   19  O   UNK N   1       8.608   6.027   0.228  0.00  0.00    -0.271 OA
HETATM   20  N   UNK N   1       9.597   4.054   0.036  0.00  0.00    -0.363 N 
HETATM   21  C   UNK N   1       9.640   2.616   0.084  0.00  0.00     0.149 C 
HETATM   22  H   UNK N   1      10.422   4.524  -0.224  0.00  0.00     0.162 HD
ENDBRANCH  15  18
BRANCH  16  23
HETATM   23  O   UNK N   1       5.320   5.714   0.170  0.00  0.00    -0.390 OA
HETATM   24  H   UNK N   1       5.642   6.561   0.515  0.00  0.00     0.210 HD
ENDBRANCH  16  23
BRANCH  17  25
HETATM   25  O   UNK N   1       4.883   3.414  -1.873  0.00  0.00    -0.388 OA
HETATM   26  H   UNK N   1       4.676   3.673  -2.784  0.00  0.00     0.210 HD
ENDBRANCH  17  25
ENDBRANCH   1  13
BRANCH  11  27
HETATM   27  N   UNK N   1       2.518  -2.032  -0.858  0.00  0.00    -0.370 N 
HETATM   28  H   UNK N   1       3.063  -2.344  -1.615  0.00  0.00     0.161 HD
BRANCH  27  29
HETATM   29  C   UNK N   1       1.411  -2.838  -0.439  0.00  0.00     0.160 C 
BRANCH  29  30
HETATM   30  C   UNK N   1       1.954  -4.181  -0.076  0.00  0.00    -0.039 A 
HETATM   31  C   UNK N   1       1.117  -5.295  -0.100  0.00  0.00     0.027 A 
HETATM   32  C   UNK N   1       1.636  -6.561   0.188  0.00  0.00     0.007 A 
HETATM   33  I   UNK N   1       0.379  -8.239   0.139  0.00  0.00    -0.045 I 
HETATM   34  C   UNK N   1       2.991  -6.715   0.498  0.00  0.00     0.018 A 
HETATM   35  C   UNK N   1       3.833  -5.603   0.526  0.00  0.00     0.002 A 
HETATM   36  C   UNK N   1       3.317  -4.343   0.239  0.00  0.00     0.009 A 
ENDBRANCH  29  30
ENDBRANCH  27  29
ENDBRANCH  11  27
TORSDOF 7
