MODEL 1
REMARK VINA RESULT:      -7.7      0.000      0.000
REMARK  4 active torsions:
REMARK  status: ('A' for Active; 'I' for Inactive)
REMARK    1  A    between atoms: C_11  and  O_2 
REMARK    2  A    between atoms: O_5  and  C_29 
REMARK    3  A    between atoms: C_11  and  C_19 
REMARK    4  A    between atoms: C_18  and  C_23 
ROOT
HETATM    1  O   UNK N   1      38.234  13.125   8.539  0.00  0.00    -0.314 OA
HETATM    2  O   UNK N   1      35.764  14.043   5.321  0.00  0.00    -0.267 OA
HETATM    3  O   UNK N   1      38.717  13.342  10.694  0.00  0.00    -0.261 OA
HETATM    4  N   UNK N   1      34.351  15.251   6.585  0.00  0.00    -0.307 N 
HETATM    5  N   UNK N   1      32.058  17.002   8.696  0.00  0.00    -0.353 N 
ATOM      6  HN  UNK N   1      32.418  17.009   9.651  1.00  0.00     0.166 HD
HETATM    7  C   UNK N   1      34.002  15.734   7.790  0.00  0.00     0.065 A 
HETATM    8  C   UNK N   1      35.918  14.719   8.814  0.00  0.00     0.002 A 
HETATM    9  C   UNK N   1      36.743  14.462  10.056  0.00  0.00     0.173 A 
HETATM   10  C   UNK N   1      33.366  15.638   5.554  0.00  0.00     0.174 A 
HETATM   11  C   UNK N   1      32.355  16.392   6.401  0.00  0.00    -0.004 A 
HETATM   12  C   UNK N   1      32.774  16.432   7.701  0.00  0.00     0.068 A 
HETATM   13  C   UNK N   1      36.284  14.196   7.549  0.00  0.00     0.044 A 
HETATM   14  C   UNK N   1      34.760  15.500   8.922  0.00  0.00     0.043 A 
HETATM   15  C   UNK N   1      35.476  14.482   6.422  0.00  0.00     0.257 A 
HETATM   16  C   UNK N   1      31.132  16.966   6.041  0.00  0.00    -0.036 A 
HETATM   17  C   UNK N   1      37.507  13.342   7.385  0.00  0.00     0.224 A 
HETATM   18  C   UNK N   1      37.955  13.608   9.775  0.00  0.00     0.298 A 
HETATM   19  C   UNK N   1      30.356  17.564   7.072  0.00  0.00     0.000 A 
HETATM   20  C   UNK N   1      30.854  17.567   8.410  0.00  0.00     0.043 A 
HETATM   21  C   UNK N   1      29.102  18.136   6.814  0.00  0.00     0.050 A 
HETATM   22  C   UNK N   1      30.098  18.131   9.437  0.00  0.00     0.033 A 
HETATM   23  C   UNK N   1      28.351  18.689   7.857  0.00  0.00     0.066 A 
HETATM   24  C   UNK N   1      28.848  18.687   9.162  0.00  0.00     0.039 A 
ENDROOT
BRANCH   9  25
HETATM   25  O   UNK N   1      37.187  15.687  10.563  0.00  0.00    -0.375 OA
HETATM   26  H   UNK N   1      37.827  16.416  10.525  0.00  0.00     0.211 HD
ENDBRANCH   9  25
BRANCH   9  27
HETATM   27  C   UNK N   1      35.912  13.733  11.130  0.00  0.00     0.049 C 
HETATM   28  C   UNK N   1      35.794  14.492  12.447  0.00  0.00     0.009 C 
ENDBRANCH   9  27
BRANCH  16  29
HETATM   29  C   UNK N   1      30.678  16.924   4.611  0.00  0.00     0.036 C 
HETATM   30  C   UNK N   1      29.940  15.632   4.308  0.00  0.00     0.010 C 
ENDBRANCH  16  29
BRANCH  23  31
HETATM   31  O   UNK N   1      27.142  19.216   7.605  0.00  0.00    -0.361 OA
HETATM   32  H   UNK N   1      26.795  19.884   8.165  0.00  0.00     0.217 HD
ENDBRANCH  23  31
TORSDOF 4
ENDMDL
MODEL 2
REMARK VINA RESULT:      -7.7     12.881     17.532
REMARK  4 active torsions:
REMARK  status: ('A' for Active; 'I' for Inactive)
REMARK    1  A    between atoms: C_11  and  O_2 
REMARK    2  A    between atoms: O_5  and  C_29 
REMARK    3  A    between atoms: C_11  and  C_19 
REMARK    4  A    between atoms: C_18  and  C_23 
ROOT
HETATM    1  O   UNK N   1      25.145  27.055  -5.786  0.00  0.00    -0.314 OA
HETATM    2  O   UNK N   1      26.504  23.819  -8.017  0.00  0.00    -0.267 OA
HETATM    3  O   UNK N   1      25.243  28.266  -3.929  0.00  0.00    -0.261 OA
HETATM    4  N   UNK N   1      28.039  23.239  -6.480  0.00  0.00    -0.307 N 
HETATM    5  N   UNK N   1      30.572  22.495  -4.069  0.00  0.00    -0.353 N 
ATOM      6  HN  UNK N   1      30.489  23.140  -3.283  1.00  0.00     0.166 HD
HETATM    7  C   UNK N   1      28.637  23.472  -5.298  0.00  0.00     0.065 A 
HETATM    8  C   UNK N   1      27.220  25.362  -4.889  0.00  0.00     0.002 A 
HETATM    9  C   UNK N   1      26.806  26.502  -3.984  0.00  0.00     0.173 A 
HETATM   10  C   UNK N   1      28.648  22.079  -7.163  0.00  0.00     0.174 A 
HETATM   11  C   UNK N   1      29.744  21.716  -6.175  0.00  0.00    -0.004 A 
HETATM   12  C   UNK N   1      29.693  22.551  -5.095  0.00  0.00     0.068 A 
HETATM   13  C   UNK N   1      26.596  25.131  -6.139  0.00  0.00     0.044 A 
HETATM   14  C   UNK N   1      28.253  24.511  -4.473  0.00  0.00     0.043 A 
HETATM   15  C   UNK N   1      27.022  24.040  -6.935  0.00  0.00     0.257 A 
HETATM   16  C   UNK N   1      30.737  20.735  -6.257  0.00  0.00    -0.036 A 
HETATM   17  C   UNK N   1      25.495  26.023  -6.635  0.00  0.00     0.224 A 
HETATM   18  C   UNK N   1      25.685  27.324  -4.571  0.00  0.00     0.298 A 
HETATM   19  C   UNK N   1      31.680  20.663  -5.195  0.00  0.00     0.000 A 
HETATM   20  C   UNK N   1      31.569  21.570  -4.098  0.00  0.00     0.043 A 
HETATM   21  C   UNK N   1      32.732  19.735  -5.204  0.00  0.00     0.050 A 
HETATM   22  C   UNK N   1      32.497  21.526  -3.057  0.00  0.00     0.033 A 
HETATM   23  C   UNK N   1      33.660  19.710  -4.158  0.00  0.00     0.066 A 
HETATM   24  C   UNK N   1      33.541  20.601  -3.089  0.00  0.00     0.039 A 
ENDROOT
BRANCH   9  25
HETATM   25  O   UNK N   1      26.361  25.972  -2.769  0.00  0.00    -0.375 OA
HETATM   26  H   UNK N   1      25.678  25.939  -2.080  0.00  0.00     0.211 HD
ENDBRANCH   9  25
BRANCH   9  27
HETATM   27  C   UNK N   1      27.985  27.460  -3.726  0.00  0.00     0.049 C 
HETATM   28  C   UNK N   1      28.511  28.150  -4.978  0.00  0.00     0.009 C 
ENDBRANCH   9  27
BRANCH  16  29
HETATM   29  C   UNK N   1      30.786  19.818  -7.443  0.00  0.00     0.036 C 
HETATM   30  C   UNK N   1      29.593  18.879  -7.461  0.00  0.00     0.010 C 
ENDBRANCH  16  29
BRANCH  23  31
HETATM   31  O   UNK N   1      34.675  18.832  -4.184  0.00  0.00    -0.361 OA
HETATM   32  H   UNK N   1      35.122  18.656  -4.988  0.00  0.00     0.217 HD
ENDBRANCH  23  31
TORSDOF 4
ENDMDL
MODEL 3
REMARK VINA RESULT:      -7.7      5.090      9.441
REMARK  4 active torsions:
REMARK  status: ('A' for Active; 'I' for Inactive)
REMARK    1  A    between atoms: C_11  and  O_2 
REMARK    2  A    between atoms: O_5  and  C_29 
REMARK    3  A    between atoms: C_11  and  C_19 
REMARK    4  A    between atoms: C_18  and  C_23 
ROOT
HETATM    1  O   UNK N   1      35.056  12.988   8.060  0.00  0.00    -0.314 OA
HETATM    2  O   UNK N   1      35.279   9.668  10.556  0.00  0.00    -0.267 OA
HETATM    3  O   UNK N   1      34.801  15.179   7.820  0.00  0.00    -0.261 OA
HETATM    4  N   UNK N   1      35.083  10.901  12.426  0.00  0.00    -0.307 N 
HETATM    5  N   UNK N   1      34.947  12.950  15.353  0.00  0.00    -0.353 N 
ATOM      6  HN  UNK N   1      34.836  13.925  15.076  1.00  0.00     0.166 HD
HETATM    7  C   UNK N   1      34.951  12.106  13.008  0.00  0.00     0.065 A 
HETATM    8  C   UNK N   1      34.914  13.196  10.873  0.00  0.00     0.002 A 
HETATM    9  C   UNK N   1      34.811  14.475  10.071  0.00  0.00     0.173 A 
HETATM   10  C   UNK N   1      35.175   9.830  13.440  0.00  0.00     0.174 A 
HETATM   11  C   UNK N   1      35.123  10.649  14.718  0.00  0.00    -0.004 A 
HETATM   12  C   UNK N   1      34.981  11.974  14.418  0.00  0.00     0.068 A 
HETATM   13  C   UNK N   1      35.066  11.931  10.254  0.00  0.00     0.044 A 
HETATM   14  C   UNK N   1      34.854  13.271  12.271  0.00  0.00     0.043 A 
HETATM   15  C   UNK N   1      35.144  10.770  11.061  0.00  0.00     0.257 A 
HETATM   16  C   UNK N   1      35.234  10.241  16.051  0.00  0.00    -0.036 A 
HETATM   17  C   UNK N   1      35.149  11.801   8.761  0.00  0.00     0.224 A 
HETATM   18  C   UNK N   1      34.891  14.228   8.584  0.00  0.00     0.298 A 
HETATM   19  C   UNK N   1      35.211  11.249  17.053  0.00  0.00     0.000 A 
HETATM   20  C   UNK N   1      35.063  12.616  16.666  0.00  0.00     0.043 A 
HETATM   21  C   UNK N   1      35.349  10.941  18.414  0.00  0.00     0.050 A 
HETATM   22  C   UNK N   1      35.057  13.621  17.634  0.00  0.00     0.033 A 
HETATM   23  C   UNK N   1      35.351  11.961  19.372  0.00  0.00     0.066 A 
HETATM   24  C   UNK N   1      35.205  13.294  18.983  0.00  0.00     0.039 A 
ENDROOT
BRANCH   9  25
HETATM   25  O   UNK N   1      33.579  15.078  10.341  0.00  0.00    -0.375 OA
HETATM   26  H   UNK N   1      32.828  15.195  10.945  0.00  0.00     0.211 HD
ENDBRANCH   9  25
BRANCH   9  27
HETATM   27  C   UNK N   1      35.950  15.447  10.432  0.00  0.00     0.049 C 
HETATM   28  C   UNK N   1      35.474  16.785  10.986  0.00  0.00     0.009 C 
ENDBRANCH   9  27
BRANCH  16  29
HETATM   29  C   UNK N   1      35.386   8.784  16.377  0.00  0.00     0.036 C 
HETATM   30  C   UNK N   1      36.843   8.360  16.333  0.00  0.00     0.010 C 
ENDBRANCH  16  29
BRANCH  23  31
HETATM   31  O   UNK N   1      35.503  11.659  20.671  0.00  0.00    -0.361 OA
HETATM   32  H   UNK N   1      34.750  11.521  21.212  0.00  0.00     0.217 HD
ENDBRANCH  23  31
TORSDOF 4
ENDMDL
MODEL 4
REMARK VINA RESULT:      -7.6      7.589     11.861
REMARK  4 active torsions:
REMARK  status: ('A' for Active; 'I' for Inactive)
REMARK    1  A    between atoms: C_11  and  O_2 
REMARK    2  A    between atoms: O_5  and  C_29 
REMARK    3  A    between atoms: C_11  and  C_19 
REMARK    4  A    between atoms: C_18  and  C_23 
ROOT
HETATM    1  O   UNK N   1      19.527  14.780   9.492  0.00  0.00    -0.314 OA
HETATM    2  O   UNK N   1      20.646  17.765   6.820  0.00  0.00    -0.267 OA
HETATM    3  O   UNK N   1      19.936  12.813  10.433  0.00  0.00    -0.261 OA
HETATM    4  N   UNK N   1      22.554  16.719   6.252  0.00  0.00    -0.307 N 
HETATM    5  N   UNK N   1      25.650  15.079   5.540  0.00  0.00    -0.353 N 
ATOM      6  HN  UNK N   1      25.689  14.197   6.050  1.00  0.00     0.166 HD
HETATM    7  C   UNK N   1      23.387  15.674   6.398  0.00  0.00     0.065 A 
HETATM    8  C   UNK N   1      21.920  14.655   7.997  0.00  0.00     0.002 A 
HETATM    9  C   UNK N   1      21.616  13.503   8.930  0.00  0.00     0.173 A 
HETATM   10  C   UNK N   1      23.100  17.703   5.295  0.00  0.00     0.174 A 
HETATM   11  C   UNK N   1      24.431  17.054   4.954  0.00  0.00    -0.004 A 
HETATM   12  C   UNK N   1      24.551  15.864   5.614  0.00  0.00     0.068 A 
HETATM   13  C   UNK N   1      21.044  15.759   7.857  0.00  0.00     0.044 A 
HETATM   14  C   UNK N   1      23.104  14.622   7.248  0.00  0.00     0.043 A 
HETATM   15  C   UNK N   1      21.380  16.800   6.958  0.00  0.00     0.257 A 
HETATM   16  C   UNK N   1      25.472  17.514   4.143  0.00  0.00    -0.036 A 
HETATM   17  C   UNK N   1      19.771  15.846   8.647  0.00  0.00     0.224 A 
HETATM   18  C   UNK N   1      20.309  13.685   9.661  0.00  0.00     0.298 A 
HETATM   19  C   UNK N   1      26.642  16.711   4.055  0.00  0.00     0.000 A 
HETATM   20  C   UNK N   1      26.702  15.479   4.776  0.00  0.00     0.043 A 
HETATM   21  C   UNK N   1      27.752  17.105   3.294  0.00  0.00     0.050 A 
HETATM   22  C   UNK N   1      27.849  14.688   4.717  0.00  0.00     0.033 A 
HETATM   23  C   UNK N   1      28.900  16.305   3.253  0.00  0.00     0.066 A 
HETATM   24  C   UNK N   1      28.946  15.102   3.961  0.00  0.00     0.039 A 
ENDROOT
BRANCH   9  25
HETATM   25  O   UNK N   1      21.529  12.326   8.179  0.00  0.00    -0.375 OA
HETATM   26  H   UNK N   1      21.142  11.445   8.062  0.00  0.00     0.211 HD
ENDBRANCH   9  25
BRANCH   9  27
HETATM   27  C   UNK N   1      22.717  13.351   9.997  0.00  0.00     0.049 C 
HETATM   28  C   UNK N   1      23.364  11.972  10.032  0.00  0.00     0.009 C 
ENDBRANCH   9  27
BRANCH  16  29
HETATM   29  C   UNK N   1      25.333  18.819   3.416  0.00  0.00     0.036 C 
HETATM   30  C   UNK N   1      25.771  19.982   4.288  0.00  0.00     0.010 C 
ENDBRANCH  16  29
BRANCH  23  31
HETATM   31  O   UNK N   1      29.965  16.699   2.537  0.00  0.00    -0.361 OA
HETATM   32  H   UNK N   1      30.823  16.402   2.771  0.00  0.00     0.217 HD
ENDBRANCH  23  31
TORSDOF 4
ENDMDL
MODEL 5
REMARK VINA RESULT:      -7.4      3.557      5.411
REMARK  4 active torsions:
REMARK  status: ('A' for Active; 'I' for Inactive)
REMARK    1  A    between atoms: C_11  and  O_2 
REMARK    2  A    between atoms: O_5  and  C_29 
REMARK    3  A    between atoms: C_11  and  C_19 
REMARK    4  A    between atoms: C_18  and  C_23 
ROOT
HETATM    1  O   UNK N   1      34.104  14.409   6.719  0.00  0.00    -0.314 OA
HETATM    2  O   UNK N   1      30.457  13.124   5.187  0.00  0.00    -0.267 OA
HETATM    3  O   UNK N   1      35.472  16.077   7.238  0.00  0.00    -0.261 OA
HETATM    4  N   UNK N   1      29.707  15.220   4.869  0.00  0.00    -0.307 N 
HETATM    5  N   UNK N   1      28.522  18.579   4.563  0.00  0.00    -0.353 N 
ATOM      6  HN  UNK N   1      29.261  19.223   4.844  1.00  0.00     0.166 HD
HETATM    7  C   UNK N   1      29.907  16.546   4.961  0.00  0.00     0.065 A 
HETATM    8  C   UNK N   1      32.101  16.209   5.866  0.00  0.00     0.002 A 
HETATM    9  C   UNK N   1      33.391  16.797   6.397  0.00  0.00     0.173 A 
HETATM   10  C   UNK N   1      28.362  14.923   4.334  0.00  0.00     0.174 A 
HETATM   11  C   UNK N   1      27.804  16.328   4.184  0.00  0.00    -0.004 A 
HETATM   12  C   UNK N   1      28.746  17.245   4.552  0.00  0.00     0.068 A 
HETATM   13  C   UNK N   1      31.892  14.810   5.784  0.00  0.00     0.044 A 
HETATM   14  C   UNK N   1      31.088  17.079   5.443  0.00  0.00     0.043 A 
HETATM   15  C   UNK N   1      30.667  14.323   5.267  0.00  0.00     0.257 A 
HETATM   16  C   UNK N   1      26.532  16.750   3.783  0.00  0.00    -0.036 A 
HETATM   17  C   UNK N   1      32.942  13.839   6.238  0.00  0.00     0.224 A 
HETATM   18  C   UNK N   1      34.380  15.734   6.810  0.00  0.00     0.298 A 
HETATM   19  C   UNK N   1      26.269  18.147   3.796  0.00  0.00     0.000 A 
HETATM   20  C   UNK N   1      27.300  19.050   4.196  0.00  0.00     0.043 A 
HETATM   21  C   UNK N   1      25.014  18.665   3.443  0.00  0.00     0.050 A 
HETATM   22  C   UNK N   1      27.053  20.423   4.232  0.00  0.00     0.033 A 
HETATM   23  C   UNK N   1      24.779  20.043   3.494  0.00  0.00     0.066 A 
HETATM   24  C   UNK N   1      25.795  20.917   3.886  0.00  0.00     0.039 A 
ENDROOT
BRANCH   9  25
HETATM   25  O   UNK N   1      33.982  17.567   5.390  0.00  0.00    -0.375 OA
HETATM   26  H   UNK N   1      34.780  17.976   5.021  0.00  0.00     0.211 HD
ENDBRANCH   9  25
BRANCH   9  27
HETATM   27  C   UNK N   1      33.129  17.679   7.633  0.00  0.00     0.049 C 
HETATM   28  C   UNK N   1      32.443  16.951   8.783  0.00  0.00     0.009 C 
ENDBRANCH   9  27
BRANCH  16  29
HETATM   29  C   UNK N   1      25.502  15.739   3.375  0.00  0.00     0.036 C 
HETATM   30  C   UNK N   1      25.667  15.344   1.919  0.00  0.00     0.010 C 
ENDBRANCH  16  29
BRANCH  23  31
HETATM   31  O   UNK N   1      23.569  20.528   3.174  0.00  0.00    -0.361 OA
HETATM   32  H   UNK N   1      23.484  21.410   2.864  0.00  0.00     0.217 HD
ENDBRANCH  23  31
TORSDOF 4
ENDMDL
MODEL 6
REMARK VINA RESULT:      -7.3      3.210      8.201
REMARK  4 active torsions:
REMARK  status: ('A' for Active; 'I' for Inactive)
REMARK    1  A    between atoms: C_11  and  O_2 
REMARK    2  A    between atoms: O_5  and  C_29 
REMARK    3  A    between atoms: C_11  and  C_19 
REMARK    4  A    between atoms: C_18  and  C_23 
ROOT
HETATM    1  O   UNK N   1      33.967  18.238   6.853  0.00  0.00    -0.314 OA
HETATM    2  O   UNK N   1      35.551  17.582  10.643  0.00  0.00    -0.267 OA
HETATM    3  O   UNK N   1      33.157  17.417   4.958  0.00  0.00    -0.261 OA
HETATM    4  N   UNK N   1      35.344  15.349  10.483  0.00  0.00    -0.307 N 
HETATM    5  N   UNK N   1      34.814  11.823  10.219  0.00  0.00    -0.353 N 
ATOM      6  HN  UNK N   1      34.435  11.608   9.297  1.00  0.00     0.166 HD
HETATM    7  C   UNK N   1      34.963  14.270   9.776  0.00  0.00     0.065 A 
HETATM    8  C   UNK N   1      34.279  15.648   7.937  0.00  0.00     0.002 A 
HETATM    9  C   UNK N   1      33.700  15.759   6.543  0.00  0.00     0.173 A 
HETATM   10  C   UNK N   1      35.858  14.957  11.812  0.00  0.00     0.174 A 
HETATM   11  C   UNK N   1      35.655  13.452  11.758  0.00  0.00    -0.004 A 
HETATM   12  C   UNK N   1      35.139  13.094  10.544  0.00  0.00     0.068 A 
HETATM   13  C   UNK N   1      34.666  16.789   8.682  0.00  0.00     0.044 A 
HETATM   14  C   UNK N   1      34.438  14.376   8.502  0.00  0.00     0.043 A 
HETATM   15  C   UNK N   1      35.213  16.617   9.977  0.00  0.00     0.257 A 
HETATM   16  C   UNK N   1      35.880  12.480  12.738  0.00  0.00    -0.036 A 
HETATM   17  C   UNK N   1      34.502  18.173   8.125  0.00  0.00     0.224 A 
HETATM   18  C   UNK N   1      33.593  17.190   6.077  0.00  0.00     0.298 A 
HETATM   19  C   UNK N   1      35.536  11.137  12.423  0.00  0.00     0.000 A 
HETATM   20  C   UNK N   1      34.998  10.835  11.136  0.00  0.00     0.043 A 
HETATM   21  C   UNK N   1      35.694  10.098  13.353  0.00  0.00     0.050 A 
HETATM   22  C   UNK N   1      34.638   9.525  10.817  0.00  0.00     0.033 A 
HETATM   23  C   UNK N   1      35.318   8.792  13.021  0.00  0.00     0.066 A 
HETATM   24  C   UNK N   1      34.794   8.507  11.759  0.00  0.00     0.039 A 
ENDROOT
BRANCH   9  25
HETATM   25  O   UNK N   1      34.535  15.077   5.653  0.00  0.00    -0.375 OA
HETATM   26  H   UNK N   1      35.230  15.112   4.977  0.00  0.00     0.211 HD
ENDBRANCH   9  25
BRANCH   9  27
HETATM   27  C   UNK N   1      32.283  15.155   6.484  0.00  0.00     0.049 C 
HETATM   28  C   UNK N   1      31.246  15.919   7.297  0.00  0.00     0.009 C 
ENDBRANCH   9  27
BRANCH  16  29
HETATM   29  C   UNK N   1      36.450  12.877  14.067  0.00  0.00     0.036 C 
HETATM   30  C   UNK N   1      35.350  13.173  15.071  0.00  0.00     0.010 C 
ENDBRANCH  16  29
BRANCH  23  31
HETATM   31  O   UNK N   1      35.454   7.807  13.924  0.00  0.00    -0.361 OA
HETATM   32  H   UNK N   1      34.866   7.753  14.652  0.00  0.00     0.217 HD
ENDBRANCH  23  31
TORSDOF 4
ENDMDL
MODEL 7
REMARK VINA RESULT:      -7.1      4.269      7.334
REMARK  4 active torsions:
REMARK  status: ('A' for Active; 'I' for Inactive)
REMARK    1  A    between atoms: C_11  and  O_2 
REMARK    2  A    between atoms: O_5  and  C_29 
REMARK    3  A    between atoms: C_11  and  C_19 
REMARK    4  A    between atoms: C_18  and  C_23 
ROOT
HETATM    1  O   UNK N   1      32.927  17.904   7.877  0.00  0.00    -0.314 OA
HETATM    2  O   UNK N   1      28.898  17.592   8.866  0.00  0.00    -0.267 OA
HETATM    3  O   UNK N   1      34.562  17.563   6.418  0.00  0.00    -0.261 OA
HETATM    4  N   UNK N   1      28.344  16.716   6.871  0.00  0.00    -0.307 N 
HETATM    5  N   UNK N   1      27.521  15.496   3.613  0.00  0.00    -0.353 N 
ATOM      6  HN  UNK N   1      28.375  15.400   3.064  1.00  0.00     0.166 HD
HETATM    7  C   UNK N   1      28.714  16.310   5.644  0.00  0.00     0.065 A 
HETATM    8  C   UNK N   1      31.004  16.862   6.088  0.00  0.00     0.002 A 
HETATM    9  C   UNK N   1      32.441  16.916   5.618  0.00  0.00     0.173 A 
HETATM   10  C   UNK N   1      26.886  16.568   7.062  0.00  0.00     0.174 A 
HETATM   11  C   UNK N   1      26.476  16.049   5.694  0.00  0.00    -0.004 A 
HETATM   12  C   UNK N   1      27.579  15.903   4.901  0.00  0.00     0.068 A 
HETATM   13  C   UNK N   1      30.619  17.304   7.378  0.00  0.00     0.044 A 
HETATM   14  C   UNK N   1      30.028  16.357   5.219  0.00  0.00     0.043 A 
HETATM   15  C   UNK N   1      29.259  17.216   7.763  0.00  0.00     0.257 A 
HETATM   16  C   UNK N   1      25.205  15.765   5.186  0.00  0.00    -0.036 A 
HETATM   17  C   UNK N   1      31.625  17.866   8.340  0.00  0.00     0.224 A 
HETATM   18  C   UNK N   1      33.368  17.482   6.666  0.00  0.00     0.298 A 
HETATM   19  C   UNK N   1      25.116  15.344   3.831  0.00  0.00     0.000 A 
HETATM   20  C   UNK N   1      26.311  15.217   3.058  0.00  0.00     0.043 A 
HETATM   21  C   UNK N   1      23.883  15.068   3.223  0.00  0.00     0.050 A 
HETATM   22  C   UNK N   1      26.241  14.824   1.721  0.00  0.00     0.033 A 
HETATM   23  C   UNK N   1      23.829  14.685   1.878  0.00  0.00     0.066 A 
HETATM   24  C   UNK N   1      25.003  14.563   1.132  0.00  0.00     0.039 A 
ENDROOT
BRANCH   9  25
HETATM   25  O   UNK N   1      32.867  15.617   5.322  0.00  0.00    -0.375 OA
HETATM   26  H   UNK N   1      33.285  15.005   4.697  0.00  0.00     0.211 HD
ENDBRANCH   9  25
BRANCH   9  27
HETATM   27  C   UNK N   1      32.579  17.800   4.363  0.00  0.00     0.049 C 
HETATM   28  C   UNK N   1      32.714  17.018   3.062  0.00  0.00     0.009 C 
ENDBRANCH   9  27
BRANCH  16  29
HETATM   29  C   UNK N   1      23.997  15.922   6.063  0.00  0.00     0.036 C 
HETATM   30  C   UNK N   1      23.702  14.643   6.825  0.00  0.00     0.010 C 
ENDBRANCH  16  29
BRANCH  23  31
HETATM   31  O   UNK N   1      22.643  14.442   1.298  0.00  0.00    -0.361 OA
HETATM   32  H   UNK N   1      22.484  13.617   0.882  0.00  0.00     0.217 HD
ENDBRANCH  23  31
TORSDOF 4
ENDMDL
MODEL 8
REMARK VINA RESULT:      -7.1      7.539     10.269
REMARK  4 active torsions:
REMARK  status: ('A' for Active; 'I' for Inactive)
REMARK    1  A    between atoms: C_11  and  O_2 
REMARK    2  A    between atoms: O_5  and  C_29 
REMARK    3  A    between atoms: C_11  and  C_19 
REMARK    4  A    between atoms: C_18  and  C_23 
ROOT
HETATM    1  O   UNK N   1      28.053  15.728   2.472  0.00  0.00    -0.314 OA
HETATM    2  O   UNK N   1      24.103  16.498   3.525  0.00  0.00    -0.267 OA
HETATM    3  O   UNK N   1      30.015  14.821   2.969  0.00  0.00    -0.261 OA
HETATM    4  N   UNK N   1      24.256  15.342   5.448  0.00  0.00    -0.307 N 
HETATM    5  N   UNK N   1      24.530  13.336   8.394  0.00  0.00    -0.353 N 
ATOM      6  HN  UNK N   1      25.486  12.989   8.477  1.00  0.00     0.166 HD
HETATM    7  C   UNK N   1      24.986  14.592   6.291  0.00  0.00     0.065 A 
HETATM    8  C   UNK N   1      26.908  14.762   4.867  0.00  0.00     0.002 A 
HETATM    9  C   UNK N   1      28.358  14.424   4.598  0.00  0.00     0.173 A 
HETATM   10  C   UNK N   1      22.873  15.503   5.944  0.00  0.00     0.174 A 
HETATM   11  C   UNK N   1      22.930  14.663   7.208  0.00  0.00    -0.004 A 
HETATM   12  C   UNK N   1      24.188  14.158   7.376  0.00  0.00     0.068 A 
HETATM   13  C   UNK N   1      26.139  15.541   3.967  0.00  0.00     0.044 A 
HETATM   14  C   UNK N   1      26.312  14.289   6.044  0.00  0.00     0.043 A 
HETATM   15  C   UNK N   1      24.790  15.833   4.282  0.00  0.00     0.257 A 
HETATM   16  C   UNK N   1      21.918  14.342   8.119  0.00  0.00    -0.036 A 
HETATM   17  C   UNK N   1      26.728  16.058   2.688  0.00  0.00     0.224 A 
HETATM   18  C   UNK N   1      28.851  15.005   3.295  0.00  0.00     0.298 A 
HETATM   19  C   UNK N   1      22.251  13.472   9.193  0.00  0.00     0.000 A 
HETATM   20  C   UNK N   1      23.586  12.978   9.306  0.00  0.00     0.043 A 
HETATM   21  C   UNK N   1      21.296  13.067  10.137  0.00  0.00     0.050 A 
HETATM   22  C   UNK N   1      23.926  12.108  10.342  0.00  0.00     0.033 A 
HETATM   23  C   UNK N   1      21.650  12.186  11.165  0.00  0.00     0.066 A 
HETATM   24  C   UNK N   1      22.959  11.710  11.266  0.00  0.00     0.039 A 
ENDROOT
BRANCH   9  25
HETATM   25  O   UNK N   1      29.141  14.951   5.629  0.00  0.00    -0.375 OA
HETATM   26  H   UNK N   1      29.802  14.807   6.325  0.00  0.00     0.211 HD
ENDBRANCH   9  25
BRANCH   9  27
HETATM   27  C   UNK N   1      28.565  12.899   4.523  0.00  0.00     0.049 C 
HETATM   28  C   UNK N   1      27.796  12.221   3.396  0.00  0.00     0.009 C 
ENDBRANCH   9  27
BRANCH  16  29
HETATM   29  C   UNK N   1      20.539  14.903   7.932  0.00  0.00     0.036 C 
HETATM   30  C   UNK N   1      20.394  16.246   8.626  0.00  0.00     0.010 C 
ENDBRANCH  16  29
BRANCH  23  31
HETATM   31  O   UNK N   1      20.726  11.788  12.053  0.00  0.00    -0.361 OA
HETATM   32  H   UNK N   1      19.814  11.860  11.846  0.00  0.00     0.217 HD
ENDBRANCH  23  31
TORSDOF 4
ENDMDL
MODEL 9
REMARK VINA RESULT:      -6.9      3.324      5.660
REMARK  4 active torsions:
REMARK  status: ('A' for Active; 'I' for Inactive)
REMARK    1  A    between atoms: C_11  and  O_2 
REMARK    2  A    between atoms: O_5  and  C_29 
REMARK    3  A    between atoms: C_11  and  C_19 
REMARK    4  A    between atoms: C_18  and  C_23 
ROOT
HETATM    1  O   UNK N   1      37.251  10.110  14.771  0.00  0.00    -0.314 OA
HETATM    2  O   UNK N   1      37.862  10.123  10.657  0.00  0.00    -0.267 OA
HETATM    3  O   UNK N   1      36.494  11.132  16.589  0.00  0.00    -0.261 OA
HETATM    4  N   UNK N   1      36.849  12.112  10.384  0.00  0.00    -0.307 N 
HETATM    5  N   UNK N   1      35.068  15.190  10.014  0.00  0.00    -0.353 N 
ATOM      6  HN  UNK N   1      34.783  15.526  10.933  1.00  0.00     0.166 HD
HETATM    7  C   UNK N   1      36.202  13.163  10.917  0.00  0.00     0.065 A 
HETATM    8  C   UNK N   1      36.385  12.231  13.118  0.00  0.00     0.002 A 
HETATM    9  C   UNK N   1      36.114  12.345  14.602  0.00  0.00     0.173 A 
HETATM   10  C   UNK N   1      36.964  12.249   8.917  0.00  0.00     0.174 A 
HETATM   11  C   UNK N   1      36.216  13.553   8.698  0.00  0.00    -0.004 A 
HETATM   12  C   UNK N   1      35.797  14.057   9.896  0.00  0.00     0.068 A 
HETATM   13  C   UNK N   1      37.056  11.114  12.561  0.00  0.00     0.044 A 
HETATM   14  C   UNK N   1      35.960  13.265  12.273  0.00  0.00     0.043 A 
HETATM   15  C   UNK N   1      37.290  11.073  11.165  0.00  0.00     0.257 A 
HETATM   16  C   UNK N   1      35.900  14.218   7.509  0.00  0.00    -0.036 A 
HETATM   17  C   UNK N   1      37.518   9.976  13.422  0.00  0.00     0.224 A 
HETATM   18  C   UNK N   1      36.633  11.156  15.374  0.00  0.00     0.298 A 
HETATM   19  C   UNK N   1      35.126  15.406   7.605  0.00  0.00     0.000 A 
HETATM   20  C   UNK N   1      34.719  15.875   8.891  0.00  0.00     0.043 A 
HETATM   21  C   UNK N   1      34.732  16.125   6.467  0.00  0.00     0.050 A 
HETATM   22  C   UNK N   1      33.942  17.028   9.003  0.00  0.00     0.033 A 
HETATM   23  C   UNK N   1      33.944  17.274   6.595  0.00  0.00     0.066 A 
HETATM   24  C   UNK N   1      33.553  17.723   7.858  0.00  0.00     0.039 A 
ENDROOT
BRANCH   9  25
HETATM   25  O   UNK N   1      36.755  13.488  15.091  0.00  0.00    -0.375 OA
HETATM   26  H   UNK N   1      36.751  14.243  15.699  0.00  0.00     0.211 HD
ENDBRANCH   9  25
BRANCH   9  27
HETATM   27  C   UNK N   1      34.602  12.444  14.882  0.00  0.00     0.049 C 
HETATM   28  C   UNK N   1      33.828  11.167  14.577  0.00  0.00     0.009 C 
ENDBRANCH   9  27
BRANCH  16  29
HETATM   29  C   UNK N   1      36.366  13.663   6.195  0.00  0.00     0.036 C 
HETATM   30  C   UNK N   1      37.750  14.179   5.841  0.00  0.00     0.010 C 
ENDBRANCH  16  29
BRANCH  23  31
HETATM   31  O   UNK N   1      33.555  17.944   5.499  0.00  0.00    -0.361 OA
HETATM   32  H   UNK N   1      33.971  17.780   4.675  0.00  0.00     0.217 HD
ENDBRANCH  23  31
TORSDOF 4
ENDMDL
