MODEL 1
REMARK VINA RESULT:      -5.0      0.000      0.000
REMARK  3 active torsions:
REMARK  status: ('A' for Active; 'I' for Inactive)
REMARK    1  A    between atoms: O_1  and  C_9 
REMARK    2  A    between atoms: O_1  and  C_10 
REMARK    3  A    between atoms: C_5  and  C_9 
ROOT
HETATM    1  N   UNK N   1      24.903  12.485  10.829  0.00  0.00    -0.367 N 
ATOM      2  HN  UNK N   1      25.920  12.458  10.915  1.00  0.00     0.165 HD
HETATM    3  C   UNK N   1      22.949  13.109   9.596  0.00  0.00     0.090 A 
HETATM    4  C   UNK N   1      24.345  13.058   9.731  0.00  0.00     0.038 A 
HETATM    5  C   UNK N   1      22.150  12.562  10.611  0.00  0.00     0.040 A 
HETATM    6  C   UNK N   1      25.227  13.635   8.676  0.00  0.00     0.071 C 
HETATM    7  C   UNK N   1      22.748  11.977  11.726  0.00  0.00     0.020 A 
HETATM    8  C   UNK N   1      24.141  11.949  11.820  0.00  0.00     0.088 A 
ENDROOT
BRANCH   3   9
HETATM    9  O   UNK N   1      22.409  13.677   8.497  0.00  0.00    -0.347 OA
BRANCH   9  10
HETATM   10  C   UNK N   1      21.131  13.438   8.049  0.00  0.00     0.200 C 
BRANCH  10  11
HETATM   11  C   UNK N   1      20.473  14.762   7.710  0.00  0.00     0.101 C 
HETATM   12  N   UNK N   1      21.385  15.633   6.989  0.00  0.00    -0.415 N 
HETATM   13  C   UNK N   1      20.872  16.975   7.226  0.00  0.00     0.114 C 
HETATM   14  H   UNK N   1      22.201  15.366   6.438  0.00  0.00     0.153 HD
HETATM   15  C   UNK N   1      20.034  16.938   8.494  0.00  0.00     0.021 C 
HETATM   16  C   UNK N   1      20.080  15.503   8.958  0.00  0.00     0.028 C 
ENDBRANCH  10  11
ENDBRANCH   9  10
ENDBRANCH   3   9
TORSDOF 3
ENDMDL
MODEL 2
REMARK VINA RESULT:      -5.0     17.575     19.401
REMARK  3 active torsions:
REMARK  status: ('A' for Active; 'I' for Inactive)
REMARK    1  A    between atoms: O_1  and  C_9 
REMARK    2  A    between atoms: O_1  and  C_10 
REMARK    3  A    between atoms: C_5  and  C_9 
ROOT
HETATM    1  N   UNK N   1      26.371  26.553  -3.231  0.00  0.00    -0.367 N 
ATOM      2  HN  UNK N   1      26.870  26.386  -2.357  1.00  0.00     0.165 HD
HETATM    3  C   UNK N   1      25.501  25.732  -5.303  0.00  0.00     0.090 A 
HETATM    4  C   UNK N   1      26.181  25.521  -4.094  0.00  0.00     0.038 A 
HETATM    5  C   UNK N   1      25.026  27.018  -5.599  0.00  0.00     0.040 A 
HETATM    6  C   UNK N   1      26.706  24.169  -3.748  0.00  0.00     0.071 C 
HETATM    7  C   UNK N   1      25.231  28.058  -4.695  0.00  0.00     0.020 A 
HETATM    8  C   UNK N   1      25.914  27.805  -3.504  0.00  0.00     0.088 A 
ENDROOT
BRANCH   3   9
HETATM    9  O   UNK N   1      25.315  24.695  -6.148  0.00  0.00    -0.347 OA
BRANCH   9  10
HETATM   10  C   UNK N   1      25.920  24.579  -7.379  0.00  0.00     0.200 C 
BRANCH  10  11
HETATM   11  C   UNK N   1      25.421  23.317  -8.055  0.00  0.00     0.101 C 
HETATM   12  N   UNK N   1      25.032  22.315  -7.076  0.00  0.00    -0.415 N 
HETATM   13  C   UNK N   1      25.126  21.051  -7.793  0.00  0.00     0.114 C 
HETATM   14  H   UNK N   1      24.754  22.464  -6.106  0.00  0.00     0.153 HD
HETATM   15  C   UNK N   1      26.074  21.246  -8.965  0.00  0.00     0.021 C 
HETATM   16  C   UNK N   1      26.501  22.691  -8.892  0.00  0.00     0.028 C 
ENDBRANCH  10  11
ENDBRANCH   9  10
ENDBRANCH   3   9
TORSDOF 3
ENDMDL
MODEL 3
REMARK VINA RESULT:      -4.9      7.983      8.678
REMARK  3 active torsions:
REMARK  status: ('A' for Active; 'I' for Inactive)
REMARK    1  A    between atoms: O_1  and  C_9 
REMARK    2  A    between atoms: O_1  and  C_10 
REMARK    3  A    between atoms: C_5  and  C_9 
ROOT
HETATM    1  N   UNK N   1      31.749  17.714   9.021  0.00  0.00    -0.367 N 
ATOM      2  HN  UNK N   1      32.121  18.076   9.900  1.00  0.00     0.165 HD
HETATM    3  C   UNK N   1      29.886  17.318   7.573  0.00  0.00     0.090 A 
HETATM    4  C   UNK N   1      30.417  17.814   8.773  0.00  0.00     0.038 A 
HETATM    5  C   UNK N   1      30.751  16.721   6.644  0.00  0.00     0.040 A 
HETATM    6  C   UNK N   1      29.527  18.449   9.787  0.00  0.00     0.071 C 
HETATM    7  C   UNK N   1      32.114  16.634   6.921  0.00  0.00     0.020 A 
HETATM    8  C   UNK N   1      32.600  17.140   8.128  0.00  0.00     0.088 A 
ENDROOT
BRANCH   3   9
HETATM    9  O   UNK N   1      28.561  17.429   7.338  0.00  0.00    -0.347 OA
BRANCH   9  10
HETATM   10  C   UNK N   1      28.015  17.804   6.132  0.00  0.00     0.200 C 
BRANCH  10  11
HETATM   11  C   UNK N   1      27.855  19.312   6.113  0.00  0.00     0.101 C 
HETATM   12  N   UNK N   1      27.191  19.786   7.316  0.00  0.00    -0.415 N 
HETATM   13  C   UNK N   1      26.618  21.069   6.934  0.00  0.00     0.114 C 
HETATM   14  H   UNK N   1      27.139  19.325   8.224  0.00  0.00     0.153 HD
HETATM   15  C   UNK N   1      26.464  21.082   5.422  0.00  0.00     0.021 C 
HETATM   16  C   UNK N   1      26.997  19.749   4.958  0.00  0.00     0.028 C 
ENDBRANCH  10  11
ENDBRANCH   9  10
ENDBRANCH   3   9
TORSDOF 3
ENDMDL
MODEL 4
REMARK VINA RESULT:      -4.8      8.079     10.482
REMARK  3 active torsions:
REMARK  status: ('A' for Active; 'I' for Inactive)
REMARK    1  A    between atoms: O_1  and  C_9 
REMARK    2  A    between atoms: O_1  and  C_10 
REMARK    3  A    between atoms: C_5  and  C_9 
ROOT
HETATM    1  N   UNK N   1      27.051  20.179   7.142  0.00  0.00    -0.367 N 
ATOM      2  HN  UNK N   1      26.623  20.594   7.970  1.00  0.00     0.165 HD
HETATM    3  C   UNK N   1      28.513  18.557   6.163  0.00  0.00     0.090 A 
HETATM    4  C   UNK N   1      27.911  19.138   7.290  0.00  0.00     0.038 A 
HETATM    5  C   UNK N   1      28.211  19.069   4.893  0.00  0.00     0.040 A 
HETATM    6  C   UNK N   1      28.214  18.625   8.657  0.00  0.00     0.071 C 
HETATM    7  C   UNK N   1      27.322  20.135   4.768  0.00  0.00     0.020 A 
HETATM    8  C   UNK N   1      26.747  20.684   5.916  0.00  0.00     0.088 A 
ENDROOT
BRANCH   3   9
HETATM    9  O   UNK N   1      29.362  17.520   6.326  0.00  0.00    -0.347 OA
BRANCH   9  10
HETATM   10  C   UNK N   1      30.395  17.221   5.468  0.00  0.00     0.200 C 
BRANCH  10  11
HETATM   11  C   UNK N   1      31.636  16.908   6.283  0.00  0.00     0.101 C 
HETATM   12  N   UNK N   1      31.576  17.532   7.594  0.00  0.00    -0.415 N 
HETATM   13  C   UNK N   1      32.967  17.635   8.012  0.00  0.00     0.114 C 
HETATM   14  H   UNK N   1      30.746  17.830   8.106  0.00  0.00     0.153 HD
HETATM   15  C   UNK N   1      33.834  17.596   6.765  0.00  0.00     0.021 C 
HETATM   16  C   UNK N   1      32.870  17.447   5.615  0.00  0.00     0.028 C 
ENDBRANCH  10  11
ENDBRANCH   9  10
ENDBRANCH   3   9
TORSDOF 3
ENDMDL
MODEL 5
REMARK VINA RESULT:      -4.7     11.663     12.957
REMARK  3 active torsions:
REMARK  status: ('A' for Active; 'I' for Inactive)
REMARK    1  A    between atoms: O_1  and  C_9 
REMARK    2  A    between atoms: O_1  and  C_10 
REMARK    3  A    between atoms: C_5  and  C_9 
ROOT
HETATM    1  N   UNK N   1      34.143  15.100   4.083  0.00  0.00    -0.367 N 
ATOM      2  HN  UNK N   1      34.555  14.182   3.918  1.00  0.00     0.165 HD
HETATM    3  C   UNK N   1      33.858  17.015   5.490  0.00  0.00     0.090 A 
HETATM    4  C   UNK N   1      34.418  15.752   5.243  0.00  0.00     0.038 A 
HETATM    5  C   UNK N   1      33.015  17.583   4.524  0.00  0.00     0.040 A 
HETATM    6  C   UNK N   1      35.313  15.113   6.250  0.00  0.00     0.071 C 
HETATM    7  C   UNK N   1      32.752  16.895   3.341  0.00  0.00     0.020 A 
HETATM    8  C   UNK N   1      33.330  15.641   3.136  0.00  0.00     0.088 A 
ENDROOT
BRANCH   3   9
HETATM    9  O   UNK N   1      34.144  17.653   6.645  0.00  0.00    -0.347 OA
BRANCH   9  10
HETATM   10  C   UNK N   1      33.201  18.069   7.556  0.00  0.00     0.200 C 
BRANCH  10  11
HETATM   11  C   UNK N   1      33.485  17.413   8.893  0.00  0.00     0.101 C 
HETATM   12  N   UNK N   1      34.900  17.480   9.222  0.00  0.00    -0.415 N 
HETATM   13  C   UNK N   1      35.106  16.388  10.163  0.00  0.00     0.114 C 
HETATM   14  H   UNK N   1      35.592  18.143   8.873  0.00  0.00     0.153 HD
HETATM   15  C   UNK N   1      33.991  15.376   9.958  0.00  0.00     0.021 C 
HETATM   16  C   UNK N   1      33.127  15.954   8.865  0.00  0.00     0.028 C 
ENDBRANCH  10  11
ENDBRANCH   9  10
ENDBRANCH   3   9
TORSDOF 3
ENDMDL
MODEL 6
REMARK VINA RESULT:      -4.7     13.838     15.117
REMARK  3 active torsions:
REMARK  status: ('A' for Active; 'I' for Inactive)
REMARK    1  A    between atoms: O_1  and  C_9 
REMARK    2  A    between atoms: O_1  and  C_10 
REMARK    3  A    between atoms: C_5  and  C_9 
ROOT
HETATM    1  N   UNK N   1      35.275  10.671  18.593  0.00  0.00    -0.367 N 
ATOM      2  HN  UNK N   1      35.312   9.664  18.751  1.00  0.00     0.165 HD
HETATM    3  C   UNK N   1      35.195  12.524  17.080  0.00  0.00     0.090 A 
HETATM    4  C   UNK N   1      35.241  11.142  17.319  0.00  0.00     0.038 A 
HETATM    5  C   UNK N   1      35.184  13.401  18.175  0.00  0.00     0.040 A 
HETATM    6  C   UNK N   1      35.261  10.179  16.180  0.00  0.00     0.071 C 
HETATM    7  C   UNK N   1      35.216  12.892  19.472  0.00  0.00     0.020 A 
HETATM    8  C   UNK N   1      35.263  11.510  19.664  0.00  0.00     0.088 A 
ENDROOT
BRANCH   3   9
HETATM    9  O   UNK N   1      35.157  12.977  15.809  0.00  0.00    -0.347 OA
BRANCH   9  10
HETATM   10  C   UNK N   1      36.195  13.629  15.186  0.00  0.00     0.200 C 
BRANCH  10  11
HETATM   11  C   UNK N   1      36.351  13.077  13.782  0.00  0.00     0.101 C 
HETATM   12  N   UNK N   1      36.845  14.094  12.868  0.00  0.00    -0.415 N 
HETATM   13  C   UNK N   1      36.421  13.637  11.552  0.00  0.00     0.114 C 
HETATM   14  H   UNK N   1      37.371  14.937  13.097  0.00  0.00     0.153 HD
HETATM   15  C   UNK N   1      35.243  12.696  11.740  0.00  0.00     0.021 C 
HETATM   16  C   UNK N   1      35.028  12.622  13.231  0.00  0.00     0.028 C 
ENDBRANCH  10  11
ENDBRANCH   9  10
ENDBRANCH   3   9
TORSDOF 3
ENDMDL
MODEL 7
REMARK VINA RESULT:      -4.5      8.581     11.489
REMARK  3 active torsions:
REMARK  status: ('A' for Active; 'I' for Inactive)
REMARK    1  A    between atoms: O_1  and  C_9 
REMARK    2  A    between atoms: O_1  and  C_10 
REMARK    3  A    between atoms: C_5  and  C_9 
ROOT
HETATM    1  N   UNK N   1      29.210  17.560   6.692  0.00  0.00    -0.367 N 
ATOM      2  HN  UNK N   1      28.719  17.384   5.816  1.00  0.00     0.165 HD
HETATM    3  C   UNK N   1      31.079  17.154   8.131  0.00  0.00     0.090 A 
HETATM    4  C   UNK N   1      30.390  16.929   6.929  0.00  0.00     0.038 A 
HETATM    5  C   UNK N   1      30.529  18.036   9.072  0.00  0.00     0.040 A 
HETATM    6  C   UNK N   1      30.940  15.992   5.907  0.00  0.00     0.071 C 
HETATM    7  C   UNK N   1      29.320  18.674   8.803  0.00  0.00     0.020 A 
HETATM    8  C   UNK N   1      28.667  18.420   7.595  0.00  0.00     0.088 A 
ENDROOT
BRANCH   3   9
HETATM    9  O   UNK N   1      32.252  16.523   8.350  0.00  0.00    -0.347 OA
BRANCH   9  10
HETATM   10  C   UNK N   1      33.414  17.154   8.730  0.00  0.00     0.200 C 
BRANCH  10  11
HETATM   11  C   UNK N   1      34.299  16.160   9.456  0.00  0.00     0.101 C 
HETATM   12  N   UNK N   1      33.515  15.281  10.308  0.00  0.00    -0.415 N 
HETATM   13  C   UNK N   1      34.459  14.809  11.311  0.00  0.00     0.114 C 
HETATM   14  H   UNK N   1      32.526  15.047  10.223  0.00  0.00     0.153 HD
HETATM   15  C   UNK N   1      35.603  15.808  11.385  0.00  0.00     0.021 C 
HETATM   16  C   UNK N   1      35.274  16.864  10.359  0.00  0.00     0.028 C 
ENDBRANCH  10  11
ENDBRANCH   9  10
ENDBRANCH   3   9
TORSDOF 3
ENDMDL
MODEL 8
REMARK VINA RESULT:      -4.4      8.673     11.753
REMARK  3 active torsions:
REMARK  status: ('A' for Active; 'I' for Inactive)
REMARK    1  A    between atoms: O_1  and  C_9 
REMARK    2  A    between atoms: O_1  and  C_10 
REMARK    3  A    between atoms: C_5  and  C_9 
ROOT
HETATM    1  N   UNK N   1      28.800  17.860   7.443  0.00  0.00    -0.367 N 
ATOM      2  HN  UNK N   1      27.926  18.171   7.868  1.00  0.00     0.165 HD
HETATM    3  C   UNK N   1      31.159  17.493   7.604  0.00  0.00     0.090 A 
HETATM    4  C   UNK N   1      29.946  17.910   8.171  0.00  0.00     0.038 A 
HETATM    5  C   UNK N   1      31.163  17.027   6.281  0.00  0.00     0.040 A 
HETATM    6  C   UNK N   1      29.903  18.418   9.573  0.00  0.00     0.071 C 
HETATM    7  C   UNK N   1      29.974  16.982   5.557  0.00  0.00     0.020 A 
HETATM    8  C   UNK N   1      28.789  17.409   6.160  0.00  0.00     0.088 A 
ENDROOT
BRANCH   3   9
HETATM    9  O   UNK N   1      32.289  17.544   8.341  0.00  0.00    -0.347 OA
BRANCH   9  10
HETATM   10  C   UNK N   1      33.470  16.929   7.995  0.00  0.00     0.200 C 
BRANCH  10  11
HETATM   11  C   UNK N   1      34.025  16.212   9.210  0.00  0.00     0.101 C 
HETATM   12  N   UNK N   1      34.580  17.153  10.169  0.00  0.00    -0.415 N 
HETATM   13  C   UNK N   1      35.529  16.366  10.944  0.00  0.00     0.114 C 
HETATM   14  H   UNK N   1      34.355  18.142  10.276  0.00  0.00     0.153 HD
HETATM   15  C   UNK N   1      35.930  15.161  10.109  0.00  0.00     0.021 C 
HETATM   16  C   UNK N   1      35.148  15.289   8.826  0.00  0.00     0.028 C 
ENDBRANCH  10  11
ENDBRANCH   9  10
ENDBRANCH   3   9
TORSDOF 3
ENDMDL
MODEL 9
REMARK VINA RESULT:      -4.4     10.252     13.250
REMARK  3 active torsions:
REMARK  status: ('A' for Active; 'I' for Inactive)
REMARK    1  A    between atoms: O_1  and  C_9 
REMARK    2  A    between atoms: O_1  and  C_10 
REMARK    3  A    between atoms: C_5  and  C_9 
ROOT
HETATM    1  N   UNK N   1      31.920  15.379   7.937  0.00  0.00    -0.367 N 
ATOM      2  HN  UNK N   1      31.387  14.547   7.681  1.00  0.00     0.165 HD
HETATM    3  C   UNK N   1      33.883  16.365   8.885  0.00  0.00     0.090 A 
HETATM    4  C   UNK N   1      33.137  15.234   8.522  0.00  0.00     0.038 A 
HETATM    5  C   UNK N   1      33.350  17.638   8.633  0.00  0.00     0.040 A 
HETATM    6  C   UNK N   1      33.669  13.864   8.781  0.00  0.00     0.071 C 
HETATM    7  C   UNK N   1      32.101  17.760   8.028  0.00  0.00     0.020 A 
HETATM    8  C   UNK N   1      31.392  16.607   7.684  0.00  0.00     0.088 A 
ENDROOT
BRANCH   3   9
HETATM    9  O   UNK N   1      35.094  16.205   9.462  0.00  0.00    -0.347 OA
BRANCH   9  10
HETATM   10  C   UNK N   1      35.410  16.626  10.732  0.00  0.00     0.200 C 
BRANCH  10  11
HETATM   11  C   UNK N   1      36.160  15.518  11.445  0.00  0.00     0.101 C 
HETATM   12  N   UNK N   1      37.026  14.794  10.530  0.00  0.00    -0.415 N 
HETATM   13  C   UNK N   1      37.219  13.496  11.160  0.00  0.00     0.114 C 
HETATM   14  H   UNK N   1      37.412  15.122   9.645  0.00  0.00     0.153 HD
HETATM   15  C   UNK N   1      36.062  13.264  12.118  0.00  0.00     0.021 C 
HETATM   16  C   UNK N   1      35.208  14.504  12.017  0.00  0.00     0.028 C 
ENDBRANCH  10  11
ENDBRANCH   9  10
ENDBRANCH   3   9
TORSDOF 3
ENDMDL
