REMARK  11 active torsions:
REMARK  status: ('A' for Active; 'I' for Inactive)
REMARK    1  A    between atoms: O_2  and  C_22 
REMARK    2  A    between atoms: C_26  and  O_5 
REMARK    3  A    between atoms: O_5  and  C_36 
REMARK    4  A    between atoms: O_7  and  C_37 
REMARK    5  A    between atoms: O_7  and  C_38 
REMARK    6  A    between atoms: O_9  and  C_51 
REMARK    7  A    between atoms: C_31  and  N_12 
REMARK       I    between atoms: N_12  and  C_38 
REMARK    8  A    between atoms: N_17  and  C_53 
REMARK    9  A    between atoms: N_17  and  C_55 
REMARK   10  A    between atoms: C_18  and  C_22 
REMARK   11  A    between atoms: C_46  and  C_50 
ROOT
HETATM    1  O   UNK N   1       3.068  -1.491  -0.500  0.00  0.00    -0.271 OA
HETATM    2  O   UNK N   1       5.247  -2.893   1.994  0.00  0.00    -0.271 OA
HETATM    3  N   UNK N   1       1.777  -0.755   1.163  0.00  0.00    -0.340 N 
HETATM    4  N   UNK N   1       5.343  -1.126   0.632  0.00  0.00    -0.334 N 
HETATM    5  C   UNK N   1       0.581  -0.781   0.348  0.00  0.00     0.126 A 
HETATM    6  C   UNK N   1       0.318  -2.083  -0.452  0.00  0.00     0.050 A 
HETATM    7  C   UNK N   1      -0.547  -1.689   0.746  0.00  0.00     0.054 A 
HETATM    8  C   UNK N   1       0.821  -3.478  -0.163  0.00  0.00    -0.023 C 
HETATM    9  C   UNK N   1       4.241  -0.482   1.284  0.00  0.00     0.181 C 
HETATM   10  C   UNK N   1       2.989  -1.004   0.624  0.00  0.00     0.241 C 
HETATM   11  C   UNK N   1       4.352   0.969   0.885  0.00  0.00     0.069 C 
HETATM   12  C   UNK N   1       5.215   0.988  -0.368  0.00  0.00     0.149 C 
HETATM   13  C   UNK N   1       5.797  -0.431  -0.541  0.00  0.00     0.159 C 
HETATM   14  C   UNK N   1       1.659  -3.825   0.818  0.00  0.00    -0.030 C 
HETATM   15  C   UNK N   1       2.081  -5.255   0.974  0.00  0.00     0.027 C 
HETATM   16  C   UNK N   1       5.655  -2.417   0.941  0.00  0.00     0.243 C 
HETATM   17  C   UNK N   1       6.325  -3.349  -0.017  0.00  0.00     0.179 C 
HETATM   18  C   UNK N   1       2.721  -5.773  -0.311  0.00  0.00     0.004 C 
HETATM   19  C   UNK N   1       5.474  -4.445  -0.637  0.00  0.00     0.035 C 
HETATM   20  C   UNK N   1       4.060  -6.443  -0.041  0.00  0.00     0.000 C 
HETATM   21  C   UNK N   1       5.091  -5.441   0.450  0.00  0.00     0.002 C 
HETATM   22  H   UNK N   1       1.705  -0.552   2.124  0.00  0.00     0.163 HD
ENDROOT
BRANCH  12  23
HETATM   23  O   UNK N   1       6.134   2.013  -0.199  0.00  0.00    -0.343 OA
BRANCH  23  24
HETATM   24  C   UNK N   1       7.469   1.937   0.047  0.00  0.00     0.084 A 
HETATM   25  C   UNK N   1       8.247   3.103  -0.062  0.00  0.00     0.024 A 
HETATM   26  C   UNK N   1       9.641   3.009   0.086  0.00  0.00     0.048 A 
HETATM   27  C   UNK N   1       7.673   4.350  -0.341  0.00  0.00     0.019 A 
HETATM   28  N   UNK N   1      10.213   1.817   0.318  0.00  0.00    -0.353 N 
HETATM   29  C   UNK N   1      10.447   4.132  -0.038  0.00  0.00     0.067 A 
HETATM   30  C   UNK N   1       9.491   0.687   0.488  0.00  0.00     0.062 A 
ATOM     31  HN  UNK N   1      11.230   1.761   0.368  1.00  0.00     0.166 HD
HETATM   32  C   UNK N   1       8.106   0.722   0.372  0.00  0.00     0.069 A 
HETATM   33  C   UNK N   1       9.886   5.373  -0.309  0.00  0.00     0.070 A 
HETATM   34  C   UNK N   1       8.489   5.483  -0.460  0.00  0.00     0.038 A 
BRANCH  30  35
HETATM   35  C   UNK N   1      10.244  -0.530   0.659  0.00  0.00     0.067 A 
HETATM   36  N   UNK N   1      11.349  -0.706  -0.130  0.00  0.00    -0.335 N 
HETATM   37  C   UNK N   1      12.102  -1.735   0.261  0.00  0.00     0.145 A 
ATOM     38  HN  UNK N   1      11.572  -0.113  -0.930  1.00  0.00     0.168 HD
HETATM   39  S   UNK N   1      11.463  -2.390   1.635  0.00  0.00    -0.064 SA
HETATM   40  C   UNK N   1      10.105  -1.424   1.741  0.00  0.00     0.085 A 
BRANCH  37  41
HETATM   41  N   UNK N   1      13.346  -1.998  -0.336  0.00  0.00    -0.367 N 
HETATM   42  H   UNK N   1      13.386  -2.314  -1.268  0.00  0.00     0.162 HD
BRANCH  41  43
HETATM   43  C   UNK N   1      14.557  -1.809   0.404  0.00  0.00     0.075 C 
HETATM   44  C   UNK N   1      15.459  -3.003   0.203  0.00  0.00     0.032 C 
HETATM   45  C   UNK N   1      15.246  -0.562  -0.118  0.00  0.00     0.032 C 
ENDBRANCH  41  43
ENDBRANCH  37  41
ENDBRANCH  30  35
BRANCH  33  46
HETATM   46  O   UNK N   1      10.709   6.438  -0.432  0.00  0.00    -0.356 OA
HETATM   47  C   UNK N   1      10.266   7.702  -0.740  0.00  0.00     0.210 C 
ENDBRANCH  33  46
ENDBRANCH  23  24
ENDBRANCH  12  23
BRANCH  17  48
HETATM   48  N   UNK N   1       7.534  -2.998  -0.718  0.00  0.00    -0.324 N 
HETATM   49  C   UNK N   1       8.566  -3.870  -0.711  0.00  0.00     0.361 C 
HETATM   50  O   UNK N   1       9.566  -3.620  -1.376  0.00  0.00    -0.238 OA
HETATM   51  H   UNK N   1       7.607  -2.139  -1.193  0.00  0.00     0.165 HD
BRANCH  49  52
HETATM   52  O   UNK N   1       8.479  -5.017   0.021  0.00  0.00    -0.299 OA
BRANCH  52  53
HETATM   53  C   UNK N   1       9.462  -5.969   0.226  0.00  0.00     0.133 C 
HETATM   54  C   UNK N   1       9.956  -6.581  -1.072  0.00  0.00     0.032 C 
HETATM   55  C   UNK N   1      11.431  -6.236  -1.180  0.00  0.00     0.002 C 
HETATM   56  C   UNK N   1      11.710  -5.187  -0.126  0.00  0.00     0.002 C 
HETATM   57  C   UNK N   1      10.669  -5.409   0.947  0.00  0.00     0.032 C 
ENDBRANCH  52  53
ENDBRANCH  49  52
ENDBRANCH  17  48
BRANCH   5  58
HETATM   58  C   UNK N   1       0.361   0.441  -0.505  0.00  0.00     0.170 C 
HETATM   59  O   UNK N   1       1.267   1.246  -0.661  0.00  0.00    -0.648 OA
BRANCH  58  60
HETATM   60  O   UNK N   1      -0.829   0.662  -1.092  0.00  0.00    -0.774 OA
HETATM   61  H   UNK N   1      -1.111   1.457  -1.501  0.00  0.00     0.167 HD
ENDBRANCH  58  60
ENDBRANCH   5  58
TORSDOF 11
