REMARK  3 active torsions:
REMARK  status: ('A' for Active; 'I' for Inactive)
REMARK    1  A    between atoms: N_2  and  C_13 
REMARK    2  A    between atoms: C_13  and  C_14 
REMARK    3  A    between atoms: C_16  and  C_17 
ROOT
HETATM    1  O   UNK N   1       5.830  -1.120   0.079  0.00  0.00    -0.277 OA
HETATM    2  N   UNK N   1       3.307  -0.007   0.153  0.00  0.00    -0.366 N 
ATOM      3  HN  UNK N   1       2.397   0.431   0.014  1.00  0.00     0.161 HD
HETATM    4  N   UNK N   1       4.721  -1.883   0.143  0.00  0.00    -0.250 N 
HETATM    5  C   UNK N   1       4.470   0.817   0.445  0.00  0.00     0.137 C 
HETATM    6  C   UNK N   1       5.622  -0.058   0.972  0.00  0.00     0.228 C 
HETATM    7  C   UNK N   1       3.421  -1.298   0.070  0.00  0.00     0.133 C 
HETATM    8  H   UNK N   1       4.808  -2.858   0.241  0.00  0.00     0.196 HD
ENDROOT
BRANCH   5   9
HETATM    9  C   UNK N   1       4.917   1.696  -0.724  0.00  0.00     0.299 C 
BRANCH   9  10
HETATM   10  N   UNK N   1       6.124   2.391  -0.295  0.00  0.00     0.090 N 
HETATM   11  C   UNK N   1       7.301   1.786  -0.907  0.00  0.00     0.272 C 
HETATM   12  C   UNK N   1       8.535   2.300  -0.174  0.00  0.00     0.030 C 
HETATM   13  C   UNK N   1       8.594   3.825  -0.282  0.00  0.00     0.003 C 
HETATM   14  C   UNK N   1       7.266   4.477   0.124  0.00  0.00     0.030 C 
HETATM   15  C   UNK N   1       6.098   3.812  -0.610  0.00  0.00     0.272 C 
ENDBRANCH   9  10
ENDBRANCH   5   9
BRANCH   7  16
HETATM   16  C   UNK N   1       2.231  -2.166   0.081  0.00  0.00     0.025 A 
HETATM   17  C   UNK N   1       2.390  -3.555   0.165  0.00  0.00     0.018 A 
HETATM   18  C   UNK N   1       1.276  -4.381   0.298  0.00  0.00     0.018 A 
HETATM   19  C   UNK N   1       0.006  -3.807   0.354  0.00  0.00     0.087 A 
HETATM   20  N   UNK N   1      -0.139  -2.456   0.267  0.00  0.00    -0.374 N 
HETATM   21  C   UNK N   1       0.937  -1.632   0.139  0.00  0.00     0.102 A 
ATOM     22  HN  UNK N   1      -1.075  -2.052   0.298  1.00  0.00     0.164 HD
ENDBRANCH   7  16
TORSDOF 3
