MODEL 1
REMARK VINA RESULT:      -6.1      0.000      0.000
REMARK  8 active torsions:
REMARK  status: ('A' for Active; 'I' for Inactive)
REMARK    1  A    between atoms: O_1  and  C_12 
REMARK    2  A    between atoms: O_1  and  C_13 
REMARK    3  A    between atoms: O_2  and  N_8 
REMARK    4  A    between atoms: O_2  and  C_11 
REMARK    5  A    between atoms: N_7  and  C_14 
REMARK       I    between atoms: N_7  and  C_19 
REMARK    6  A    between atoms: C_9  and  C_10 
REMARK    7  A    between atoms: C_9  and  C_11 
REMARK    8  A    between atoms: C_10  and  C_12 
ROOT
HETATM    1  C   UNK N   1      28.713  18.553   7.310  0.00  0.00     0.079 A 
HETATM    2  C   UNK N   1      31.089  17.474   8.366  0.00  0.00     0.034 A 
HETATM    3  C   UNK N   1      29.483  17.671   6.551  0.00  0.00     0.039 A 
HETATM    4  C   UNK N   1      29.137  18.891   8.608  0.00  0.00     0.039 A 
HETATM    5  C   UNK N   1      30.663  17.136   7.071  0.00  0.00     0.032 A 
HETATM    6  C   UNK N   1      30.316  18.353   9.129  0.00  0.00     0.032 A 
ENDROOT
BRANCH   1   7
HETATM    7  O   UNK N   1      27.577  19.055   6.761  0.00  0.00    -0.279 OA
BRANCH   7   8
HETATM    8  C   UNK N   1      27.474  20.096   5.892  0.00  0.00     0.264 C 
HETATM    9  O   UNK N   1      27.570  21.254   6.277  0.00  0.00    -0.265 OA
BRANCH   8  10
HETATM   10  C   UNK N   1      27.291  19.793   4.432  0.00  0.00     0.113 C 
BRANCH  10  11
HETATM   11  C   UNK N   1      26.230  18.735   4.166  0.00  0.00     0.039 C 
BRANCH  11  12
HETATM   12  C   UNK N   1      24.849  19.242   4.549  0.00  0.00     0.208 C 
BRANCH  12  13
HETATM   13  O   UNK N   1      24.081  19.442   3.420  0.00  0.00    -0.221 OA
BRANCH  13  14
HETATM   14  N   UNK N   1      24.059  20.593   2.769  0.00  0.00     0.004 N 
HETATM   15  O   UNK N   1      23.056  21.422   2.954  0.00  0.00    -0.511 OA
HETATM   16  O   UNK N   1      24.925  20.880   1.996  0.00  0.00    -0.511 OA
ENDBRANCH  13  14
ENDBRANCH  12  13
ENDBRANCH  11  12
ENDBRANCH  10  11
ENDBRANCH   8  10
ENDBRANCH   7   8
ENDBRANCH   1   7
BRANCH   2  17
HETATM   17  N   UNK N   1      32.284  16.942   8.930  0.00  0.00    -0.328 N 
HETATM   18  C   UNK N   1      33.541  17.428   8.741  0.00  0.00     0.218 C 
HETATM   19  O   UNK N   1      33.747  18.409   8.045  0.00  0.00    -0.274 OA
HETATM   20  C   UNK N   1      34.690  16.748   9.399  0.00  0.00     0.117 C 
HETATM   21  H   UNK N   1      32.192  16.151   9.509  0.00  0.00     0.169 HD
ENDBRANCH   2  17
TORSDOF 8
ENDMDL
MODEL 2
REMARK VINA RESULT:      -5.9      4.656      7.272
REMARK  8 active torsions:
REMARK  status: ('A' for Active; 'I' for Inactive)
REMARK    1  A    between atoms: O_1  and  C_12 
REMARK    2  A    between atoms: O_1  and  C_13 
REMARK    3  A    between atoms: O_2  and  N_8 
REMARK    4  A    between atoms: O_2  and  C_11 
REMARK    5  A    between atoms: N_7  and  C_14 
REMARK       I    between atoms: N_7  and  C_19 
REMARK    6  A    between atoms: C_9  and  C_10 
REMARK    7  A    between atoms: C_9  and  C_11 
REMARK    8  A    between atoms: C_10  and  C_12 
ROOT
HETATM    1  C   UNK N   1      35.121  16.036   9.289  0.00  0.00     0.079 A 
HETATM    2  C   UNK N   1      36.226  14.683  11.497  0.00  0.00     0.034 A 
HETATM    3  C   UNK N   1      35.544  14.712   9.163  0.00  0.00     0.039 A 
HETATM    4  C   UNK N   1      35.249  16.681  10.532  0.00  0.00     0.039 A 
HETATM    5  C   UNK N   1      36.095  14.040  10.255  0.00  0.00     0.032 A 
HETATM    6  C   UNK N   1      35.796  16.008  11.626  0.00  0.00     0.032 A 
ENDROOT
BRANCH   1   7
HETATM    7  O   UNK N   1      34.598  16.653   8.197  0.00  0.00    -0.279 OA
BRANCH   7   8
HETATM    8  C   UNK N   1      34.198  17.949   8.100  0.00  0.00     0.264 C 
HETATM    9  O   UNK N   1      34.998  18.842   7.857  0.00  0.00    -0.265 OA
BRANCH   8  10
HETATM   10  C   UNK N   1      32.735  18.258   8.245  0.00  0.00     0.113 C 
BRANCH  10  11
HETATM   11  C   UNK N   1      31.833  17.098   7.848  0.00  0.00     0.039 C 
BRANCH  11  12
HETATM   12  C   UNK N   1      30.660  16.969   8.806  0.00  0.00     0.208 C 
BRANCH  12  13
HETATM   13  O   UNK N   1      29.468  17.126   8.127  0.00  0.00    -0.221 OA
BRANCH  13  14
HETATM   14  N   UNK N   1      28.482  17.879   8.586  0.00  0.00     0.004 N 
HETATM   15  O   UNK N   1      28.261  19.057   8.047  0.00  0.00    -0.511 OA
HETATM   16  O   UNK N   1      27.804  17.513   9.501  0.00  0.00    -0.511 OA
ENDBRANCH  13  14
ENDBRANCH  12  13
ENDBRANCH  11  12
ENDBRANCH  10  11
ENDBRANCH   8  10
ENDBRANCH   7   8
ENDBRANCH   1   7
BRANCH   2  17
HETATM   17  N   UNK N   1      36.777  14.026  12.634  0.00  0.00    -0.328 N 
HETATM   18  C   UNK N   1      36.070  13.441  13.639  0.00  0.00     0.218 C 
HETATM   19  O   UNK N   1      34.849  13.430  13.636  0.00  0.00    -0.274 OA
HETATM   20  C   UNK N   1      36.801  12.801  14.765  0.00  0.00     0.117 C 
HETATM   21  H   UNK N   1      37.759  13.992  12.699  0.00  0.00     0.169 HD
ENDBRANCH   2  17
TORSDOF 8
ENDMDL
MODEL 3
REMARK VINA RESULT:      -5.9      7.815     11.383
REMARK  8 active torsions:
REMARK  status: ('A' for Active; 'I' for Inactive)
REMARK    1  A    between atoms: O_1  and  C_12 
REMARK    2  A    between atoms: O_1  and  C_13 
REMARK    3  A    between atoms: O_2  and  N_8 
REMARK    4  A    between atoms: O_2  and  C_11 
REMARK    5  A    between atoms: N_7  and  C_14 
REMARK       I    between atoms: N_7  and  C_19 
REMARK    6  A    between atoms: C_9  and  C_10 
REMARK    7  A    between atoms: C_9  and  C_11 
REMARK    8  A    between atoms: C_10  and  C_12 
ROOT
HETATM    1  C   UNK N   1      35.742  12.396  13.185  0.00  0.00     0.079 A 
HETATM    2  C   UNK N   1      35.500  11.908  15.947  0.00  0.00     0.034 A 
HETATM    3  C   UNK N   1      34.535  11.940  13.716  0.00  0.00     0.039 A 
HETATM    4  C   UNK N   1      36.832  12.612  14.048  0.00  0.00     0.039 A 
HETATM    5  C   UNK N   1      34.413  11.695  15.085  0.00  0.00     0.032 A 
HETATM    6  C   UNK N   1      36.709  12.370  15.418  0.00  0.00     0.032 A 
ENDROOT
BRANCH   1   7
HETATM    7  O   UNK N   1      35.818  12.614  11.847  0.00  0.00    -0.279 OA
BRANCH   7   8
HETATM    8  C   UNK N   1      36.055  13.797  11.220  0.00  0.00     0.264 C 
HETATM    9  O   UNK N   1      37.086  13.983  10.587  0.00  0.00    -0.265 OA
BRANCH   8  10
HETATM   10  C   UNK N   1      34.996  14.861  11.275  0.00  0.00     0.113 C 
BRANCH  10  11
HETATM   11  C   UNK N   1      35.363  16.116  10.497  0.00  0.00     0.039 C 
BRANCH  11  12
HETATM   12  C   UNK N   1      34.363  16.377   9.382  0.00  0.00     0.208 C 
BRANCH  12  13
HETATM   13  O   UNK N   1      34.143  17.732   9.243  0.00  0.00    -0.221 OA
BRANCH  13  14
HETATM   14  N   UNK N   1      34.718  18.454   8.295  0.00  0.00     0.004 N 
HETATM   15  O   UNK N   1      34.544  18.124   7.035  0.00  0.00    -0.511 OA
HETATM   16  O   UNK N   1      35.413  19.387   8.570  0.00  0.00    -0.511 OA
ENDBRANCH  13  14
ENDBRANCH  12  13
ENDBRANCH  11  12
ENDBRANCH  10  11
ENDBRANCH   8  10
ENDBRANCH   7   8
ENDBRANCH   1   7
BRANCH   2  17
HETATM   17  N   UNK N   1      35.409  11.674  17.350  0.00  0.00    -0.328 N 
HETATM   18  C   UNK N   1      35.237  12.625  18.308  0.00  0.00     0.218 C 
HETATM   19  O   UNK N   1      35.136  13.807  18.022  0.00  0.00    -0.274 OA
HETATM   20  C   UNK N   1      35.171  12.213  19.736  0.00  0.00     0.117 C 
HETATM   21  H   UNK N   1      35.478  10.740  17.653  0.00  0.00     0.169 HD
ENDBRANCH   2  17
TORSDOF 8
ENDMDL
MODEL 4
REMARK VINA RESULT:      -5.9     10.778     12.701
REMARK  8 active torsions:
REMARK  status: ('A' for Active; 'I' for Inactive)
REMARK    1  A    between atoms: O_1  and  C_12 
REMARK    2  A    between atoms: O_1  and  C_13 
REMARK    3  A    between atoms: O_2  and  N_8 
REMARK    4  A    between atoms: O_2  and  C_11 
REMARK    5  A    between atoms: N_7  and  C_14 
REMARK       I    between atoms: N_7  and  C_19 
REMARK    6  A    between atoms: C_9  and  C_10 
REMARK    7  A    between atoms: C_9  and  C_11 
REMARK    8  A    between atoms: C_10  and  C_12 
ROOT
HETATM    1  C   UNK N   1      28.471  26.786  -3.819  0.00  0.00     0.079 A 
HETATM    2  C   UNK N   1      30.235  24.592  -3.808  0.00  0.00     0.034 A 
HETATM    3  C   UNK N   1      29.849  26.991  -3.731  0.00  0.00     0.039 A 
HETATM    4  C   UNK N   1      27.978  25.472  -3.906  0.00  0.00     0.039 A 
HETATM    5  C   UNK N   1      30.726  25.906  -3.723  0.00  0.00     0.032 A 
HETATM    6  C   UNK N   1      28.856  24.385  -3.902  0.00  0.00     0.032 A 
ENDROOT
BRANCH   1   7
HETATM    7  O   UNK N   1      27.655  27.872  -3.816  0.00  0.00    -0.279 OA
BRANCH   7   8
HETATM    8  C   UNK N   1      26.314  27.892  -4.039  0.00  0.00     0.264 C 
HETATM    9  O   UNK N   1      25.519  27.975  -3.112  0.00  0.00    -0.265 OA
BRANCH   8  10
HETATM   10  C   UNK N   1      25.824  27.860  -5.458  0.00  0.00     0.113 C 
BRANCH  10  11
HETATM   11  C   UNK N   1      24.849  26.725  -5.733  0.00  0.00     0.039 C 
BRANCH  11  12
HETATM   12  C   UNK N   1      25.531  25.589  -6.477  0.00  0.00     0.208 C 
BRANCH  12  13
HETATM   13  O   UNK N   1      25.333  24.395  -5.815  0.00  0.00    -0.221 OA
BRANCH  13  14
HETATM   14  N   UNK N   1      25.705  23.230  -6.320  0.00  0.00     0.004 N 
HETATM   15  O   UNK N   1      26.978  23.003  -6.556  0.00  0.00    -0.511 OA
HETATM   16  O   UNK N   1      24.897  22.390  -6.587  0.00  0.00    -0.511 OA
ENDBRANCH  13  14
ENDBRANCH  12  13
ENDBRANCH  11  12
ENDBRANCH  10  11
ENDBRANCH   8  10
ENDBRANCH   7   8
ENDBRANCH   1   7
BRANCH   2  17
HETATM   17  N   UNK N   1      31.102  23.461  -3.809  0.00  0.00    -0.328 N 
HETATM   18  C   UNK N   1      31.350  22.645  -2.748  0.00  0.00     0.218 C 
HETATM   19  O   UNK N   1      30.816  22.828  -1.665  0.00  0.00    -0.274 OA
HETATM   20  C   UNK N   1      32.292  21.506  -2.912  0.00  0.00     0.117 C 
HETATM   21  H   UNK N   1      31.563  23.251  -4.653  0.00  0.00     0.169 HD
ENDBRANCH   2  17
TORSDOF 8
ENDMDL
MODEL 5
REMARK VINA RESULT:      -5.8      1.660      8.746
REMARK  8 active torsions:
REMARK  status: ('A' for Active; 'I' for Inactive)
REMARK    1  A    between atoms: O_1  and  C_12 
REMARK    2  A    between atoms: O_1  and  C_13 
REMARK    3  A    between atoms: O_2  and  N_8 
REMARK    4  A    between atoms: O_2  and  C_11 
REMARK    5  A    between atoms: N_7  and  C_14 
REMARK       I    between atoms: N_7  and  C_19 
REMARK    6  A    between atoms: C_9  and  C_10 
REMARK    7  A    between atoms: C_9  and  C_11 
REMARK    8  A    between atoms: C_10  and  C_12 
ROOT
HETATM    1  C   UNK N   1      27.664  18.493   5.460  0.00  0.00     0.079 A 
HETATM    2  C   UNK N   1      25.131  19.182   4.442  0.00  0.00     0.034 A 
HETATM    3  C   UNK N   1      27.116  19.748   5.727  0.00  0.00     0.039 A 
HETATM    4  C   UNK N   1      26.933  17.577   4.681  0.00  0.00     0.039 A 
HETATM    5  C   UNK N   1      25.862  20.093   5.221  0.00  0.00     0.032 A 
HETATM    6  C   UNK N   1      25.676  17.922   4.179  0.00  0.00     0.032 A 
ENDROOT
BRANCH   1   7
HETATM    7  O   UNK N   1      28.891  18.202   5.966  0.00  0.00    -0.279 OA
BRANCH   7   8
HETATM    8  C   UNK N   1      29.167  17.482   7.086  0.00  0.00     0.264 C 
HETATM    9  O   UNK N   1      28.329  17.331   7.965  0.00  0.00    -0.265 OA
BRANCH   8  10
HETATM   10  C   UNK N   1      30.515  16.829   7.201  0.00  0.00     0.113 C 
BRANCH  10  11
HETATM   11  C   UNK N   1      31.504  17.635   8.032  0.00  0.00     0.039 C 
BRANCH  11  12
HETATM   12  C   UNK N   1      32.764  16.830   8.310  0.00  0.00     0.208 C 
BRANCH  12  13
HETATM   13  O   UNK N   1      33.750  17.646   8.826  0.00  0.00    -0.221 OA
BRANCH  13  14
HETATM   14  N   UNK N   1      34.574  18.338   8.057  0.00  0.00     0.004 N 
HETATM   15  O   UNK N   1      35.352  19.249   8.597  0.00  0.00    -0.511 OA
HETATM   16  O   UNK N   1      34.604  18.164   6.874  0.00  0.00    -0.511 OA
ENDBRANCH  13  14
ENDBRANCH  12  13
ENDBRANCH  11  12
ENDBRANCH  10  11
ENDBRANCH   8  10
ENDBRANCH   7   8
ENDBRANCH   1   7
BRANCH   2  17
HETATM   17  N   UNK N   1      23.846  19.499   3.915  0.00  0.00    -0.328 N 
HETATM   18  C   UNK N   1      23.593  20.357   2.890  0.00  0.00     0.218 C 
HETATM   19  O   UNK N   1      24.495  20.943   2.312  0.00  0.00    -0.274 OA
HETATM   20  C   UNK N   1      22.187  20.586   2.463  0.00  0.00     0.117 C 
HETATM   21  H   UNK N   1      23.071  19.057   4.331  0.00  0.00     0.169 HD
ENDBRANCH   2  17
TORSDOF 8
ENDMDL
MODEL 6
REMARK VINA RESULT:      -5.6      3.357      9.580
REMARK  8 active torsions:
REMARK  status: ('A' for Active; 'I' for Inactive)
REMARK    1  A    between atoms: O_1  and  C_12 
REMARK    2  A    between atoms: O_1  and  C_13 
REMARK    3  A    between atoms: O_2  and  N_8 
REMARK    4  A    between atoms: O_2  and  C_11 
REMARK    5  A    between atoms: N_7  and  C_14 
REMARK       I    between atoms: N_7  and  C_19 
REMARK    6  A    between atoms: C_9  and  C_10 
REMARK    7  A    between atoms: C_9  and  C_11 
REMARK    8  A    between atoms: C_10  and  C_12 
ROOT
HETATM    1  C   UNK N   1      33.212  17.506   6.294  0.00  0.00     0.079 A 
HETATM    2  C   UNK N   1      30.650  17.218   5.161  0.00  0.00     0.034 A 
HETATM    3  C   UNK N   1      32.104  17.270   7.109  0.00  0.00     0.039 A 
HETATM    4  C   UNK N   1      33.031  17.592   4.901  0.00  0.00     0.039 A 
HETATM    5  C   UNK N   1      30.833  17.130   6.551  0.00  0.00     0.032 A 
HETATM    6  C   UNK N   1      31.760  17.447   4.342  0.00  0.00     0.032 A 
ENDROOT
BRANCH   1   7
HETATM    7  O   UNK N   1      34.429  17.643   6.881  0.00  0.00    -0.279 OA
BRANCH   7   8
HETATM    8  C   UNK N   1      34.688  18.078   8.143  0.00  0.00     0.264 C 
HETATM    9  O   UNK N   1      34.967  19.248   8.365  0.00  0.00    -0.265 OA
BRANCH   8  10
HETATM   10  C   UNK N   1      34.572  17.096   9.274  0.00  0.00     0.113 C 
BRANCH  10  11
HETATM   11  C   UNK N   1      34.990  15.684   8.890  0.00  0.00     0.039 C 
BRANCH  11  12
HETATM   12  C   UNK N   1      34.505  14.674   9.918  0.00  0.00     0.208 C 
BRANCH  12  13
HETATM   13  O   UNK N   1      35.528  14.341  10.781  0.00  0.00    -0.221 OA
BRANCH  13  14
HETATM   14  N   UNK N   1      35.399  14.405  12.097  0.00  0.00     0.004 N 
HETATM   15  O   UNK N   1      36.145  15.242  12.781  0.00  0.00    -0.511 OA
HETATM   16  O   UNK N   1      34.629  13.694  12.673  0.00  0.00    -0.511 OA
ENDBRANCH  13  14
ENDBRANCH  12  13
ENDBRANCH  11  12
ENDBRANCH  10  11
ENDBRANCH   8  10
ENDBRANCH   7   8
ENDBRANCH   1   7
BRANCH   2  17
HETATM   17  N   UNK N   1      29.368  17.073   4.557  0.00  0.00    -0.328 N 
HETATM   18  C   UNK N   1      28.422  18.045   4.451  0.00  0.00     0.218 C 
HETATM   19  O   UNK N   1      28.614  19.172   4.881  0.00  0.00    -0.274 OA
HETATM   20  C   UNK N   1      27.124  17.728   3.796  0.00  0.00     0.117 C 
HETATM   21  H   UNK N   1      29.146  16.190   4.183  0.00  0.00     0.169 HD
ENDBRANCH   2  17
TORSDOF 8
ENDMDL
MODEL 7
REMARK VINA RESULT:      -5.6      4.508      6.991
REMARK  8 active torsions:
REMARK  status: ('A' for Active; 'I' for Inactive)
REMARK    1  A    between atoms: O_1  and  C_12 
REMARK    2  A    between atoms: O_1  and  C_13 
REMARK    3  A    between atoms: O_2  and  N_8 
REMARK    4  A    between atoms: O_2  and  C_11 
REMARK    5  A    between atoms: N_7  and  C_14 
REMARK       I    between atoms: N_7  and  C_19 
REMARK    6  A    between atoms: C_9  and  C_10 
REMARK    7  A    between atoms: C_9  and  C_11 
REMARK    8  A    between atoms: C_10  and  C_12 
ROOT
HETATM    1  C   UNK N   1      33.714  16.987   5.731  0.00  0.00     0.079 A 
HETATM    2  C   UNK N   1      32.006  15.693   3.904  0.00  0.00     0.034 A 
HETATM    3  C   UNK N   1      32.992  17.729   4.795  0.00  0.00     0.039 A 
HETATM    4  C   UNK N   1      33.573  15.588   5.751  0.00  0.00     0.039 A 
HETATM    5  C   UNK N   1      32.147  17.090   3.887  0.00  0.00     0.032 A 
HETATM    6  C   UNK N   1      32.724  14.949   4.845  0.00  0.00     0.032 A 
ENDROOT
BRANCH   1   7
HETATM    7  O   UNK N   1      34.530  17.650   6.590  0.00  0.00    -0.279 OA
BRANCH   7   8
HETATM    8  C   UNK N   1      34.207  18.139   7.817  0.00  0.00     0.264 C 
HETATM    9  O   UNK N   1      34.799  19.100   8.292  0.00  0.00    -0.265 OA
BRANCH   8  10
HETATM   10  C   UNK N   1      33.068  17.504   8.562  0.00  0.00     0.113 C 
BRANCH  10  11
HETATM   11  C   UNK N   1      31.742  18.224   8.360  0.00  0.00     0.039 C 
BRANCH  11  12
HETATM   12  C   UNK N   1      30.634  17.559   9.161  0.00  0.00     0.208 C 
BRANCH  12  13
HETATM   13  O   UNK N   1      29.653  18.477   9.474  0.00  0.00    -0.221 OA
BRANCH  13  14
HETATM   14  N   UNK N   1      28.396  18.337   9.085  0.00  0.00     0.004 N 
HETATM   15  O   UNK N   1      27.688  17.325   9.534  0.00  0.00    -0.511 OA
HETATM   16  O   UNK N   1      27.904  19.103   8.311  0.00  0.00    -0.511 OA
ENDBRANCH  13  14
ENDBRANCH  12  13
ENDBRANCH  11  12
ENDBRANCH  10  11
ENDBRANCH   8  10
ENDBRANCH   7   8
ENDBRANCH   1   7
BRANCH   2  17
HETATM   17  N   UNK N   1      31.148  15.008   2.996  0.00  0.00    -0.328 N 
HETATM   18  C   UNK N   1      29.815  14.790   3.168  0.00  0.00     0.218 C 
HETATM   19  O   UNK N   1      29.227  15.190   4.160  0.00  0.00    -0.274 OA
HETATM   20  C   UNK N   1      29.060  14.046   2.124  0.00  0.00     0.117 C 
HETATM   21  H   UNK N   1      31.555  14.661   2.170  0.00  0.00     0.169 HD
ENDBRANCH   2  17
TORSDOF 8
ENDMDL
MODEL 8
REMARK VINA RESULT:      -5.6     10.173     14.194
REMARK  8 active torsions:
REMARK  status: ('A' for Active; 'I' for Inactive)
REMARK    1  A    between atoms: O_1  and  C_12 
REMARK    2  A    between atoms: O_1  and  C_13 
REMARK    3  A    between atoms: O_2  and  N_8 
REMARK    4  A    between atoms: O_2  and  C_11 
REMARK    5  A    between atoms: N_7  and  C_14 
REMARK       I    between atoms: N_7  and  C_19 
REMARK    6  A    between atoms: C_9  and  C_10 
REMARK    7  A    between atoms: C_9  and  C_11 
REMARK    8  A    between atoms: C_10  and  C_12 
ROOT
HETATM    1  C   UNK N   1      35.388  12.875  17.049  0.00  0.00     0.079 A 
HETATM    2  C   UNK N   1      35.381  11.374  19.431  0.00  0.00     0.034 A 
HETATM    3  C   UNK N   1      35.555  11.491  17.009  0.00  0.00     0.039 A 
HETATM    4  C   UNK N   1      35.211  13.508  18.293  0.00  0.00     0.039 A 
HETATM    5  C   UNK N   1      35.555  10.744  18.188  0.00  0.00     0.032 A 
HETATM    6  C   UNK N   1      35.207  12.761  19.472  0.00  0.00     0.032 A 
ENDROOT
BRANCH   1   7
HETATM    7  O   UNK N   1      35.402  13.562  15.877  0.00  0.00    -0.279 OA
BRANCH   7   8
HETATM    8  C   UNK N   1      36.492  13.905  15.139  0.00  0.00     0.264 C 
HETATM    9  O   UNK N   1      37.404  14.561  15.625  0.00  0.00    -0.265 OA
BRANCH   8  10
HETATM   10  C   UNK N   1      36.578  13.415  13.722  0.00  0.00     0.113 C 
BRANCH  10  11
HETATM   11  C   UNK N   1      35.217  13.233  13.066  0.00  0.00     0.039 C 
BRANCH  11  12
HETATM   12  C   UNK N   1      35.183  13.886  11.693  0.00  0.00     0.208 C 
BRANCH  12  13
HETATM   13  O   UNK N   1      35.059  15.255  11.817  0.00  0.00    -0.221 OA
BRANCH  13  14
HETATM   14  N   UNK N   1      35.673  16.101  11.007  0.00  0.00     0.004 N 
HETATM   15  O   UNK N   1      36.805  15.749  10.439  0.00  0.00    -0.511 OA
HETATM   16  O   UNK N   1      35.226  17.192  10.804  0.00  0.00    -0.511 OA
ENDBRANCH  13  14
ENDBRANCH  12  13
ENDBRANCH  11  12
ENDBRANCH  10  11
ENDBRANCH   8  10
ENDBRANCH   7   8
ENDBRANCH   1   7
BRANCH   2  17
HETATM   17  N   UNK N   1      35.369  10.643  20.654  0.00  0.00    -0.328 N 
HETATM   18  C   UNK N   1      36.460  10.140  21.293  0.00  0.00     0.218 C 
HETATM   19  O   UNK N   1      37.586  10.291  20.847  0.00  0.00    -0.274 OA
HETATM   20  C   UNK N   1      36.275   9.388  22.563  0.00  0.00     0.117 C 
HETATM   21  H   UNK N   1      34.492  10.488  21.074  0.00  0.00     0.169 HD
ENDBRANCH   2  17
TORSDOF 8
ENDMDL
MODEL 9
REMARK VINA RESULT:      -5.6      8.535      9.328
REMARK  8 active torsions:
REMARK  status: ('A' for Active; 'I' for Inactive)
REMARK    1  A    between atoms: O_1  and  C_12 
REMARK    2  A    between atoms: O_1  and  C_13 
REMARK    3  A    between atoms: O_2  and  N_8 
REMARK    4  A    between atoms: O_2  and  C_11 
REMARK    5  A    between atoms: N_7  and  C_14 
REMARK       I    between atoms: N_7  and  C_19 
REMARK    6  A    between atoms: C_9  and  C_10 
REMARK    7  A    between atoms: C_9  and  C_11 
REMARK    8  A    between atoms: C_10  and  C_12 
ROOT
HETATM    1  C   UNK N   1      20.110  14.936   7.098  0.00  0.00     0.079 A 
HETATM    2  C   UNK N   1      21.723  13.765   9.087  0.00  0.00     0.034 A 
HETATM    3  C   UNK N   1      20.185  15.506   8.370  0.00  0.00     0.039 A 
HETATM    4  C   UNK N   1      20.854  13.774   6.824  0.00  0.00     0.039 A 
HETATM    5  C   UNK N   1      20.982  14.926   9.358  0.00  0.00     0.032 A 
HETATM    6  C   UNK N   1      21.654  13.196   7.812  0.00  0.00     0.032 A 
ENDROOT
BRANCH   1   7
HETATM    7  O   UNK N   1      19.317  15.529   6.170  0.00  0.00    -0.279 OA
BRANCH   7   8
HETATM    8  C   UNK N   1      18.995  15.051   4.938  0.00  0.00     0.264 C 
HETATM    9  O   UNK N   1      18.048  14.292   4.781  0.00  0.00    -0.265 OA
BRANCH   8  10
HETATM   10  C   UNK N   1      19.798  15.518   3.758  0.00  0.00     0.113 C 
BRANCH  10  11
HETATM   11  C   UNK N   1      20.491  16.853   3.993  0.00  0.00     0.039 C 
BRANCH  11  12
HETATM   12  C   UNK N   1      19.861  17.950   3.150  0.00  0.00     0.208 C 
BRANCH  12  13
HETATM   13  O   UNK N   1      20.839  18.698   2.529  0.00  0.00    -0.221 OA
BRANCH  13  14
HETATM   14  N   UNK N   1      21.052  19.972   2.817  0.00  0.00     0.004 N 
HETATM   15  O   UNK N   1      20.408  20.525   3.821  0.00  0.00    -0.511 OA
HETATM   16  O   UNK N   1      21.802  20.634   2.163  0.00  0.00    -0.511 OA
ENDBRANCH  13  14
ENDBRANCH  12  13
ENDBRANCH  11  12
ENDBRANCH  10  11
ENDBRANCH   8  10
ENDBRANCH   7   8
ENDBRANCH   1   7
BRANCH   2  17
HETATM   17  N   UNK N   1      22.551  13.150  10.070  0.00  0.00    -0.328 N 
HETATM   18  C   UNK N   1      22.122  12.375  11.103  0.00  0.00     0.218 C 
HETATM   19  O   UNK N   1      20.937  12.132  11.268  0.00  0.00    -0.274 OA
HETATM   20  C   UNK N   1      23.120  11.813  12.052  0.00  0.00     0.117 C 
HETATM   21  H   UNK N   1      23.521  13.300   9.995  0.00  0.00     0.169 HD
ENDBRANCH   2  17
TORSDOF 8
ENDMDL
