MODEL 1
REMARK VINA RESULT:      -8.7      0.000      0.000
REMARK  3 active torsions:
REMARK  status: ('A' for Active; 'I' for Inactive)
REMARK    1  A    between atoms: C_4  and  C_3 
REMARK    2  A    between atoms: C_4  and  O_32 
REMARK    3  A    between atoms: C_10  and  C_22 
ROOT
HETATM    1  C   UNK N   1      26.574  21.937   6.453  0.00  0.00     0.112 C 
HETATM    2  C   UNK N   1      26.474  20.584   5.903  0.00  0.00    -0.108 C 
HETATM    3  C   UNK N   1      26.351  19.474   5.451  0.00  0.00    -0.068 C 
ENDROOT
BRANCH   3   4
HETATM    4  C   UNK N   1      26.090  18.136   4.902  0.00  0.00     0.128 C 
HETATM    5  C   UNK N   1      25.691  18.239   3.450  0.00  0.00     0.052 C 
HETATM    6  C   UNK N   1      25.789  16.811   2.942  0.00  0.00     0.010 C 
HETATM    7  C   UNK N   1      26.818  16.115   3.833  0.00  0.00     0.006 C 
HETATM    8  C   UNK N   1      27.287  17.162   4.870  0.00  0.00     0.004 C 
HETATM    9  C   UNK N   1      27.879  15.493   2.904  0.00  0.00     0.021 C 
HETATM   10  C   UNK N   1      28.608  17.804   4.409  0.00  0.00     0.027 C 
HETATM   11  C   UNK N   1      27.516  16.530   6.243  0.00  0.00     0.020 C 
HETATM   12  C   UNK N   1      29.682  16.714   4.285  0.00  0.00     0.049 C 
HETATM   13  C   UNK N   1      29.291  15.476   3.476  0.00  0.00    -0.060 C 
HETATM   14  C   UNK N   1      30.118  14.417   3.222  0.00  0.00    -0.048 C 
HETATM   15  C   UNK N   1      31.493  14.303   3.846  0.00  0.00     0.047 C 
HETATM   16  C   UNK N   1      29.674  13.315   2.298  0.00  0.00    -0.048 C 
HETATM   17  C   UNK N   1      32.495  13.635   2.911  0.00  0.00     0.087 C 
HETATM   18  C   UNK N   1      31.920  12.360   2.378  0.00  0.00     0.150 C 
HETATM   19  O   UNK N   1      32.623  11.373   2.244  0.00  0.00    -0.293 OA
HETATM   20  C   UNK N   1      30.519  12.340   1.935  0.00  0.00     0.057 C 
HETATM   21  C   UNK N   1      28.320  13.335   1.669  0.00  0.00     0.040 C 
HETATM   22  C   UNK N   1      27.347  14.113   2.521  0.00  0.00     0.014 C 
BRANCH  12  23
HETATM   23  C   UNK N   1      31.032  17.015   4.870  0.00  0.00    -0.047 A 
HETATM   24  C   UNK N   1      32.104  17.433   4.041  0.00  0.00     0.011 A 
HETATM   25  C   UNK N   1      33.365  17.717   4.600  0.00  0.00     0.040 A 
HETATM   26  C   UNK N   1      33.503  17.587   5.981  0.00  0.00     0.105 A 
HETATM   27  C   UNK N   1      32.488  17.207   6.766  0.00  0.00     0.105 A 
HETATM   28  O   UNK N   1      34.582  17.804   6.729  0.00  0.00    -0.323 OA
HETATM   29  C   UNK N   1      31.226  16.907   6.263  0.00  0.00     0.047 A 
HETATM   30  O   UNK N   1      32.902  17.178   8.033  0.00  0.00    -0.323 OA
HETATM   31  C   UNK N   1      34.249  17.555   8.066  0.00  0.00     0.352 A 
ENDBRANCH  12  23
BRANCH   4  32
HETATM   32  O   UNK N   1      25.017  17.569   5.604  0.00  0.00    -0.377 OA
HETATM   33  H   UNK N   1      24.660  17.254   6.449  0.00  0.00     0.211 HD
ENDBRANCH   4  32
ENDBRANCH   3   4
TORSDOF 3
ENDMDL
MODEL 2
REMARK VINA RESULT:      -8.6     11.822     13.300
REMARK  3 active torsions:
REMARK  status: ('A' for Active; 'I' for Inactive)
REMARK    1  A    between atoms: C_4  and  C_3 
REMARK    2  A    between atoms: C_4  and  O_32 
REMARK    3  A    between atoms: C_10  and  C_22 
ROOT
HETATM    1  C   UNK N   1      29.896  30.094  -0.689  0.00  0.00     0.112 C 
HETATM    2  C   UNK N   1      28.912  29.656  -1.679  0.00  0.00    -0.108 C 
HETATM    3  C   UNK N   1      28.129  29.302  -2.525  0.00  0.00    -0.068 C 
ENDROOT
BRANCH   3   4
HETATM    4  C   UNK N   1      27.257  28.883  -3.631  0.00  0.00     0.128 C 
HETATM    5  C   UNK N   1      27.638  29.611  -4.897  0.00  0.00     0.052 C 
HETATM    6  C   UNK N   1      26.908  28.849  -5.989  0.00  0.00     0.010 C 
HETATM    7  C   UNK N   1      26.721  27.427  -5.460  0.00  0.00     0.006 C 
HETATM    8  C   UNK N   1      27.334  27.397  -4.042  0.00  0.00     0.004 C 
HETATM    9  C   UNK N   1      27.301  26.466  -6.518  0.00  0.00     0.021 C 
HETATM   10  C   UNK N   1      28.766  26.835  -4.098  0.00  0.00     0.027 C 
HETATM   11  C   UNK N   1      26.514  26.524  -3.092  0.00  0.00     0.020 C 
HETATM   12  C   UNK N   1      28.723  25.402  -4.650  0.00  0.00     0.049 C 
HETATM   13  C   UNK N   1      27.938  25.206  -5.948  0.00  0.00    -0.060 C 
HETATM   14  C   UNK N   1      27.815  24.018  -6.612  0.00  0.00    -0.048 C 
HETATM   15  C   UNK N   1      28.344  22.718  -6.042  0.00  0.00     0.047 C 
HETATM   16  C   UNK N   1      27.136  23.968  -7.954  0.00  0.00    -0.048 C 
HETATM   17  C   UNK N   1      28.858  21.780  -7.128  0.00  0.00     0.087 C 
HETATM   18  C   UNK N   1      27.829  21.640  -8.206  0.00  0.00     0.150 C 
HETATM   19  O   UNK N   1      27.632  20.560  -8.737  0.00  0.00    -0.293 OA
HETATM   20  C   UNK N   1      27.122  22.840  -8.677  0.00  0.00     0.057 C 
HETATM   21  C   UNK N   1      26.557  25.199  -8.571  0.00  0.00     0.040 C 
HETATM   22  C   UNK N   1      26.168  26.197  -7.507  0.00  0.00     0.014 C 
BRANCH  12  23
HETATM   23  C   UNK N   1      29.537  24.367  -3.927  0.00  0.00    -0.047 A 
HETATM   24  C   UNK N   1      29.049  23.761  -2.741  0.00  0.00     0.011 A 
HETATM   25  C   UNK N   1      29.818  22.789  -2.072  0.00  0.00     0.040 A 
HETATM   26  C   UNK N   1      31.049  22.444  -2.629  0.00  0.00     0.105 A 
HETATM   27  C   UNK N   1      31.503  23.004  -3.756  0.00  0.00     0.105 A 
HETATM   28  O   UNK N   1      31.938  21.558  -2.188  0.00  0.00    -0.323 OA
HETATM   29  C   UNK N   1      30.786  23.975  -4.450  0.00  0.00     0.047 A 
HETATM   30  O   UNK N   1      32.692  22.481  -4.056  0.00  0.00    -0.323 OA
HETATM   31  C   UNK N   1      33.021  21.540  -3.074  0.00  0.00     0.352 A 
ENDBRANCH  12  23
BRANCH   4  32
HETATM   32  O   UNK N   1      25.937  29.235  -3.312  0.00  0.00    -0.377 OA
HETATM   33  H   UNK N   1      25.001  29.238  -3.567  0.00  0.00     0.211 HD
ENDBRANCH   4  32
ENDBRANCH   3   4
TORSDOF 3
ENDMDL
MODEL 3
REMARK VINA RESULT:      -8.5     12.358     13.936
REMARK  3 active torsions:
REMARK  status: ('A' for Active; 'I' for Inactive)
REMARK    1  A    between atoms: C_4  and  C_3 
REMARK    2  A    between atoms: C_4  and  O_32 
REMARK    3  A    between atoms: C_10  and  C_22 
ROOT
HETATM    1  C   UNK N   1      24.387  26.335 -10.890  0.00  0.00     0.112 C 
HETATM    2  C   UNK N   1      24.906  25.055 -10.405  0.00  0.00    -0.108 C 
HETATM    3  C   UNK N   1      25.371  24.012 -10.019  0.00  0.00    -0.068 C 
ENDROOT
BRANCH   3   4
HETATM    4  C   UNK N   1      26.037  22.778  -9.582  0.00  0.00     0.128 C 
HETATM    5  C   UNK N   1      27.193  22.459 -10.499  0.00  0.00     0.052 C 
HETATM    6  C   UNK N   1      27.971  21.392  -9.748  0.00  0.00     0.010 C 
HETATM    7  C   UNK N   1      27.671  21.614  -8.265  0.00  0.00     0.006 C 
HETATM    8  C   UNK N   1      26.694  22.809  -8.185  0.00  0.00     0.004 C 
HETATM    9  C   UNK N   1      29.026  21.739  -7.540  0.00  0.00     0.021 C 
HETATM   10  C   UNK N   1      27.469  24.105  -7.884  0.00  0.00     0.027 C 
HETATM   11  C   UNK N   1      25.651  22.610  -7.085  0.00  0.00     0.020 C 
HETATM   12  C   UNK N   1      28.188  23.960  -6.534  0.00  0.00     0.049 C 
HETATM   13  C   UNK N   1      29.023  22.692  -6.352  0.00  0.00    -0.060 C 
HETATM   14  C   UNK N   1      29.764  22.400  -5.240  0.00  0.00    -0.048 C 
HETATM   15  C   UNK N   1      29.720  23.260  -3.995  0.00  0.00     0.047 C 
HETATM   16  C   UNK N   1      30.658  21.190  -5.224  0.00  0.00    -0.048 C 
HETATM   17  C   UNK N   1      31.067  23.312  -3.283  0.00  0.00     0.087 C 
HETATM   18  C   UNK N   1      31.592  21.924  -3.090  0.00  0.00     0.150 C 
HETATM   19  O   UNK N   1      32.163  21.617  -2.058  0.00  0.00    -0.293 OA
HETATM   20  C   UNK N   1      31.488  20.961  -4.196  0.00  0.00     0.057 C 
HETATM   21  C   UNK N   1      30.733  20.271  -6.398  0.00  0.00     0.040 C 
HETATM   22  C   UNK N   1      29.450  20.313  -7.192  0.00  0.00     0.014 C 
BRANCH  12  23
HETATM   23  C   UNK N   1      28.088  25.115  -5.580  0.00  0.00    -0.047 A 
HETATM   24  C   UNK N   1      27.017  25.199  -4.654  0.00  0.00     0.011 A 
HETATM   25  C   UNK N   1      26.934  26.285  -3.760  0.00  0.00     0.040 A 
HETATM   26  C   UNK N   1      27.944  27.245  -3.816  0.00  0.00     0.105 A 
HETATM   27  C   UNK N   1      28.962  27.159  -4.679  0.00  0.00     0.105 A 
HETATM   28  O   UNK N   1      28.083  28.343  -3.078  0.00  0.00    -0.323 OA
HETATM   29  C   UNK N   1      29.085  26.112  -5.588  0.00  0.00     0.047 A 
HETATM   30  O   UNK N   1      29.773  28.202  -4.503  0.00  0.00    -0.323 OA
HETATM   31  C   UNK N   1      29.251  29.000  -3.479  0.00  0.00     0.352 A 
ENDBRANCH  12  23
BRANCH   4  32
HETATM   32  O   UNK N   1      25.118  21.723  -9.666  0.00  0.00    -0.377 OA
HETATM   33  H   UNK N   1      24.962  20.766  -9.705  0.00  0.00     0.211 HD
ENDBRANCH   4  32
ENDBRANCH   3   4
TORSDOF 3
ENDMDL
MODEL 4
REMARK VINA RESULT:      -8.1      2.403      5.906
REMARK  3 active torsions:
REMARK  status: ('A' for Active; 'I' for Inactive)
REMARK    1  A    between atoms: C_4  and  C_3 
REMARK    2  A    between atoms: C_4  and  O_32 
REMARK    3  A    between atoms: C_10  and  C_22 
ROOT
HETATM    1  C   UNK N   1      27.041  11.730   1.615  0.00  0.00     0.112 C 
HETATM    2  C   UNK N   1      27.104  12.826   2.583  0.00  0.00    -0.108 C 
HETATM    3  C   UNK N   1      27.159  13.756   3.349  0.00  0.00    -0.068 C 
ENDROOT
BRANCH   3   4
HETATM    4  C   UNK N   1      27.231  14.956   4.193  0.00  0.00     0.128 C 
HETATM    5  C   UNK N   1      26.721  14.647   5.579  0.00  0.00     0.052 C 
HETATM    6  C   UNK N   1      27.165  15.841   6.406  0.00  0.00     0.010 C 
HETATM    7  C   UNK N   1      28.403  16.403   5.706  0.00  0.00     0.006 C 
HETATM    8  C   UNK N   1      28.642  15.526   4.456  0.00  0.00     0.004 C 
HETATM    9  C   UNK N   1      29.526  16.483   6.759  0.00  0.00     0.021 C 
HETATM   10  C   UNK N   1      29.706  14.455   4.760  0.00  0.00     0.027 C 
HETATM   11  C   UNK N   1      29.126  16.358   3.268  0.00  0.00     0.020 C 
HETATM   12  C   UNK N   1      31.023  15.148   5.139  0.00  0.00     0.049 C 
HETATM   13  C   UNK N   1      30.926  16.233   6.212  0.00  0.00    -0.060 C 
HETATM   14  C   UNK N   1      31.989  16.935   6.709  0.00  0.00    -0.048 C 
HETATM   15  C   UNK N   1      33.383  16.799   6.134  0.00  0.00     0.047 C 
HETATM   16  C   UNK N   1      31.796  17.883   7.862  0.00  0.00    -0.048 C 
HETATM   17  C   UNK N   1      34.461  16.936   7.203  0.00  0.00     0.087 C 
HETATM   18  C   UNK N   1      34.217  18.168   8.016  0.00  0.00     0.150 C 
HETATM   19  O   UNK N   1      35.149  18.865   8.379  0.00  0.00    -0.293 OA
HETATM   20  C   UNK N   1      32.845  18.478   8.446  0.00  0.00     0.057 C 
HETATM   21  C   UNK N   1      30.447  18.101   8.464  0.00  0.00     0.040 C 
HETATM   22  C   UNK N   1      29.361  17.835   7.450  0.00  0.00     0.014 C 
BRANCH  12  23
HETATM   23  C   UNK N   1      32.279  14.621   4.505  0.00  0.00    -0.047 A 
HETATM   24  C   UNK N   1      33.070  13.647   5.166  0.00  0.00     0.011 A 
HETATM   25  C   UNK N   1      34.244  13.157   4.560  0.00  0.00     0.040 A 
HETATM   26  C   UNK N   1      34.575  13.650   3.300  0.00  0.00     0.105 A 
HETATM   27  C   UNK N   1      33.821  14.558   2.669  0.00  0.00     0.105 A 
HETATM   28  O   UNK N   1      35.618  13.336   2.536  0.00  0.00    -0.323 OA
HETATM   29  C   UNK N   1      32.658  15.080   3.226  0.00  0.00     0.047 A 
HETATM   30  O   UNK N   1      34.370  14.837   1.487  0.00  0.00    -0.323 OA
HETATM   31  C   UNK N   1      35.535  14.074   1.350  0.00  0.00     0.352 A 
ENDBRANCH  12  23
BRANCH   4  32
HETATM   32  O   UNK N   1      26.402  15.940   3.637  0.00  0.00    -0.377 OA
HETATM   33  H   UNK N   1      25.915  16.770   3.756  0.00  0.00     0.211 HD
ENDBRANCH   4  32
ENDBRANCH   3   4
TORSDOF 3
ENDMDL
MODEL 5
REMARK VINA RESULT:      -8.0      4.413      7.466
REMARK  3 active torsions:
REMARK  status: ('A' for Active; 'I' for Inactive)
REMARK    1  A    between atoms: C_4  and  C_3 
REMARK    2  A    between atoms: C_4  and  O_32 
REMARK    3  A    between atoms: C_10  and  C_22 
ROOT
HETATM    1  C   UNK N   1      23.304  11.168   9.850  0.00  0.00     0.112 C 
HETATM    2  C   UNK N   1      22.630  12.000   8.852  0.00  0.00    -0.108 C 
HETATM    3  C   UNK N   1      22.070  12.715   8.060  0.00  0.00    -0.068 C 
ENDROOT
BRANCH   3   4
HETATM    4  C   UNK N   1      21.377  13.661   7.175  0.00  0.00     0.128 C 
HETATM    5  C   UNK N   1      20.670  14.714   7.993  0.00  0.00     0.052 C 
HETATM    6  C   UNK N   1      20.303  15.781   6.977  0.00  0.00     0.010 C 
HETATM    7  C   UNK N   1      21.327  15.659   5.847  0.00  0.00     0.006 C 
HETATM    8  C   UNK N   1      22.267  14.492   6.226  0.00  0.00     0.004 C 
HETATM    9  C   UNK N   1      21.952  17.054   5.645  0.00  0.00     0.021 C 
HETATM   10  C   UNK N   1      23.547  15.039   6.883  0.00  0.00     0.027 C 
HETATM   11  C   UNK N   1      22.671  13.674   4.999  0.00  0.00     0.020 C 
HETATM   12  C   UNK N   1      24.272  15.956   5.887  0.00  0.00     0.049 C 
HETATM   13  C   UNK N   1      23.416  17.037   5.226  0.00  0.00    -0.060 C 
HETATM   14  C   UNK N   1      23.884  17.971   4.344  0.00  0.00    -0.048 C 
HETATM   15  C   UNK N   1      25.304  17.940   3.817  0.00  0.00     0.047 C 
HETATM   16  C   UNK N   1      22.982  19.074   3.860  0.00  0.00    -0.048 C 
HETATM   17  C   UNK N   1      25.861  19.339   3.584  0.00  0.00     0.087 C 
HETATM   18  C   UNK N   1      24.891  20.144   2.776  0.00  0.00     0.150 C 
HETATM   19  O   UNK N   1      25.289  20.904   1.910  0.00  0.00    -0.293 OA
HETATM   20  C   UNK N   1      23.459  20.070   3.101  0.00  0.00     0.057 C 
HETATM   21  C   UNK N   1      21.559  19.156   4.304  0.00  0.00     0.040 C 
HETATM   22  C   UNK N   1      21.034  17.789   4.670  0.00  0.00     0.014 C 
BRANCH  12  23
HETATM   23  C   UNK N   1      25.756  15.773   5.745  0.00  0.00    -0.047 A 
HETATM   24  C   UNK N   1      26.285  14.843   4.814  0.00  0.00     0.011 A 
HETATM   25  C   UNK N   1      27.678  14.682   4.685  0.00  0.00     0.040 A 
HETATM   26  C   UNK N   1      28.497  15.475   5.488  0.00  0.00     0.105 A 
HETATM   27  C   UNK N   1      27.999  16.363   6.356  0.00  0.00     0.105 A 
HETATM   28  O   UNK N   1      29.826  15.506   5.539  0.00  0.00    -0.323 OA
HETATM   29  C   UNK N   1      26.631  16.555   6.528  0.00  0.00     0.047 A 
HETATM   30  O   UNK N   1      29.005  16.980   6.976  0.00  0.00    -0.323 OA
HETATM   31  C   UNK N   1      30.209  16.463   6.485  0.00  0.00     0.352 A 
ENDBRANCH  12  23
BRANCH   4  32
HETATM   32  O   UNK N   1      20.407  12.959   6.446  0.00  0.00    -0.377 OA
HETATM   33  H   UNK N   1      19.850  12.169   6.363  0.00  0.00     0.211 HD
ENDBRANCH   4  32
ENDBRANCH   3   4
TORSDOF 3
ENDMDL
MODEL 6
REMARK VINA RESULT:      -7.9      2.368      6.792
REMARK  3 active torsions:
REMARK  status: ('A' for Active; 'I' for Inactive)
REMARK    1  A    between atoms: C_4  and  C_3 
REMARK    2  A    between atoms: C_4  and  O_32 
REMARK    3  A    between atoms: C_10  and  C_22 
ROOT
HETATM    1  C   UNK N   1      37.068  11.854   3.953  0.00  0.00     0.112 C 
HETATM    2  C   UNK N   1      35.746  12.297   3.508  0.00  0.00    -0.108 C 
HETATM    3  C   UNK N   1      34.654  12.685   3.176  0.00  0.00    -0.068 C 
ENDROOT
BRANCH   3   4
HETATM    4  C   UNK N   1      33.323  13.223   2.862  0.00  0.00     0.128 C 
HETATM    5  C   UNK N   1      32.274  12.156   3.057  0.00  0.00     0.052 C 
HETATM    6  C   UNK N   1      30.964  12.925   3.035  0.00  0.00     0.010 C 
HETATM    7  C   UNK N   1      31.299  14.345   3.492  0.00  0.00     0.006 C 
HETATM    8  C   UNK N   1      32.822  14.379   3.754  0.00  0.00     0.004 C 
HETATM    9  C   UNK N   1      30.357  14.680   4.666  0.00  0.00     0.021 C 
HETATM   10  C   UNK N   1      33.103  14.182   5.255  0.00  0.00     0.027 C 
HETATM   11  C   UNK N   1      33.438  15.710   3.322  0.00  0.00     0.020 C 
HETATM   12  C   UNK N   1      32.439  15.319   6.045  0.00  0.00     0.049 C 
HETATM   13  C   UNK N   1      30.966  15.584   5.729  0.00  0.00    -0.060 C 
HETATM   14  C   UNK N   1      30.193  16.525   6.351  0.00  0.00    -0.048 C 
HETATM   15  C   UNK N   1      30.770  17.514   7.342  0.00  0.00     0.047 C 
HETATM   16  C   UNK N   1      28.719  16.606   6.058  0.00  0.00    -0.048 C 
HETATM   17  C   UNK N   1      29.785  17.855   8.454  0.00  0.00     0.087 C 
HETATM   18  C   UNK N   1      28.463  18.232   7.863  0.00  0.00     0.150 C 
HETATM   19  O   UNK N   1      27.808  19.141   8.342  0.00  0.00    -0.293 OA
HETATM   20  C   UNK N   1      27.925  17.432   6.753  0.00  0.00     0.057 C 
HETATM   21  C   UNK N   1      28.078  15.691   5.069  0.00  0.00     0.040 C 
HETATM   22  C   UNK N   1      29.080  15.235   4.036  0.00  0.00     0.014 C 
BRANCH  12  23
HETATM   23  C   UNK N   1      33.262  15.979   7.114  0.00  0.00    -0.047 A 
HETATM   24  C   UNK N   1      33.796  17.278   6.919  0.00  0.00     0.011 A 
HETATM   25  C   UNK N   1      34.562  17.890   7.930  0.00  0.00     0.040 A 
HETATM   26  C   UNK N   1      34.754  17.180   9.114  0.00  0.00     0.105 A 
HETATM   27  C   UNK N   1      34.238  15.960   9.305  0.00  0.00     0.105 A 
HETATM   28  O   UNK N   1      35.428  17.549  10.200  0.00  0.00    -0.323 OA
HETATM   29  C   UNK N   1      33.481  15.309   8.336  0.00  0.00     0.047 A 
HETATM   30  O   UNK N   1      34.572  15.530  10.522  0.00  0.00    -0.323 OA
HETATM   31  C   UNK N   1      35.342  16.519  11.144  0.00  0.00     0.352 A 
ENDBRANCH  12  23
BRANCH   4  32
HETATM   32  O   UNK N   1      33.305  13.603   1.513  0.00  0.00    -0.377 OA
HETATM   33  H   UNK N   1      33.522  14.268   0.841  0.00  0.00     0.211 HD
ENDBRANCH   4  32
ENDBRANCH   3   4
TORSDOF 3
ENDMDL
MODEL 7
REMARK VINA RESULT:      -7.6      1.701      6.114
REMARK  3 active torsions:
REMARK  status: ('A' for Active; 'I' for Inactive)
REMARK    1  A    between atoms: C_4  and  C_3 
REMARK    2  A    between atoms: C_4  and  O_32 
REMARK    3  A    between atoms: C_10  and  C_22 
ROOT
HETATM    1  C   UNK N   1      31.391  10.456   4.117  0.00  0.00     0.112 C 
HETATM    2  C   UNK N   1      30.523  11.513   3.597  0.00  0.00    -0.108 C 
HETATM    3  C   UNK N   1      29.775  12.358   3.174  0.00  0.00    -0.068 C 
ENDROOT
BRANCH   3   4
HETATM    4  C   UNK N   1      28.780  13.317   2.676  0.00  0.00     0.128 C 
HETATM    5  C   UNK N   1      27.388  12.852   3.029  0.00  0.00     0.052 C 
HETATM    6  C   UNK N   1      26.519  14.069   2.768  0.00  0.00     0.010 C 
HETATM    7  C   UNK N   1      27.431  15.285   2.936  0.00  0.00     0.006 C 
HETATM    8  C   UNK N   1      28.838  14.740   3.274  0.00  0.00     0.004 C 
HETATM    9  C   UNK N   1      26.757  16.225   3.955  0.00  0.00     0.021 C 
HETATM   10  C   UNK N   1      29.063  14.773   4.796  0.00  0.00     0.027 C 
HETATM   11  C   UNK N   1      29.937  15.568   2.609  0.00  0.00     0.020 C 
HETATM   12  C   UNK N   1      28.963  16.224   5.289  0.00  0.00     0.049 C 
HETATM   13  C   UNK N   1      27.725  17.000   4.838  0.00  0.00    -0.060 C 
HETATM   14  C   UNK N   1      27.437  18.287   5.202  0.00  0.00    -0.048 C 
HETATM   15  C   UNK N   1      28.408  19.136   5.995  0.00  0.00     0.047 C 
HETATM   16  C   UNK N   1      26.122  18.906   4.812  0.00  0.00    -0.048 C 
HETATM   17  C   UNK N   1      27.694  20.085   6.950  0.00  0.00     0.087 C 
HETATM   18  C   UNK N   1      26.630  20.839   6.217  0.00  0.00     0.150 C 
HETATM   19  O   UNK N   1      26.431  22.018   6.454  0.00  0.00    -0.293 OA
HETATM   20  C   UNK N   1      25.769  20.116   5.269  0.00  0.00     0.057 C 
HETATM   21  C   UNK N   1      25.123  18.149   4.001  0.00  0.00     0.040 C 
HETATM   22  C   UNK N   1      25.807  17.108   3.148  0.00  0.00     0.014 C 
BRANCH  12  23
HETATM   23  C   UNK N   1      30.022  16.696   6.242  0.00  0.00    -0.047 A 
HETATM   24  C   UNK N   1      29.751  16.804   7.631  0.00  0.00     0.011 A 
HETATM   25  C   UNK N   1      30.753  17.244   8.517  0.00  0.00     0.040 A 
HETATM   26  C   UNK N   1      32.003  17.547   7.980  0.00  0.00     0.105 A 
HETATM   27  C   UNK N   1      32.264  17.431   6.673  0.00  0.00     0.105 A 
HETATM   28  O   UNK N   1      33.095  17.970   8.612  0.00  0.00    -0.323 OA
HETATM   29  C   UNK N   1      31.308  17.009   5.754  0.00  0.00     0.047 A 
HETATM   30  O   UNK N   1      33.532  17.776   6.448  0.00  0.00    -0.323 OA
HETATM   31  C   UNK N   1      34.116  18.134   7.668  0.00  0.00     0.352 A 
ENDBRANCH  12  23
BRANCH   4  32
HETATM   32  O   UNK N   1      28.875  13.370   1.278  0.00  0.00    -0.377 OA
HETATM   33  H   UNK N   1      28.841  13.905   0.470  0.00  0.00     0.211 HD
ENDBRANCH   4  32
ENDBRANCH   3   4
TORSDOF 3
ENDMDL
MODEL 8
REMARK VINA RESULT:      -7.3     12.476     15.725
REMARK  3 active torsions:
REMARK  status: ('A' for Active; 'I' for Inactive)
REMARK    1  A    between atoms: C_4  and  C_3 
REMARK    2  A    between atoms: C_4  and  O_32 
REMARK    3  A    between atoms: C_10  and  C_22 
ROOT
HETATM    1  C   UNK N   1      37.432  15.829  16.194  0.00  0.00     0.112 C 
HETATM    2  C   UNK N   1      36.871  14.708  15.437  0.00  0.00    -0.108 C 
HETATM    3  C   UNK N   1      36.449  13.774  14.803  0.00  0.00    -0.068 C 
ENDROOT
BRANCH   3   4
HETATM    4  C   UNK N   1      36.039  12.608  14.008  0.00  0.00     0.128 C 
HETATM    5  C   UNK N   1      37.192  12.125  13.163  0.00  0.00     0.052 C 
HETATM    6  C   UNK N   1      36.742  10.758  12.679  0.00  0.00     0.010 C 
HETATM    7  C   UNK N   1      35.752  10.243  13.725  0.00  0.00     0.006 C 
HETATM    8  C   UNK N   1      35.629  11.347  14.800  0.00  0.00     0.004 C 
HETATM    9  C   UNK N   1      36.243   8.852  14.172  0.00  0.00     0.021 C 
HETATM   10  C   UNK N   1      36.549  11.027  15.992  0.00  0.00     0.027 C 
HETATM   11  C   UNK N   1      34.197  11.469  15.320  0.00  0.00     0.020 C 
HETATM   12  C   UNK N   1      36.126   9.686  16.608  0.00  0.00     0.049 C 
HETATM   13  C   UNK N   1      35.964   8.520  15.632  0.00  0.00    -0.060 C 
HETATM   14  C   UNK N   1      35.631   7.243  15.991  0.00  0.00    -0.048 C 
HETATM   15  C   UNK N   1      35.247   6.880  17.410  0.00  0.00     0.047 C 
HETATM   16  C   UNK N   1      35.634   6.144  14.963  0.00  0.00    -0.048 C 
HETATM   17  C   UNK N   1      35.708   5.477  17.789  0.00  0.00     0.087 C 
HETATM   18  C   UNK N   1      35.283   4.502  16.736  0.00  0.00     0.150 C 
HETATM   19  O   UNK N   1      34.882   3.393  17.046  0.00  0.00    -0.293 OA
HETATM   20  C   UNK N   1      35.439   4.867  15.321  0.00  0.00     0.057 C 
HETATM   21  C   UNK N   1      35.968   6.424  13.535  0.00  0.00     0.040 C 
HETATM   22  C   UNK N   1      35.643   7.855  13.182  0.00  0.00     0.014 C 
BRANCH  12  23
HETATM   23  C   UNK N   1      36.020   9.625  18.105  0.00  0.00    -0.047 A 
HETATM   24  C   UNK N   1      37.161   9.348  18.901  0.00  0.00     0.011 A 
HETATM   25  C   UNK N   1      37.053   9.298  20.304  0.00  0.00     0.040 A 
HETATM   26  C   UNK N   1      35.800   9.545  20.864  0.00  0.00     0.105 A 
HETATM   27  C   UNK N   1      34.726   9.822  20.115  0.00  0.00     0.105 A 
HETATM   28  O   UNK N   1      35.457   9.559  22.150  0.00  0.00    -0.323 OA
HETATM   29  C   UNK N   1      34.779   9.875  18.726  0.00  0.00     0.047 A 
HETATM   30  O   UNK N   1      33.677  10.021  20.913  0.00  0.00    -0.323 OA
HETATM   31  C   UNK N   1      34.094   9.864  22.239  0.00  0.00     0.352 A 
ENDBRANCH  12  23
BRANCH   4  32
HETATM   32  O   UNK N   1      35.007  13.000  13.145  0.00  0.00    -0.377 OA
HETATM   33  H   UNK N   1      34.439  12.786  12.389  0.00  0.00     0.211 HD
ENDBRANCH   4  32
ENDBRANCH   3   4
TORSDOF 3
ENDMDL
MODEL 9
REMARK VINA RESULT:      -7.3     10.847     15.501
REMARK  3 active torsions:
REMARK  status: ('A' for Active; 'I' for Inactive)
REMARK    1  A    between atoms: C_4  and  C_3 
REMARK    2  A    between atoms: C_4  and  O_32 
REMARK    3  A    between atoms: C_10  and  C_22 
ROOT
HETATM    1  C   UNK N   1      38.660   7.498   9.977  0.00  0.00     0.112 C 
HETATM    2  C   UNK N   1      38.097   7.441  11.326  0.00  0.00    -0.108 C 
HETATM    3  C   UNK N   1      37.648   7.356  12.442  0.00  0.00    -0.068 C 
ENDROOT
BRANCH   3   4
HETATM    4  C   UNK N   1      37.149   7.152  13.809  0.00  0.00     0.128 C 
HETATM    5  C   UNK N   1      38.293   6.817  14.734  0.00  0.00     0.052 C 
HETATM    6  C   UNK N   1      37.697   6.972  16.123  0.00  0.00     0.010 C 
HETATM    7  C   UNK N   1      36.552   7.975  15.982  0.00  0.00     0.006 C 
HETATM    8  C   UNK N   1      36.491   8.372  14.489  0.00  0.00     0.004 C 
HETATM    9  C   UNK N   1      36.793   9.092  17.016  0.00  0.00     0.021 C 
HETATM   10  C   UNK N   1      37.242   9.697  14.265  0.00  0.00     0.027 C 
HETATM   11  C   UNK N   1      35.050   8.552  14.012  0.00  0.00     0.020 C 
HETATM   12  C   UNK N   1      36.575  10.801  15.098  0.00  0.00     0.049 C 
HETATM   13  C   UNK N   1      36.336  10.476  16.574  0.00  0.00    -0.060 C 
HETATM   14  C   UNK N   1      35.791  11.339  17.484  0.00  0.00    -0.048 C 
HETATM   15  C   UNK N   1      35.230  12.686  17.079  0.00  0.00     0.047 C 
HETATM   16  C   UNK N   1      35.730  10.963  18.940  0.00  0.00    -0.048 C 
HETATM   17  C   UNK N   1      35.447  13.745  18.154  0.00  0.00     0.087 C 
HETATM   18  C   UNK N   1      34.984  13.225  19.479  0.00  0.00     0.150 C 
HETATM   19  O   UNK N   1      34.401  13.956  20.261  0.00  0.00    -0.293 OA
HETATM   20  C   UNK N   1      35.321  11.846  19.861  0.00  0.00     0.057 C 
HETATM   21  C   UNK N   1      36.230   9.639  19.416  0.00  0.00     0.040 C 
HETATM   22  C   UNK N   1      36.149   8.610  18.315  0.00  0.00     0.014 C 
BRANCH  12  23
HETATM   23  C   UNK N   1      36.324  12.115  14.416  0.00  0.00    -0.047 A 
HETATM   24  C   UNK N   1      37.009  13.287  14.828  0.00  0.00     0.011 A 
HETATM   25  C   UNK N   1      36.771  14.514  14.179  0.00  0.00     0.040 A 
HETATM   26  C   UNK N   1      35.861  14.519  13.122  0.00  0.00     0.105 A 
HETATM   27  C   UNK N   1      35.226  13.411  12.723  0.00  0.00     0.105 A 
HETATM   28  O   UNK N   1      35.482  15.543  12.362  0.00  0.00    -0.323 OA
HETATM   29  C   UNK N   1      35.420  12.177  13.336  0.00  0.00     0.047 A 
HETATM   30  O   UNK N   1      34.431  13.709  11.695  0.00  0.00    -0.323 OA
HETATM   31  C   UNK N   1      34.558  15.075  11.420  0.00  0.00     0.352 A 
ENDBRANCH  12  23
BRANCH   4  32
HETATM   32  O   UNK N   1      36.268   6.062  13.801  0.00  0.00    -0.377 OA
HETATM   33  H   UNK N   1      36.030   5.197  13.432  0.00  0.00     0.211 HD
ENDBRANCH   4  32
ENDBRANCH   3   4
TORSDOF 3
ENDMDL
