MODEL 1
REMARK VINA RESULT:      -3.0      0.000      0.000
REMARK  30 active torsions:
REMARK  status: ('A' for Active; 'I' for Inactive)
REMARK    1  A    between atoms: O_2  and  C_50 
REMARK    2  A    between atoms: O_3  and  C_51 
REMARK    3  A    between atoms: O_4  and  C_58 
REMARK    4  A    between atoms: O_4  and  C_60 
REMARK    5  A    between atoms: O_5  and  C_59 
REMARK    6  A    between atoms: O_5  and  C_61 
REMARK    7  A    between atoms: O_6  and  C_62 
REMARK    8  A    between atoms: O_6  and  C_64 
REMARK    9  A    between atoms: O_7  and  C_63 
REMARK   10  A    between atoms: O_7  and  C_65 
REMARK   11  A    between atoms: O_8  and  C_66 
REMARK   12  A    between atoms: O_8  and  C_68 
REMARK   13  A    between atoms: O_9  and  C_67 
REMARK   14  A    between atoms: O_9  and  C_69 
REMARK   15  A    between atoms: O_10  and  C_70 
REMARK   16  A    between atoms: O_11  and  C_71 
REMARK   17  A    between atoms: C_26  and  C_32 
REMARK   18  A    between atoms: C_27  and  C_33 
REMARK   19  A    between atoms: C_30  and  C_38 
REMARK   20  A    between atoms: C_31  and  C_39 
REMARK   21  A    between atoms: C_38  and  C_42 
REMARK   22  A    between atoms: C_39  and  C_43 
REMARK   23  A    between atoms: C_42  and  C_50 
REMARK   24  A    between atoms: C_43  and  C_51 
REMARK   25  A    between atoms: C_60  and  C_62 
REMARK   26  A    between atoms: C_61  and  C_63 
REMARK   27  A    between atoms: C_64  and  C_66 
REMARK   28  A    between atoms: C_65  and  C_67 
REMARK   29  A    between atoms: C_68  and  C_70 
REMARK   30  A    between atoms: C_69  and  C_71 
ROOT
HETATM    1  O   UNK N   1      34.556  17.809   6.620  0.00  0.00    -0.648 OA
HETATM    2  O   UNK N   1      35.007  19.077   8.389  0.00  0.00    -0.648 OA
HETATM    3  C   UNK N   1      32.983  17.893   8.504  0.00  0.00     0.129 C 
HETATM    4  C   UNK N   1      34.249  18.300   7.835  0.00  0.00     0.168 C 
ENDROOT
TORSDOF 30
ENDMDL
MODEL 2
REMARK VINA RESULT:      -2.7     12.776     13.170
REMARK  30 active torsions:
REMARK  status: ('A' for Active; 'I' for Inactive)
REMARK    1  A    between atoms: O_2  and  C_50 
REMARK    2  A    between atoms: O_3  and  C_51 
REMARK    3  A    between atoms: O_4  and  C_58 
REMARK    4  A    between atoms: O_4  and  C_60 
REMARK    5  A    between atoms: O_5  and  C_59 
REMARK    6  A    between atoms: O_5  and  C_61 
REMARK    7  A    between atoms: O_6  and  C_62 
REMARK    8  A    between atoms: O_6  and  C_64 
REMARK    9  A    between atoms: O_7  and  C_63 
REMARK   10  A    between atoms: O_7  and  C_65 
REMARK   11  A    between atoms: O_8  and  C_66 
REMARK   12  A    between atoms: O_8  and  C_68 
REMARK   13  A    between atoms: O_9  and  C_67 
REMARK   14  A    between atoms: O_9  and  C_69 
REMARK   15  A    between atoms: O_10  and  C_70 
REMARK   16  A    between atoms: O_11  and  C_71 
REMARK   17  A    between atoms: C_26  and  C_32 
REMARK   18  A    between atoms: C_27  and  C_33 
REMARK   19  A    between atoms: C_30  and  C_38 
REMARK   20  A    between atoms: C_31  and  C_39 
REMARK   21  A    between atoms: C_38  and  C_42 
REMARK   22  A    between atoms: C_39  and  C_43 
REMARK   23  A    between atoms: C_42  and  C_50 
REMARK   24  A    between atoms: C_43  and  C_51 
REMARK   25  A    between atoms: C_60  and  C_62 
REMARK   26  A    between atoms: C_61  and  C_63 
REMARK   27  A    between atoms: C_64  and  C_66 
REMARK   28  A    between atoms: C_65  and  C_67 
REMARK   29  A    between atoms: C_68  and  C_70 
REMARK   30  A    between atoms: C_69  and  C_71 
ROOT
HETATM    1  O   UNK N   1      24.767  11.964  11.708  0.00  0.00    -0.648 OA
HETATM    2  O   UNK N   1      23.536  12.062  13.554  0.00  0.00    -0.648 OA
HETATM    3  C   UNK N   1      22.319  12.060  11.546  0.00  0.00     0.129 C 
HETATM    4  C   UNK N   1      23.579  12.029  12.337  0.00  0.00     0.168 C 
ENDROOT
TORSDOF 30
ENDMDL
MODEL 3
REMARK VINA RESULT:      -2.7     11.384     11.760
REMARK  30 active torsions:
REMARK  status: ('A' for Active; 'I' for Inactive)
REMARK    1  A    between atoms: O_2  and  C_50 
REMARK    2  A    between atoms: O_3  and  C_51 
REMARK    3  A    between atoms: O_4  and  C_58 
REMARK    4  A    between atoms: O_4  and  C_60 
REMARK    5  A    between atoms: O_5  and  C_59 
REMARK    6  A    between atoms: O_5  and  C_61 
REMARK    7  A    between atoms: O_6  and  C_62 
REMARK    8  A    between atoms: O_6  and  C_64 
REMARK    9  A    between atoms: O_7  and  C_63 
REMARK   10  A    between atoms: O_7  and  C_65 
REMARK   11  A    between atoms: O_8  and  C_66 
REMARK   12  A    between atoms: O_8  and  C_68 
REMARK   13  A    between atoms: O_9  and  C_67 
REMARK   14  A    between atoms: O_9  and  C_69 
REMARK   15  A    between atoms: O_10  and  C_70 
REMARK   16  A    between atoms: O_11  and  C_71 
REMARK   17  A    between atoms: C_26  and  C_32 
REMARK   18  A    between atoms: C_27  and  C_33 
REMARK   19  A    between atoms: C_30  and  C_38 
REMARK   20  A    between atoms: C_31  and  C_39 
REMARK   21  A    between atoms: C_38  and  C_42 
REMARK   22  A    between atoms: C_39  and  C_43 
REMARK   23  A    between atoms: C_42  and  C_50 
REMARK   24  A    between atoms: C_43  and  C_51 
REMARK   25  A    between atoms: C_60  and  C_62 
REMARK   26  A    between atoms: C_61  and  C_63 
REMARK   27  A    between atoms: C_64  and  C_66 
REMARK   28  A    between atoms: C_65  and  C_67 
REMARK   29  A    between atoms: C_68  and  C_70 
REMARK   30  A    between atoms: C_69  and  C_71 
ROOT
HETATM    1  O   UNK N   1      32.018  21.868  -2.327  0.00  0.00    -0.648 OA
HETATM    2  O   UNK N   1      30.358  23.069  -1.469  0.00  0.00    -0.648 OA
HETATM    3  C   UNK N   1      30.158  22.590  -3.759  0.00  0.00     0.129 C 
HETATM    4  C   UNK N   1      30.850  22.526  -2.443  0.00  0.00     0.168 C 
ENDROOT
TORSDOF 30
ENDMDL
MODEL 4
REMARK VINA RESULT:      -2.7     14.149     14.522
REMARK  30 active torsions:
REMARK  status: ('A' for Active; 'I' for Inactive)
REMARK    1  A    between atoms: O_2  and  C_50 
REMARK    2  A    between atoms: O_3  and  C_51 
REMARK    3  A    between atoms: O_4  and  C_58 
REMARK    4  A    between atoms: O_4  and  C_60 
REMARK    5  A    between atoms: O_5  and  C_59 
REMARK    6  A    between atoms: O_5  and  C_61 
REMARK    7  A    between atoms: O_6  and  C_62 
REMARK    8  A    between atoms: O_6  and  C_64 
REMARK    9  A    between atoms: O_7  and  C_63 
REMARK   10  A    between atoms: O_7  and  C_65 
REMARK   11  A    between atoms: O_8  and  C_66 
REMARK   12  A    between atoms: O_8  and  C_68 
REMARK   13  A    between atoms: O_9  and  C_67 
REMARK   14  A    between atoms: O_9  and  C_69 
REMARK   15  A    between atoms: O_10  and  C_70 
REMARK   16  A    between atoms: O_11  and  C_71 
REMARK   17  A    between atoms: C_26  and  C_32 
REMARK   18  A    between atoms: C_27  and  C_33 
REMARK   19  A    between atoms: C_30  and  C_38 
REMARK   20  A    between atoms: C_31  and  C_39 
REMARK   21  A    between atoms: C_38  and  C_42 
REMARK   22  A    between atoms: C_39  and  C_43 
REMARK   23  A    between atoms: C_42  and  C_50 
REMARK   24  A    between atoms: C_43  and  C_51 
REMARK   25  A    between atoms: C_60  and  C_62 
REMARK   26  A    between atoms: C_61  and  C_63 
REMARK   27  A    between atoms: C_64  and  C_66 
REMARK   28  A    between atoms: C_65  and  C_67 
REMARK   29  A    between atoms: C_68  and  C_70 
REMARK   30  A    between atoms: C_69  and  C_71 
ROOT
HETATM    1  O   UNK N   1      21.356  20.676   0.541  0.00  0.00    -0.648 OA
HETATM    2  O   UNK N   1      21.903  21.238   2.620  0.00  0.00    -0.648 OA
HETATM    3  C   UNK N   1      20.185  19.648   2.439  0.00  0.00     0.129 C 
HETATM    4  C   UNK N   1      21.205  20.574   1.875  0.00  0.00     0.168 C 
ENDROOT
TORSDOF 30
ENDMDL
MODEL 5
REMARK VINA RESULT:      -2.5     11.049     11.485
REMARK  30 active torsions:
REMARK  status: ('A' for Active; 'I' for Inactive)
REMARK    1  A    between atoms: O_2  and  C_50 
REMARK    2  A    between atoms: O_3  and  C_51 
REMARK    3  A    between atoms: O_4  and  C_58 
REMARK    4  A    between atoms: O_4  and  C_60 
REMARK    5  A    between atoms: O_5  and  C_59 
REMARK    6  A    between atoms: O_5  and  C_61 
REMARK    7  A    between atoms: O_6  and  C_62 
REMARK    8  A    between atoms: O_6  and  C_64 
REMARK    9  A    between atoms: O_7  and  C_63 
REMARK   10  A    between atoms: O_7  and  C_65 
REMARK   11  A    between atoms: O_8  and  C_66 
REMARK   12  A    between atoms: O_8  and  C_68 
REMARK   13  A    between atoms: O_9  and  C_67 
REMARK   14  A    between atoms: O_9  and  C_69 
REMARK   15  A    between atoms: O_10  and  C_70 
REMARK   16  A    between atoms: O_11  and  C_71 
REMARK   17  A    between atoms: C_26  and  C_32 
REMARK   18  A    between atoms: C_27  and  C_33 
REMARK   19  A    between atoms: C_30  and  C_38 
REMARK   20  A    between atoms: C_31  and  C_39 
REMARK   21  A    between atoms: C_38  and  C_42 
REMARK   22  A    between atoms: C_39  and  C_43 
REMARK   23  A    between atoms: C_42  and  C_50 
REMARK   24  A    between atoms: C_43  and  C_51 
REMARK   25  A    between atoms: C_60  and  C_62 
REMARK   26  A    between atoms: C_61  and  C_63 
REMARK   27  A    between atoms: C_64  and  C_66 
REMARK   28  A    between atoms: C_65  and  C_67 
REMARK   29  A    between atoms: C_68  and  C_70 
REMARK   30  A    between atoms: C_69  and  C_71 
ROOT
HETATM    1  O   UNK N   1      31.024  22.751  -1.863  0.00  0.00    -0.648 OA
HETATM    2  O   UNK N   1      32.733  21.397  -2.288  0.00  0.00    -0.648 OA
HETATM    3  C   UNK N   1      30.931  21.223  -3.783  0.00  0.00     0.129 C 
HETATM    4  C   UNK N   1      31.624  21.794  -2.596  0.00  0.00     0.168 C 
ENDROOT
TORSDOF 30
ENDMDL
MODEL 6
REMARK VINA RESULT:      -2.4     11.180     11.649
REMARK  30 active torsions:
REMARK  status: ('A' for Active; 'I' for Inactive)
REMARK    1  A    between atoms: O_2  and  C_50 
REMARK    2  A    between atoms: O_3  and  C_51 
REMARK    3  A    between atoms: O_4  and  C_58 
REMARK    4  A    between atoms: O_4  and  C_60 
REMARK    5  A    between atoms: O_5  and  C_59 
REMARK    6  A    between atoms: O_5  and  C_61 
REMARK    7  A    between atoms: O_6  and  C_62 
REMARK    8  A    between atoms: O_6  and  C_64 
REMARK    9  A    between atoms: O_7  and  C_63 
REMARK   10  A    between atoms: O_7  and  C_65 
REMARK   11  A    between atoms: O_8  and  C_66 
REMARK   12  A    between atoms: O_8  and  C_68 
REMARK   13  A    between atoms: O_9  and  C_67 
REMARK   14  A    between atoms: O_9  and  C_69 
REMARK   15  A    between atoms: O_10  and  C_70 
REMARK   16  A    between atoms: O_11  and  C_71 
REMARK   17  A    between atoms: C_26  and  C_32 
REMARK   18  A    between atoms: C_27  and  C_33 
REMARK   19  A    between atoms: C_30  and  C_38 
REMARK   20  A    between atoms: C_31  and  C_39 
REMARK   21  A    between atoms: C_38  and  C_42 
REMARK   22  A    between atoms: C_39  and  C_43 
REMARK   23  A    between atoms: C_42  and  C_50 
REMARK   24  A    between atoms: C_43  and  C_51 
REMARK   25  A    between atoms: C_60  and  C_62 
REMARK   26  A    between atoms: C_61  and  C_63 
REMARK   27  A    between atoms: C_64  and  C_66 
REMARK   28  A    between atoms: C_65  and  C_67 
REMARK   29  A    between atoms: C_68  and  C_70 
REMARK   30  A    between atoms: C_69  and  C_71 
ROOT
HETATM    1  O   UNK N   1      35.252  13.147  19.593  0.00  0.00    -0.648 OA
HETATM    2  O   UNK N   1      35.485  15.029  18.435  0.00  0.00    -0.648 OA
HETATM    3  C   UNK N   1      34.961  13.133  17.155  0.00  0.00     0.129 C 
HETATM    4  C   UNK N   1      35.251  13.834  18.435  0.00  0.00     0.168 C 
ENDROOT
TORSDOF 30
ENDMDL
MODEL 7
REMARK VINA RESULT:      -2.3      2.181      2.708
REMARK  30 active torsions:
REMARK  status: ('A' for Active; 'I' for Inactive)
REMARK    1  A    between atoms: O_2  and  C_50 
REMARK    2  A    between atoms: O_3  and  C_51 
REMARK    3  A    between atoms: O_4  and  C_58 
REMARK    4  A    between atoms: O_4  and  C_60 
REMARK    5  A    between atoms: O_5  and  C_59 
REMARK    6  A    between atoms: O_5  and  C_61 
REMARK    7  A    between atoms: O_6  and  C_62 
REMARK    8  A    between atoms: O_6  and  C_64 
REMARK    9  A    between atoms: O_7  and  C_63 
REMARK   10  A    between atoms: O_7  and  C_65 
REMARK   11  A    between atoms: O_8  and  C_66 
REMARK   12  A    between atoms: O_8  and  C_68 
REMARK   13  A    between atoms: O_9  and  C_67 
REMARK   14  A    between atoms: O_9  and  C_69 
REMARK   15  A    between atoms: O_10  and  C_70 
REMARK   16  A    between atoms: O_11  and  C_71 
REMARK   17  A    between atoms: C_26  and  C_32 
REMARK   18  A    between atoms: C_27  and  C_33 
REMARK   19  A    between atoms: C_30  and  C_38 
REMARK   20  A    between atoms: C_31  and  C_39 
REMARK   21  A    between atoms: C_38  and  C_42 
REMARK   22  A    between atoms: C_39  and  C_43 
REMARK   23  A    between atoms: C_42  and  C_50 
REMARK   24  A    between atoms: C_43  and  C_51 
REMARK   25  A    between atoms: C_60  and  C_62 
REMARK   26  A    between atoms: C_61  and  C_63 
REMARK   27  A    between atoms: C_64  and  C_66 
REMARK   28  A    between atoms: C_65  and  C_67 
REMARK   29  A    between atoms: C_68  and  C_70 
REMARK   30  A    between atoms: C_69  and  C_71 
ROOT
HETATM    1  O   UNK N   1      35.532  17.501  10.207  0.00  0.00    -0.648 OA
HETATM    2  O   UNK N   1      34.005  16.217   9.230  0.00  0.00    -0.648 OA
HETATM    3  C   UNK N   1      34.423  18.260   8.152  0.00  0.00     0.129 C 
HETATM    4  C   UNK N   1      34.638  17.258   9.231  0.00  0.00     0.168 C 
ENDROOT
TORSDOF 30
ENDMDL
MODEL 8
REMARK VINA RESULT:      -2.2     18.833     19.090
REMARK  30 active torsions:
REMARK  status: ('A' for Active; 'I' for Inactive)
REMARK    1  A    between atoms: O_2  and  C_50 
REMARK    2  A    between atoms: O_3  and  C_51 
REMARK    3  A    between atoms: O_4  and  C_58 
REMARK    4  A    between atoms: O_4  and  C_60 
REMARK    5  A    between atoms: O_5  and  C_59 
REMARK    6  A    between atoms: O_5  and  C_61 
REMARK    7  A    between atoms: O_6  and  C_62 
REMARK    8  A    between atoms: O_6  and  C_64 
REMARK    9  A    between atoms: O_7  and  C_63 
REMARK   10  A    between atoms: O_7  and  C_65 
REMARK   11  A    between atoms: O_8  and  C_66 
REMARK   12  A    between atoms: O_8  and  C_68 
REMARK   13  A    between atoms: O_9  and  C_67 
REMARK   14  A    between atoms: O_9  and  C_69 
REMARK   15  A    between atoms: O_10  and  C_70 
REMARK   16  A    between atoms: O_11  and  C_71 
REMARK   17  A    between atoms: C_26  and  C_32 
REMARK   18  A    between atoms: C_27  and  C_33 
REMARK   19  A    between atoms: C_30  and  C_38 
REMARK   20  A    between atoms: C_31  and  C_39 
REMARK   21  A    between atoms: C_38  and  C_42 
REMARK   22  A    between atoms: C_39  and  C_43 
REMARK   23  A    between atoms: C_42  and  C_50 
REMARK   24  A    between atoms: C_43  and  C_51 
REMARK   25  A    between atoms: C_60  and  C_62 
REMARK   26  A    between atoms: C_61  and  C_63 
REMARK   27  A    between atoms: C_64  and  C_66 
REMARK   28  A    between atoms: C_65  and  C_67 
REMARK   29  A    between atoms: C_68  and  C_70 
REMARK   30  A    between atoms: C_69  and  C_71 
ROOT
HETATM    1  O   UNK N   1      47.640  18.803  20.622  0.00  0.00    -0.648 OA
HETATM    2  O   UNK N   1      49.216  19.587  19.267  0.00  0.00    -0.648 OA
HETATM    3  C   UNK N   1      49.590  17.414  20.074  0.00  0.00     0.129 C 
HETATM    4  C   UNK N   1      48.805  18.674  19.960  0.00  0.00     0.168 C 
ENDROOT
TORSDOF 30
ENDMDL
MODEL 9
REMARK VINA RESULT:      -2.2     12.573     13.037
REMARK  30 active torsions:
REMARK  status: ('A' for Active; 'I' for Inactive)
REMARK    1  A    between atoms: O_2  and  C_50 
REMARK    2  A    between atoms: O_3  and  C_51 
REMARK    3  A    between atoms: O_4  and  C_58 
REMARK    4  A    between atoms: O_4  and  C_60 
REMARK    5  A    between atoms: O_5  and  C_59 
REMARK    6  A    between atoms: O_5  and  C_61 
REMARK    7  A    between atoms: O_6  and  C_62 
REMARK    8  A    between atoms: O_6  and  C_64 
REMARK    9  A    between atoms: O_7  and  C_63 
REMARK   10  A    between atoms: O_7  and  C_65 
REMARK   11  A    between atoms: O_8  and  C_66 
REMARK   12  A    between atoms: O_8  and  C_68 
REMARK   13  A    between atoms: O_9  and  C_67 
REMARK   14  A    between atoms: O_9  and  C_69 
REMARK   15  A    between atoms: O_10  and  C_70 
REMARK   16  A    between atoms: O_11  and  C_71 
REMARK   17  A    between atoms: C_26  and  C_32 
REMARK   18  A    between atoms: C_27  and  C_33 
REMARK   19  A    between atoms: C_30  and  C_38 
REMARK   20  A    between atoms: C_31  and  C_39 
REMARK   21  A    between atoms: C_38  and  C_42 
REMARK   22  A    between atoms: C_39  and  C_43 
REMARK   23  A    between atoms: C_42  and  C_50 
REMARK   24  A    between atoms: C_43  and  C_51 
REMARK   25  A    between atoms: C_60  and  C_62 
REMARK   26  A    between atoms: C_61  and  C_63 
REMARK   27  A    between atoms: C_64  and  C_66 
REMARK   28  A    between atoms: C_65  and  C_67 
REMARK   29  A    between atoms: C_68  and  C_70 
REMARK   30  A    between atoms: C_69  and  C_71 
ROOT
HETATM    1  O   UNK N   1      22.503  12.541  10.908  0.00  0.00    -0.648 OA
HETATM    2  O   UNK N   1      24.620  11.969  11.264  0.00  0.00    -0.648 OA
HETATM    3  C   UNK N   1      23.230  11.866  13.154  0.00  0.00     0.129 C 
HETATM    4  C   UNK N   1      23.499  12.128  11.714  0.00  0.00     0.168 C 
ENDROOT
TORSDOF 30
ENDMDL
