MODEL 1
REMARK VINA RESULT:      -4.6      0.000      0.000
REMARK  5 active torsions:
REMARK  status: ('A' for Active; 'I' for Inactive)
REMARK    1  A    between atoms: S_2  and  N_9 
REMARK    2  A    between atoms: S_3  and  N_10 
REMARK    3  A    between atoms: N_9  and  N_10 
REMARK    4  A    between atoms: N_9  and  C_12 
REMARK       I    between atoms: N_10  and  C_15 
REMARK       I    between atoms: N_11  and  C_15 
REMARK    5  A    between atoms: C_12  and  C_14 
ROOT
HETATM    1  O   UNK N   1      20.719  18.800   7.665  0.00  0.00    -0.245 OA
HETATM    2  N   UNK N   1      20.589  17.112   6.178  0.00  0.00    -0.135 N 
HETATM    3  N   UNK N   1      19.293  17.165   8.163  0.00  0.00    -0.345 N 
HETATM    4  C   UNK N   1      20.221  17.730   7.350  0.00  0.00     0.347 C 
HETATM    5  C   UNK N   1      18.881  17.773   9.401  0.00  0.00     0.151 C 
HETATM    6  H   UNK N   1      18.886  16.308   7.896  0.00  0.00     0.163 HD
ENDROOT
BRANCH   2   7
HETATM    7  S   UNK N   1      19.718  15.607   5.729  0.00  0.00     0.247 S 
HETATM    8  O   UNK N   1      18.232  15.983   5.852  0.00  0.00    -0.204 OA
HETATM    9  O   UNK N   1      19.866  14.700   6.960  0.00  0.00    -0.204 OA
HETATM   10  C   UNK N   1      19.950  14.613   4.226  0.00  0.00     0.188 C 
ENDBRANCH   2   7
BRANCH   2  11
HETATM   11  N   UNK N   1      21.533  17.735   5.322  0.00  0.00    -0.099 NA
BRANCH  11  12
HETATM   12  S   UNK N   1      23.072  16.811   5.162  0.00  0.00     0.226 S 
HETATM   13  O   UNK N   1      23.028  16.186   3.759  0.00  0.00    -0.210 OA
HETATM   14  O   UNK N   1      24.196  17.848   5.021  0.00  0.00    -0.210 OA
HETATM   15  C   UNK N   1      23.460  15.522   6.384  0.00  0.00     0.181 C 
ENDBRANCH  11  12
BRANCH  11  16
HETATM   16  C   UNK N   1      21.010  18.081   3.991  0.00  0.00     0.148 C 
BRANCH  16  17
HETATM   17  C   UNK N   1      20.918  19.590   3.753  0.00  0.00     0.132 C 
HETATM   18 Cl   UNK N   1      22.372  20.161   2.911  0.00  0.00    -0.129 Cl
ENDBRANCH  16  17
ENDBRANCH  11  16
ENDBRANCH   2  11
TORSDOF 5
ENDMDL
MODEL 2
REMARK VINA RESULT:      -4.5     12.656     14.280
REMARK  5 active torsions:
REMARK  status: ('A' for Active; 'I' for Inactive)
REMARK    1  A    between atoms: S_2  and  N_9 
REMARK    2  A    between atoms: S_3  and  N_10 
REMARK    3  A    between atoms: N_9  and  N_10 
REMARK    4  A    between atoms: N_9  and  C_12 
REMARK       I    between atoms: N_10  and  C_15 
REMARK       I    between atoms: N_11  and  C_15 
REMARK    5  A    between atoms: C_12  and  C_14 
ROOT
HETATM    1  O   UNK N   1      36.087  15.072   6.335  0.00  0.00    -0.245 OA
HETATM    2  N   UNK N   1      34.370  15.245   7.785  0.00  0.00    -0.135 N 
HETATM    3  N   UNK N   1      34.550  13.466   6.228  0.00  0.00    -0.345 N 
HETATM    4  C   UNK N   1      35.039  14.613   6.763  0.00  0.00     0.347 C 
HETATM    5  C   UNK N   1      35.214  12.772   5.155  0.00  0.00     0.151 C 
HETATM    6  H   UNK N   1      33.711  13.094   6.586  0.00  0.00     0.163 HD
ENDROOT
BRANCH   2   7
HETATM    7  S   UNK N   1      32.905  14.437   8.438  0.00  0.00     0.247 S 
HETATM    8  O   UNK N   1      33.369  13.001   8.732  0.00  0.00    -0.204 OA
HETATM    9  O   UNK N   1      32.026  14.186   7.202  0.00  0.00    -0.204 OA
HETATM   10  C   UNK N   1      31.857  15.008   9.808  0.00  0.00     0.188 C 
ENDBRANCH   2   7
BRANCH   2  11
HETATM   11  N   UNK N   1      34.915  16.423   8.357  0.00  0.00    -0.099 NA
BRANCH  11  12
HETATM   12  S   UNK N   1      34.090  17.930   7.814  0.00  0.00     0.226 S 
HETATM   13  O   UNK N   1      34.965  19.083   8.329  0.00  0.00    -0.210 OA
HETATM   14  O   UNK N   1      34.294  18.021   6.294  0.00  0.00    -0.210 OA
HETATM   15  C   UNK N   1      32.363  18.219   8.304  0.00  0.00     0.181 C 
ENDBRANCH  11  12
BRANCH  11  16
HETATM   16  C   UNK N   1      35.006  16.398   9.825  0.00  0.00     0.148 C 
BRANCH  16  17
HETATM   17  C   UNK N   1      35.968  15.330  10.351  0.00  0.00     0.132 C 
HETATM   18 Cl   UNK N   1      35.161  14.339  11.582  0.00  0.00    -0.129 Cl
ENDBRANCH  16  17
ENDBRANCH  11  16
ENDBRANCH   2  11
TORSDOF 5
ENDMDL
MODEL 3
REMARK VINA RESULT:      -4.4     12.056     13.448
REMARK  5 active torsions:
REMARK  status: ('A' for Active; 'I' for Inactive)
REMARK    1  A    between atoms: S_2  and  N_9 
REMARK    2  A    between atoms: S_3  and  N_10 
REMARK    3  A    between atoms: N_9  and  N_10 
REMARK    4  A    between atoms: N_9  and  C_12 
REMARK       I    between atoms: N_10  and  C_15 
REMARK       I    between atoms: N_11  and  C_15 
REMARK    5  A    between atoms: C_12  and  C_14 
ROOT
HETATM    1  O   UNK N   1      34.453  17.205   9.677  0.00  0.00    -0.245 OA
HETATM    2  N   UNK N   1      33.998  15.427   8.368  0.00  0.00    -0.135 N 
HETATM    3  N   UNK N   1      35.365  15.272  10.300  0.00  0.00    -0.345 N 
HETATM    4  C   UNK N   1      34.604  16.013   9.455  0.00  0.00     0.347 C 
HETATM    5  C   UNK N   1      36.021  15.843  11.447  0.00  0.00     0.151 C 
HETATM    6  H   UNK N   1      35.471  14.309  10.123  0.00  0.00     0.163 HD
ENDROOT
BRANCH   2   7
HETATM    7  S   UNK N   1      34.169  13.649   8.186  0.00  0.00     0.247 S 
HETATM    8  O   UNK N   1      33.764  13.091   9.562  0.00  0.00    -0.204 OA
HETATM    9  O   UNK N   1      35.685  13.405   8.235  0.00  0.00    -0.204 OA
HETATM   10  C   UNK N   1      33.439  12.604   6.891  0.00  0.00     0.188 C 
ENDBRANCH   2   7
BRANCH   2  11
HETATM   11  N   UNK N   1      33.176  16.209   7.517  0.00  0.00    -0.099 NA
BRANCH  11  12
HETATM   12  S   UNK N   1      33.876  16.453   5.874  0.00  0.00     0.226 S 
HETATM   13  O   UNK N   1      34.040  17.973   5.721  0.00  0.00    -0.210 OA
HETATM   14  O   UNK N   1      35.334  15.974   5.941  0.00  0.00    -0.210 OA
HETATM   15  C   UNK N   1      32.991  15.794   4.428  0.00  0.00     0.181 C 
ENDBRANCH  11  12
BRANCH  11  16
HETATM   16  C   UNK N   1      31.788  15.734   7.409  0.00  0.00     0.148 C 
BRANCH  16  17
HETATM   17  C   UNK N   1      30.756  16.860   7.512  0.00  0.00     0.132 C 
HETATM   18 Cl   UNK N   1      31.324  18.103   8.644  0.00  0.00    -0.129 Cl
ENDBRANCH  16  17
ENDBRANCH  11  16
ENDBRANCH   2  11
TORSDOF 5
ENDMDL
MODEL 4
REMARK VINA RESULT:      -4.4     11.735     13.162
REMARK  5 active torsions:
REMARK  status: ('A' for Active; 'I' for Inactive)
REMARK    1  A    between atoms: S_2  and  N_9 
REMARK    2  A    between atoms: S_3  and  N_10 
REMARK    3  A    between atoms: N_9  and  N_10 
REMARK    4  A    between atoms: N_9  and  C_12 
REMARK       I    between atoms: N_10  and  C_15 
REMARK       I    between atoms: N_11  and  C_15 
REMARK    5  A    between atoms: C_12  and  C_14 
ROOT
HETATM    1  O   UNK N   1      32.258  13.600   7.709  0.00  0.00    -0.245 OA
HETATM    2  N   UNK N   1      33.173  15.608   7.251  0.00  0.00    -0.135 N 
HETATM    3  N   UNK N   1      32.967  13.899   5.620  0.00  0.00    -0.345 N 
HETATM    4  C   UNK N   1      32.784  14.339   6.891  0.00  0.00     0.347 C 
HETATM    5  C   UNK N   1      32.579  12.577   5.199  0.00  0.00     0.151 C 
HETATM    6  H   UNK N   1      33.379  14.505   4.962  0.00  0.00     0.163 HD
ENDROOT
BRANCH   2   7
HETATM    7  S   UNK N   1      33.822  16.672   5.957  0.00  0.00     0.247 S 
HETATM    8  O   UNK N   1      35.030  15.896   5.406  0.00  0.00    -0.204 OA
HETATM    9  O   UNK N   1      34.548  17.793   6.716  0.00  0.00    -0.204 OA
HETATM   10  C   UNK N   1      32.902  17.392   4.566  0.00  0.00     0.188 C 
ENDBRANCH   2   7
BRANCH   2  11
HETATM   11  N   UNK N   1      32.940  16.065   8.573  0.00  0.00    -0.099 NA
BRANCH  11  12
HETATM   12  S   UNK N   1      34.390  15.946   9.637  0.00  0.00     0.226 S 
HETATM   13  O   UNK N   1      35.520  15.432   8.731  0.00  0.00    -0.210 OA
HETATM   14  O   UNK N   1      34.839  17.385   9.933  0.00  0.00    -0.210 OA
HETATM   15  C   UNK N   1      34.306  14.919  11.136  0.00  0.00     0.181 C 
ENDBRANCH  11  12
BRANCH  11  16
HETATM   16  C   UNK N   1      32.362  17.415   8.656  0.00  0.00     0.148 C 
BRANCH  16  17
HETATM   17  C   UNK N   1      30.833  17.422   8.593  0.00  0.00     0.132 C 
HETATM   18 Cl   UNK N   1      30.200  18.884   9.374  0.00  0.00    -0.129 Cl
ENDBRANCH  16  17
ENDBRANCH  11  16
ENDBRANCH   2  11
TORSDOF 5
ENDMDL
MODEL 5
REMARK VINA RESULT:      -4.4     10.275     12.698
REMARK  5 active torsions:
REMARK  status: ('A' for Active; 'I' for Inactive)
REMARK    1  A    between atoms: S_2  and  N_9 
REMARK    2  A    between atoms: S_3  and  N_10 
REMARK    3  A    between atoms: N_9  and  N_10 
REMARK    4  A    between atoms: N_9  and  C_12 
REMARK       I    between atoms: N_10  and  C_15 
REMARK       I    between atoms: N_11  and  C_15 
REMARK    5  A    between atoms: C_12  and  C_14 
ROOT
HETATM    1  O   UNK N   1      33.186  15.149   9.839  0.00  0.00    -0.245 OA
HETATM    2  N   UNK N   1      32.987  16.214   7.863  0.00  0.00    -0.135 N 
HETATM    3  N   UNK N   1      35.043  16.078   9.037  0.00  0.00    -0.345 N 
HETATM    4  C   UNK N   1      33.719  15.793   8.949  0.00  0.00     0.347 C 
HETATM    5  C   UNK N   1      35.847  15.661  10.157  0.00  0.00     0.151 C 
HETATM    6  H   UNK N   1      35.469  16.586   8.309  0.00  0.00     0.163 HD
ENDROOT
BRANCH   2   7
HETATM    7  S   UNK N   1      33.874  17.046   6.541  0.00  0.00     0.247 S 
HETATM    8  O   UNK N   1      35.053  16.108   6.233  0.00  0.00    -0.204 OA
HETATM    9  O   UNK N   1      34.619  18.190   7.245  0.00  0.00    -0.204 OA
HETATM   10  C   UNK N   1      33.186  17.658   4.975  0.00  0.00     0.188 C 
ENDBRANCH   2   7
BRANCH   2  11
HETATM   11  N   UNK N   1      31.613  15.876   7.769  0.00  0.00    -0.099 NA
BRANCH  11  12
HETATM   12  S   UNK N   1      30.512  17.220   8.247  0.00  0.00     0.226 S 
HETATM   13  O   UNK N   1      29.905  16.792   9.593  0.00  0.00    -0.210 OA
HETATM   14  O   UNK N   1      31.407  18.400   8.654  0.00  0.00    -0.210 OA
HETATM   15  C   UNK N   1      29.177  17.716   7.116  0.00  0.00     0.181 C 
ENDBRANCH  11  12
BRANCH  11  16
HETATM   16  C   UNK N   1      31.209  15.332   6.464  0.00  0.00     0.148 C 
BRANCH  16  17
HETATM   17  C   UNK N   1      31.921  14.024   6.109  0.00  0.00     0.132 C 
HETATM   18 Cl   UNK N   1      32.438  14.055   4.412  0.00  0.00    -0.129 Cl
ENDBRANCH  16  17
ENDBRANCH  11  16
ENDBRANCH   2  11
TORSDOF 5
ENDMDL
MODEL 6
REMARK VINA RESULT:      -4.2      9.857     11.183
REMARK  5 active torsions:
REMARK  status: ('A' for Active; 'I' for Inactive)
REMARK    1  A    between atoms: S_2  and  N_9 
REMARK    2  A    between atoms: S_3  and  N_10 
REMARK    3  A    between atoms: N_9  and  N_10 
REMARK    4  A    between atoms: N_9  and  C_12 
REMARK       I    between atoms: N_10  and  C_15 
REMARK       I    between atoms: N_11  and  C_15 
REMARK    5  A    between atoms: C_12  and  C_14 
ROOT
HETATM    1  O   UNK N   1      29.691  17.846   7.238  0.00  0.00    -0.245 OA
HETATM    2  N   UNK N   1      31.550  16.575   7.329  0.00  0.00    -0.135 N 
HETATM    3  N   UNK N   1      30.717  17.753   9.211  0.00  0.00    -0.345 N 
HETATM    4  C   UNK N   1      30.620  17.412   7.901  0.00  0.00     0.347 C 
HETATM    5  C   UNK N   1      29.770  18.628   9.851  0.00  0.00     0.151 C 
HETATM    6  H   UNK N   1      31.462  17.387   9.743  0.00  0.00     0.163 HD
ENDROOT
BRANCH   2   7
HETATM    7  S   UNK N   1      32.810  15.881   8.404  0.00  0.00     0.247 S 
HETATM    8  O   UNK N   1      32.016  15.295   9.583  0.00  0.00    -0.204 OA
HETATM    9  O   UNK N   1      33.441  17.104   9.089  0.00  0.00    -0.204 OA
HETATM   10  C   UNK N   1      34.124  14.713   7.942  0.00  0.00     0.188 C 
ENDBRANCH   2   7
BRANCH   2  11
HETATM   11  N   UNK N   1      31.412  16.199   5.968  0.00  0.00    -0.099 NA
BRANCH  11  12
HETATM   12  S   UNK N   1      32.792  16.729   4.937  0.00  0.00     0.226 S 
HETATM   13  O   UNK N   1      32.163  17.563   3.810  0.00  0.00    -0.210 OA
HETATM   14  O   UNK N   1      33.558  17.791   5.739  0.00  0.00    -0.210 OA
HETATM   15  C   UNK N   1      33.890  15.472   4.215  0.00  0.00     0.181 C 
ENDBRANCH  11  12
BRANCH  11  16
HETATM   16  C   UNK N   1      31.144  14.768   5.758  0.00  0.00     0.148 C 
BRANCH  16  17
HETATM   17  C   UNK N   1      29.802  14.500   5.072  0.00  0.00     0.132 C 
HETATM   18 Cl   UNK N   1      29.115  16.021   4.468  0.00  0.00    -0.129 Cl
ENDBRANCH  16  17
ENDBRANCH  11  16
ENDBRANCH   2  11
TORSDOF 5
ENDMDL
MODEL 7
REMARK VINA RESULT:      -4.2      2.974      4.862
REMARK  5 active torsions:
REMARK  status: ('A' for Active; 'I' for Inactive)
REMARK    1  A    between atoms: S_2  and  N_9 
REMARK    2  A    between atoms: S_3  and  N_10 
REMARK    3  A    between atoms: N_9  and  N_10 
REMARK    4  A    between atoms: N_9  and  C_12 
REMARK       I    between atoms: N_10  and  C_15 
REMARK       I    between atoms: N_11  and  C_15 
REMARK    5  A    between atoms: C_12  and  C_14 
ROOT
HETATM    1  O   UNK N   1      24.290  18.123   4.310  0.00  0.00    -0.245 OA
HETATM    2  N   UNK N   1      22.071  18.224   3.929  0.00  0.00    -0.135 N 
HETATM    3  N   UNK N   1      23.552  19.972   3.315  0.00  0.00    -0.345 N 
HETATM    4  C   UNK N   1      23.340  18.752   3.872  0.00  0.00     0.347 C 
HETATM    5  C   UNK N   1      24.862  20.565   3.237  0.00  0.00     0.151 C 
HETATM    6  H   UNK N   1      22.783  20.468   2.951  0.00  0.00     0.163 HD
ENDROOT
BRANCH   2   7
HETATM    7  S   UNK N   1      20.751  19.159   3.149  0.00  0.00     0.247 S 
HETATM    8  O   UNK N   1      21.416  19.787   1.912  0.00  0.00    -0.204 OA
HETATM    9  O   UNK N   1      20.597  20.408   4.031  0.00  0.00    -0.204 OA
HETATM   10  C   UNK N   1      19.103  18.551   2.685  0.00  0.00     0.188 C 
ENDBRANCH   2   7
BRANCH   2  11
HETATM   11  N   UNK N   1      21.873  16.933   4.481  0.00  0.00    -0.099 NA
BRANCH  11  12
HETATM   12  S   UNK N   1      21.214  16.965   6.158  0.00  0.00     0.226 S 
HETATM   13  O   UNK N   1      22.221  16.174   7.007  0.00  0.00    -0.210 OA
HETATM   14  O   UNK N   1      21.403  18.397   6.678  0.00  0.00    -0.210 OA
HETATM   15  C   UNK N   1      19.538  16.328   6.462  0.00  0.00     0.181 C 
ENDBRANCH  11  12
BRANCH  11  16
HETATM   16  C   UNK N   1      21.072  16.031   3.640  0.00  0.00     0.148 C 
BRANCH  16  17
HETATM   17  C   UNK N   1      21.823  15.533   2.402  0.00  0.00     0.132 C 
HETATM   18 Cl   UNK N   1      20.776  15.641   0.973  0.00  0.00    -0.129 Cl
ENDBRANCH  16  17
ENDBRANCH  11  16
ENDBRANCH   2  11
TORSDOF 5
ENDMDL
MODEL 8
REMARK VINA RESULT:      -4.2     11.000     12.353
REMARK  5 active torsions:
REMARK  status: ('A' for Active; 'I' for Inactive)
REMARK    1  A    between atoms: S_2  and  N_9 
REMARK    2  A    between atoms: S_3  and  N_10 
REMARK    3  A    between atoms: N_9  and  N_10 
REMARK    4  A    between atoms: N_9  and  C_12 
REMARK       I    between atoms: N_10  and  C_15 
REMARK       I    between atoms: N_11  and  C_15 
REMARK    5  A    between atoms: C_12  and  C_14 
ROOT
HETATM    1  O   UNK N   1      32.920  14.454   9.276  0.00  0.00    -0.245 OA
HETATM    2  N   UNK N   1      32.654  14.853   7.073  0.00  0.00    -0.135 N 
HETATM    3  N   UNK N   1      33.029  12.677   7.939  0.00  0.00    -0.345 N 
HETATM    4  C   UNK N   1      32.874  14.011   8.138  0.00  0.00     0.347 C 
HETATM    5  C   UNK N   1      33.265  11.759   9.023  0.00  0.00     0.151 C 
HETATM    6  H   UNK N   1      32.977  12.325   7.021  0.00  0.00     0.163 HD
ENDROOT
BRANCH   2   7
HETATM    7  S   UNK N   1      32.475  14.104   5.451  0.00  0.00     0.247 S 
HETATM    8  O   UNK N   1      31.422  13.002   5.661  0.00  0.00    -0.204 OA
HETATM    9  O   UNK N   1      33.736  13.241   5.289  0.00  0.00    -0.204 OA
HETATM   10  C   UNK N   1      32.130  14.954   3.883  0.00  0.00     0.188 C 
ENDBRANCH   2   7
BRANCH   2  11
HETATM   11  N   UNK N   1      32.457  16.238   7.304  0.00  0.00    -0.099 NA
BRANCH  11  12
HETATM   12  S   UNK N   1      33.901  17.241   6.906  0.00  0.00     0.226 S 
HETATM   13  O   UNK N   1      35.007  16.238   6.540  0.00  0.00    -0.210 OA
HETATM   14  O   UNK N   1      33.613  17.913   5.555  0.00  0.00    -0.210 OA
HETATM   15  C   UNK N   1      34.535  18.410   8.146  0.00  0.00     0.181 C 
ENDBRANCH  11  12
BRANCH  11  16
HETATM   16  C   UNK N   1      31.261  16.797   6.657  0.00  0.00     0.148 C 
BRANCH  16  17
HETATM   17  C   UNK N   1      30.179  17.223   7.653  0.00  0.00     0.132 C 
HETATM   18 Cl   UNK N   1      30.870  18.320   8.865  0.00  0.00    -0.129 Cl
ENDBRANCH  16  17
ENDBRANCH  11  16
ENDBRANCH   2  11
TORSDOF 5
ENDMDL
MODEL 9
REMARK VINA RESULT:      -4.1     14.191     16.307
REMARK  5 active torsions:
REMARK  status: ('A' for Active; 'I' for Inactive)
REMARK    1  A    between atoms: S_2  and  N_9 
REMARK    2  A    between atoms: S_3  and  N_10 
REMARK    3  A    between atoms: N_9  and  N_10 
REMARK    4  A    between atoms: N_9  and  C_12 
REMARK       I    between atoms: N_10  and  C_15 
REMARK       I    between atoms: N_11  and  C_15 
REMARK    5  A    between atoms: C_12  and  C_14 
ROOT
HETATM    1  O   UNK N   1      25.846  28.060  -3.150  0.00  0.00    -0.245 OA
HETATM    2  N   UNK N   1      27.228  27.360  -4.787  0.00  0.00    -0.135 N 
HETATM    3  N   UNK N   1      27.002  29.646  -4.200  0.00  0.00    -0.345 N 
HETATM    4  C   UNK N   1      26.658  28.346  -4.016  0.00  0.00     0.347 C 
HETATM    5  C   UNK N   1      26.429  30.712  -3.419  0.00  0.00     0.151 C 
HETATM    6  H   UNK N   1      27.667  29.869  -4.891  0.00  0.00     0.163 HD
ENDROOT
BRANCH   2   7
HETATM    7  S   UNK N   1      28.503  27.854  -5.951  0.00  0.00     0.247 S 
HETATM    8  O   UNK N   1      29.475  28.696  -5.107  0.00  0.00    -0.204 OA
HETATM    9  O   UNK N   1      27.846  28.962  -6.788  0.00  0.00    -0.204 OA
HETATM   10  C   UNK N   1      29.466  26.771  -7.048  0.00  0.00     0.188 C 
ENDBRANCH   2   7
BRANCH   2  11
HETATM   11  N   UNK N   1      26.885  26.003  -4.557  0.00  0.00    -0.099 NA
BRANCH  11  12
HETATM   12  S   UNK N   1      26.130  25.204  -5.985  0.00  0.00     0.226 S 
HETATM   13  O   UNK N   1      24.887  24.482  -5.440  0.00  0.00    -0.210 OA
HETATM   14  O   UNK N   1      25.510  26.320  -6.838  0.00  0.00    -0.210 OA
HETATM   15  C   UNK N   1      27.118  24.039  -6.972  0.00  0.00     0.181 C 
ENDBRANCH  11  12
BRANCH  11  16
HETATM   16  C   UNK N   1      27.987  25.178  -4.040  0.00  0.00     0.148 C 
BRANCH  16  17
HETATM   17  C   UNK N   1      27.518  24.067  -3.098  0.00  0.00     0.132 C 
HETATM   18 Cl   UNK N   1      28.920  23.222  -2.411  0.00  0.00    -0.129 Cl
ENDBRANCH  16  17
ENDBRANCH  11  16
ENDBRANCH   2  11
TORSDOF 5
ENDMDL
