MODEL 1
REMARK VINA RESULT:      -5.7      0.000      0.000
REMARK  0 active torsions:
REMARK  status: ('A' for Active; 'I' for Inactive)
ROOT
HETATM    1  O   UNK N   1      20.691  20.066   4.438  0.00  0.00    -0.267 OA
HETATM    2  O   UNK N   1      21.043  20.841   0.010  0.00  0.00    -0.247 OA
HETATM    3  N   UNK N   1      19.675  16.722   1.644  0.00  0.00    -0.285 N 
HETATM    4  N   UNK N   1      19.511  16.302   2.897  0.00  0.00    -0.309 N 
HETATM    5  N   UNK N   1      20.890  20.525   2.237  0.00  0.00    -0.275 N 
HETATM    6  N   UNK N   1      20.369  18.800   0.657  0.00  0.00    -0.292 N 
ATOM      7  HN  UNK N   1      20.283  18.466  -0.303  1.00  0.00     0.172 HD
HETATM    8  C   UNK N   1      20.184  18.395   2.989  0.00  0.00     0.094 A 
HETATM    9  C   UNK N   1      20.084  17.992   1.703  0.00  0.00     0.141 A 
HETATM   10  C   UNK N   1      19.817  17.312   3.754  0.00  0.00     0.128 A 
HETATM   11  C   UNK N   1      20.593  19.683   3.287  0.00  0.00     0.264 A 
HETATM   12  C   UNK N   1      20.778  20.087   0.928  0.00  0.00     0.328 A 
HETATM   13  H   UNK N   1      19.523  16.194   0.827  0.00  0.00     0.188 HD
HETATM   14  H   UNK N   1      19.214  15.402   3.162  0.00  0.00     0.186 HD
HETATM   15  H   UNK N   1      21.183  21.446   2.420  0.00  0.00     0.173 HD
ENDROOT
TORSDOF 0
ENDMDL
MODEL 2
REMARK VINA RESULT:      -5.2     22.635     23.382
REMARK  0 active torsions:
REMARK  status: ('A' for Active; 'I' for Inactive)
ROOT
HETATM    1  O   UNK N   1      42.084  20.130   3.307  0.00  0.00    -0.267 OA
HETATM    2  O   UNK N   1      41.132  24.112   1.418  0.00  0.00    -0.247 OA
HETATM    3  N   UNK N   1      45.261  23.282   3.360  0.00  0.00    -0.285 N 
HETATM    4  N   UNK N   1      45.728  22.189   3.960  0.00  0.00    -0.309 N 
HETATM    5  N   UNK N   1      41.538  22.097   2.344  0.00  0.00    -0.275 N 
HETATM    6  N   UNK N   1      43.171  23.852   2.320  0.00  0.00    -0.292 N 
ATOM      7  HN  UNK N   1      43.459  24.799   2.074  1.00  0.00     0.172 HD
HETATM    8  C   UNK N   1      43.669  21.754   3.314  0.00  0.00     0.094 A 
HETATM    9  C   UNK N   1      44.011  23.015   2.970  0.00  0.00     0.141 A 
HETATM   10  C   UNK N   1      44.769  21.225   3.949  0.00  0.00     0.128 A 
HETATM   11  C   UNK N   1      42.413  21.263   3.006  0.00  0.00     0.264 A 
HETATM   12  C   UNK N   1      41.914  23.386   2.002  0.00  0.00     0.328 A 
HETATM   13  H   UNK N   1      45.746  24.128   3.230  0.00  0.00     0.188 HD
HETATM   14  H   UNK N   1      46.626  22.093   4.351  0.00  0.00     0.186 HD
HETATM   15  H   UNK N   1      40.638  21.774   2.112  0.00  0.00     0.173 HD
ENDROOT
TORSDOF 0
ENDMDL
MODEL 3
REMARK VINA RESULT:      -5.1      9.467     11.347
REMARK  0 active torsions:
REMARK  status: ('A' for Active; 'I' for Inactive)
ROOT
HETATM    1  O   UNK N   1      20.631  12.685   9.809  0.00  0.00    -0.267 OA
HETATM    2  O   UNK N   1      23.039  11.514  13.436  0.00  0.00    -0.247 OA
HETATM    3  N   UNK N   1      25.079  13.122   9.595  0.00  0.00    -0.285 N 
HETATM    4  N   UNK N   1      24.551  13.515   8.438  0.00  0.00    -0.309 N 
HETATM    5  N   UNK N   1      21.771  12.080  11.661  0.00  0.00    -0.275 N 
HETATM    6  N   UNK N   1      24.160  12.277  11.648  0.00  0.00    -0.292 N 
ATOM      7  HN  UNK N   1      25.066  12.177  12.106  1.00  0.00     0.172 HD
HETATM    8  C   UNK N   1      22.890  12.893   9.739  0.00  0.00     0.094 A 
HETATM    9  C   UNK N   1      24.068  12.745  10.383  0.00  0.00     0.141 A 
HETATM   10  C   UNK N   1      23.199  13.386   8.493  0.00  0.00     0.128 A 
HETATM   11  C   UNK N   1      21.704  12.560  10.371  0.00  0.00     0.264 A 
HETATM   12  C   UNK N   1      22.993  11.939  12.297  0.00  0.00     0.328 A 
HETATM   13  H   UNK N   1      26.036  13.112   9.826  0.00  0.00     0.188 HD
HETATM   14  H   UNK N   1      25.059  13.848   7.663  0.00  0.00     0.186 HD
HETATM   15  H   UNK N   1      20.944  11.836  12.134  0.00  0.00     0.173 HD
ENDROOT
TORSDOF 0
ENDMDL
MODEL 4
REMARK VINA RESULT:      -5.1      8.733     10.349
REMARK  0 active torsions:
REMARK  status: ('A' for Active; 'I' for Inactive)
ROOT
HETATM    1  O   UNK N   1      24.556  13.314   9.198  0.00  0.00    -0.267 OA
HETATM    2  O   UNK N   1      20.247  14.060   8.104  0.00  0.00    -0.247 OA
HETATM    3  N   UNK N   1      21.400  11.803  11.987  0.00  0.00    -0.285 N 
HETATM    4  N   UNK N   1      22.597  11.488  12.479  0.00  0.00    -0.309 N 
HETATM    5  N   UNK N   1      22.422  13.723   8.587  0.00  0.00    -0.275 N 
HETATM    6  N   UNK N   1      20.657  12.954  10.014  0.00  0.00    -0.292 N 
ATOM      7  HN  UNK N   1      19.665  12.856  10.232  1.00  0.00     0.172 HD
HETATM    8  C   UNK N   1      22.927  12.563  10.587  0.00  0.00     0.094 A 
HETATM    9  C   UNK N   1      21.604  12.455  10.839  0.00  0.00     0.141 A 
HETATM   10  C   UNK N   1      23.563  11.943  11.638  0.00  0.00     0.128 A 
HETATM   11  C   UNK N   1      23.369  13.206   9.444  0.00  0.00     0.264 A 
HETATM   12  C   UNK N   1      21.072  13.599   8.869  0.00  0.00     0.328 A 
HETATM   13  H   UNK N   1      20.529  11.593  12.394  0.00  0.00     0.188 HD
HETATM   14  H   UNK N   1      22.758  11.002  13.319  0.00  0.00     0.186 HD
HETATM   15  H   UNK N   1      22.709  14.186   7.767  0.00  0.00     0.173 HD
ENDROOT
TORSDOF 0
ENDMDL
MODEL 5
REMARK VINA RESULT:      -5.0     14.762     15.200
REMARK  0 active torsions:
REMARK  status: ('A' for Active; 'I' for Inactive)
ROOT
HETATM    1  O   UNK N   1      35.300  19.063   8.416  0.00  0.00    -0.267 OA
HETATM    2  O   UNK N   1      31.880  17.068   6.260  0.00  0.00    -0.247 OA
HETATM    3  N   UNK N   1      33.615  15.315  10.187  0.00  0.00    -0.285 N 
HETATM    4  N   UNK N   1      34.607  15.749  10.961  0.00  0.00    -0.309 N 
HETATM    5  N   UNK N   1      33.591  18.120   7.283  0.00  0.00    -0.275 N 
HETATM    6  N   UNK N   1      32.618  16.108   8.149  0.00  0.00    -0.292 N 
ATOM      7  HN  UNK N   1      31.938  15.349   8.092  1.00  0.00     0.172 HD
HETATM    8  C   UNK N   1      34.418  17.160   9.283  0.00  0.00     0.094 A 
HETATM    9  C   UNK N   1      33.503  16.173   9.169  0.00  0.00     0.141 A 
HETATM   10  C   UNK N   1      35.126  16.889  10.431  0.00  0.00     0.128 A 
HETATM   11  C   UNK N   1      34.483  18.165   8.333  0.00  0.00     0.264 A 
HETATM   12  C   UNK N   1      32.662  17.096   7.191  0.00  0.00     0.328 A 
HETATM   13  H   UNK N   1      33.067  14.511  10.337  0.00  0.00     0.188 HD
HETATM   14  H   UNK N   1      34.917  15.314  11.787  0.00  0.00     0.186 HD
HETATM   15  H   UNK N   1      33.614  18.821   6.594  0.00  0.00     0.173 HD
ENDROOT
TORSDOF 0
ENDMDL
MODEL 6
REMARK VINA RESULT:      -4.9      2.137      2.518
REMARK  0 active torsions:
REMARK  status: ('A' for Active; 'I' for Inactive)
ROOT
HETATM    1  O   UNK N   1      22.448  17.222   4.407  0.00  0.00    -0.267 OA
HETATM    2  O   UNK N   1      23.508  21.308   2.822  0.00  0.00    -0.247 OA
HETATM    3  N   UNK N   1      19.334  19.431   2.074  0.00  0.00    -0.285 N 
HETATM    4  N   UNK N   1      18.836  18.256   2.453  0.00  0.00    -0.309 N 
HETATM    5  N   UNK N   1      23.048  19.260   3.645  0.00  0.00    -0.275 N 
HETATM    6  N   UNK N   1      21.451  20.525   2.383  0.00  0.00    -0.292 N 
ATOM      7  HN  UNK N   1      21.185  21.363   1.865  1.00  0.00     0.172 HD
HETATM    8  C   UNK N   1      20.895  18.374   3.219  0.00  0.00     0.094 A 
HETATM    9  C   UNK N   1      20.584  19.500   2.541  0.00  0.00     0.141 A 
HETATM   10  C   UNK N   1      19.776  17.577   3.163  0.00  0.00     0.128 A 
HETATM   11  C   UNK N   1      22.147  18.228   3.792  0.00  0.00     0.264 A 
HETATM   12  C   UNK N   1      22.703  20.404   2.944  0.00  0.00     0.328 A 
HETATM   13  H   UNK N   1      18.867  20.120   1.548  0.00  0.00     0.188 HD
HETATM   14  H   UNK N   1      17.930  17.929   2.250  0.00  0.00     0.186 HD
HETATM   15  H   UNK N   1      23.945  19.183   4.042  0.00  0.00     0.173 HD
ENDROOT
TORSDOF 0
ENDMDL
MODEL 7
REMARK VINA RESULT:      -4.9     15.274     15.742
REMARK  0 active torsions:
REMARK  status: ('A' for Active; 'I' for Inactive)
ROOT
HETATM    1  O   UNK N   1      33.554  15.322   6.549  0.00  0.00    -0.267 OA
HETATM    2  O   UNK N   1      35.054  19.161   8.377  0.00  0.00    -0.247 OA
HETATM    3  N   UNK N   1      34.163  15.429  10.981  0.00  0.00    -0.285 N 
HETATM    4  N   UNK N   1      33.721  14.222  10.636  0.00  0.00    -0.309 N 
HETATM    5  N   UNK N   1      34.306  17.276   7.394  0.00  0.00    -0.275 N 
HETATM    6  N   UNK N   1      34.665  17.436   9.759  0.00  0.00    -0.292 N 
ATOM      7  HN  UNK N   1      34.946  17.965  10.584  1.00  0.00     0.172 HD
HETATM    8  C   UNK N   1      33.875  15.416   8.794  0.00  0.00     0.094 A 
HETATM    9  C   UNK N   1      34.256  16.151   9.861  0.00  0.00     0.141 A 
HETATM   10  C   UNK N   1      33.533  14.179   9.290  0.00  0.00     0.128 A 
HETATM   11  C   UNK N   1      33.892  15.967   7.525  0.00  0.00     0.264 A 
HETATM   12  C   UNK N   1      34.691  18.007   8.506  0.00  0.00     0.328 A 
HETATM   13  H   UNK N   1      34.381  15.732  11.892  0.00  0.00     0.188 HD
HETATM   14  H   UNK N   1      33.556  13.476  11.257  0.00  0.00     0.186 HD
HETATM   15  H   UNK N   1      34.328  17.693   6.504  0.00  0.00     0.173 HD
ENDROOT
TORSDOF 0
ENDMDL
MODEL 8
REMARK VINA RESULT:      -4.8     22.707     23.548
REMARK  0 active torsions:
REMARK  status: ('A' for Active; 'I' for Inactive)
ROOT
HETATM    1  O   UNK N   1      41.751  23.781   1.642  0.00  0.00    -0.267 OA
HETATM    2  O   UNK N   1      41.610  19.729   3.616  0.00  0.00    -0.247 OA
HETATM    3  N   UNK N   1      45.460  22.313   3.671  0.00  0.00    -0.285 N 
HETATM    4  N   UNK N   1      45.699  23.517   3.153  0.00  0.00    -0.309 N 
HETATM    5  N   UNK N   1      41.607  21.746   2.608  0.00  0.00    -0.275 N 
HETATM    6  N   UNK N   1      43.540  20.869   3.721  0.00  0.00    -0.292 N 
ATOM      7  HN  UNK N   1      44.007  20.133   4.252  1.00  0.00     0.172 HD
HETATM    8  C   UNK N   1      43.612  23.002   2.681  0.00  0.00     0.094 A 
HETATM    9  C   UNK N   1      44.193  22.004   3.382  0.00  0.00     0.141 A 
HETATM   10  C   UNK N   1      44.577  23.971   2.534  0.00  0.00     0.128 A 
HETATM   11  C   UNK N   1      42.294  22.894   2.275  0.00  0.00     0.264 A 
HETATM   12  C   UNK N   1      42.227  20.738   3.328  0.00  0.00     0.328 A 
HETATM   13  H   UNK N   1      46.098  21.757   4.172  0.00  0.00     0.188 HD
HETATM   14  H   UNK N   1      46.553  24.002   3.209  0.00  0.00     0.186 HD
HETATM   15  H   UNK N   1      40.669  21.642   2.332  0.00  0.00     0.173 HD
ENDROOT
TORSDOF 0
ENDMDL
MODEL 9
REMARK VINA RESULT:      -4.8     16.281     16.772
REMARK  0 active torsions:
REMARK  status: ('A' for Active; 'I' for Inactive)
ROOT
HETATM    1  O   UNK N   1      35.609  17.675  10.229  0.00  0.00    -0.267 OA
HETATM    2  O   UNK N   1      32.013  15.591   8.482  0.00  0.00    -0.247 OA
HETATM    3  N   UNK N   1      34.562  13.625  11.820  0.00  0.00    -0.285 N 
HETATM    4  N   UNK N   1      35.644  14.072  12.455  0.00  0.00    -0.309 N 
HETATM    5  N   UNK N   1      33.797  16.692   9.309  0.00  0.00    -0.275 N 
HETATM    6  N   UNK N   1      33.153  14.520  10.091  0.00  0.00    -0.292 N 
ATOM      7  HN  UNK N   1      32.533  13.710  10.065  1.00  0.00     0.172 HD
HETATM    8  C   UNK N   1      35.046  15.620  11.010  0.00  0.00     0.094 A 
HETATM    9  C   UNK N   1      34.202  14.567  10.943  0.00  0.00     0.141 A 
HETATM   10  C   UNK N   1      35.970  15.302  11.978  0.00  0.00     0.128 A 
HETATM   11  C   UNK N   1      34.860  16.716  10.186  0.00  0.00     0.264 A 
HETATM   12  C   UNK N   1      32.947  15.599   9.261  0.00  0.00     0.328 A 
HETATM   13  H   UNK N   1      34.113  12.762  11.968  0.00  0.00     0.188 HD
HETATM   14  H   UNK N   1      36.131  13.587  13.159  0.00  0.00     0.186 HD
HETATM   15  H   UNK N   1      33.642  17.458   8.711  0.00  0.00     0.173 HD
ENDROOT
TORSDOF 0
ENDMDL
