REMARK  7 active torsions:
REMARK  status: ('A' for Active; 'I' for Inactive)
REMARK    1  A    between atoms: C_16  and  O_3 
REMARK    2  A    between atoms: O_5  and  C_22 
REMARK    3  A    between atoms: O_5  and  C_23 
REMARK    4  A    between atoms: C_12  and  C_16 
REMARK    5  A    between atoms: C_14  and  C_17 
REMARK    6  A    between atoms: C_15  and  C_22 
REMARK    7  A    between atoms: C_23  and  C_24 
ROOT
HETATM    1  S   UNK N   1       4.771   4.053   0.754  0.00  0.00    -0.102 SA
HETATM    2  O   UNK N   1       2.642   0.526   0.818  0.00  0.00    -0.272 OA
HETATM    3  N   UNK N   1       3.932   1.924  -0.398  0.00  0.00    -0.296 N 
HETATM    4  C   UNK N   1       3.548   3.293  -0.410  0.00  0.00     0.175 A 
HETATM    5  C   UNK N   1       2.093   2.798   0.084  0.00  0.00     0.140 A 
HETATM    6  C   UNK N   1       2.795   1.482   0.079  0.00  0.00     0.235 A 
HETATM    7  C   UNK N   1       5.904   2.674   0.402  0.00  0.00     0.042 C 
HETATM    8  C   UNK N   1       5.273   1.612  -0.107  0.00  0.00     0.129 C 
ENDROOT
BRANCH   8   9
HETATM    9  C   UNK N   1       5.961   0.359  -0.560  0.00  0.00     0.311 C 
HETATM   10  O   UNK N   1       6.959   0.463  -1.253  0.00  0.00    -0.258 OA
BRANCH   9  11
HETATM   11  O   UNK N   1       5.545  -0.887  -0.238  0.00  0.00    -0.310 OA
BRANCH  11  12
HETATM   12  C   UNK N   1       4.741  -1.178   0.831  0.00  0.00     0.247 C 
BRANCH  12  13
HETATM   13  C   UNK N   1       3.922  -2.371   0.496  0.00  0.00     0.112 A 
HETATM   14  O   UNK N   1       3.934  -3.507   1.153  0.00  0.00    -0.255 OA
HETATM   15  C   UNK N   1       3.092  -4.302   0.534  0.00  0.00     0.416 A 
HETATM   16  O   UNK N   1       2.538  -3.715  -0.502  0.00  0.00    -0.257 OA
HETATM   17  O   UNK N   1       2.857  -5.447   0.875  0.00  0.00    -0.229 OA
HETATM   18  C   UNK N   1       3.037  -2.503  -0.553  0.00  0.00     0.087 A 
HETATM   19  C   UNK N   1       2.699  -1.484  -1.585  0.00  0.00     0.079 C 
ENDBRANCH  12  13
ENDBRANCH  11  12
ENDBRANCH   9  11
ENDBRANCH   8   9
BRANCH   7  20
HETATM   20  C   UNK N   1       7.384   2.781   0.676  0.00  0.00     0.163 C 
HETATM   21  O   UNK N   1       7.901   1.617   1.278  0.00  0.00    -0.381 OA
HETATM   22  C   UNK N   1       9.138   1.351   0.648  0.00  0.00     0.168 C 
HETATM   23  C   UNK N   1       9.465   2.468  -0.317  0.00  0.00     0.029 C 
HETATM   24  C   UNK N   1       8.118   3.022  -0.619  0.00  0.00     0.039 C 
ENDBRANCH   7  20
BRANCH   5  25
HETATM   25  C   UNK N   1       1.629   3.328   1.434  0.00  0.00     0.130 C 
HETATM   26  C   UNK N   1       1.259   4.795   1.299  0.00  0.00     0.040 C 
BRANCH  25  27
HETATM   27  O   UNK N   1       0.501   2.618   1.847  0.00  0.00    -0.395 OA
HETATM   28  H   UNK N   1      -0.319   3.051   2.134  0.00  0.00     0.210 HD
ENDBRANCH  25  27
ENDBRANCH   5  25
TORSDOF 7
