MODEL 1
REMARK VINA RESULT:      -5.4      0.000      0.000
REMARK  14 active torsions:
REMARK  status: ('A' for Active; 'I' for Inactive)
REMARK    1  A    between atoms: O_1  and  C_18 
REMARK    2  A    between atoms: O_1  and  C_19 
REMARK    3  A    between atoms: O_2  and  C_20 
REMARK    4  A    between atoms: O_3  and  C_21 
REMARK    5  A    between atoms: C_6  and  C_8 
REMARK    6  A    between atoms: C_6  and  C_20 
REMARK    7  A    between atoms: C_7  and  C_9 
REMARK    8  A    between atoms: C_7  and  C_21 
REMARK    9  A    between atoms: C_8  and  C_10 
REMARK   10  A    between atoms: C_9  and  C_11 
REMARK   11  A    between atoms: C_10  and  C_12 
REMARK   12  A    between atoms: C_11  and  C_13 
REMARK   13  A    between atoms: C_12  and  C_18 
REMARK   14  A    between atoms: C_13  and  C_19 
ROOT
HETATM    1  O   UNK N   1      27.886  23.155  -7.442  0.00  0.00    -0.391 OA
ENDROOT
BRANCH   1   2
HETATM    2  C   UNK N   1      27.996  21.763  -7.412  0.00  0.00     0.167 C 
BRANCH   2   3
HETATM    3  C   UNK N   1      29.376  21.359  -6.921  0.00  0.00     0.026 C 
BRANCH   3   4
HETATM    4  C   UNK N   1      29.839  22.334  -5.852  0.00  0.00     0.003 C 
BRANCH   4   5
HETATM    5  C   UNK N   1      30.147  21.676  -4.502  0.00  0.00     0.020 C 
BRANCH   5   6
HETATM    6  C   UNK N   1      30.972  22.508  -3.506  0.00  0.00     0.038 C 
HETATM    7  C   UNK N   1      32.091  21.665  -2.917  0.00  0.00     0.026 C 
HETATM    8  C   UNK N   1      31.588  23.723  -4.198  0.00  0.00     0.026 C 
BRANCH   6   9
HETATM    9  C   UNK N   1      30.057  22.942  -2.384  0.00  0.00     0.147 C 
HETATM   10  O   UNK N   1      30.471  23.038  -1.238  0.00  0.00    -0.649 OA
BRANCH   9  11
HETATM   11  O   UNK N   1      28.768  23.236  -2.645  0.00  0.00    -0.776 OA
HETATM   12  H   UNK N   1      28.085  23.205  -2.004  0.00  0.00     0.167 HD
ENDBRANCH   9  11
ENDBRANCH   6   9
ENDBRANCH   5   6
ENDBRANCH   4   5
ENDBRANCH   3   4
ENDBRANCH   2   3
ENDBRANCH   1   2
BRANCH   1  13
HETATM   13  C   UNK N   1      26.533  23.403  -7.200  0.00  0.00     0.167 C 
BRANCH  13  14
HETATM   14  C   UNK N   1      26.318  23.751  -5.738  0.00  0.00     0.026 C 
BRANCH  14  15
HETATM   15  C   UNK N   1      27.141  24.981  -5.403  0.00  0.00     0.003 C 
BRANCH  15  16
HETATM   16  C   UNK N   1      26.443  25.900  -4.399  0.00  0.00     0.020 C 
BRANCH  16  17
HETATM   17  C   UNK N   1      25.983  27.253  -4.966  0.00  0.00     0.038 C 
HETATM   18  C   UNK N   1      27.034  27.803  -5.921  0.00  0.00     0.026 C 
HETATM   19  C   UNK N   1      24.672  27.104  -5.726  0.00  0.00     0.026 C 
BRANCH  17  20
HETATM   20  C   UNK N   1      25.767  28.206  -3.814  0.00  0.00     0.147 C 
HETATM   21  O   UNK N   1      25.489  27.771  -2.706  0.00  0.00    -0.649 OA
BRANCH  20  22
HETATM   22  O   UNK N   1      25.880  29.539  -3.988  0.00  0.00    -0.776 OA
HETATM   23  H   UNK N   1      25.504  29.979  -4.725  0.00  0.00     0.167 HD
ENDBRANCH  20  22
ENDBRANCH  17  20
ENDBRANCH  16  17
ENDBRANCH  15  16
ENDBRANCH  14  15
ENDBRANCH  13  14
ENDBRANCH   1  13
TORSDOF 14
ENDMDL
MODEL 2
REMARK VINA RESULT:      -5.2      1.989      6.700
REMARK  14 active torsions:
REMARK  status: ('A' for Active; 'I' for Inactive)
REMARK    1  A    between atoms: O_1  and  C_18 
REMARK    2  A    between atoms: O_1  and  C_19 
REMARK    3  A    between atoms: O_2  and  C_20 
REMARK    4  A    between atoms: O_3  and  C_21 
REMARK    5  A    between atoms: C_6  and  C_8 
REMARK    6  A    between atoms: C_6  and  C_20 
REMARK    7  A    between atoms: C_7  and  C_9 
REMARK    8  A    between atoms: C_7  and  C_21 
REMARK    9  A    between atoms: C_8  and  C_10 
REMARK   10  A    between atoms: C_9  and  C_11 
REMARK   11  A    between atoms: C_10  and  C_12 
REMARK   12  A    between atoms: C_11  and  C_13 
REMARK   13  A    between atoms: C_12  and  C_18 
REMARK   14  A    between atoms: C_13  and  C_19 
ROOT
HETATM    1  O   UNK N   1      27.632  26.573  -4.493  0.00  0.00    -0.391 OA
ENDROOT
BRANCH   1   2
HETATM    2  C   UNK N   1      26.447  26.142  -3.893  0.00  0.00     0.167 C 
BRANCH   2   3
HETATM    3  C   UNK N   1      26.232  24.662  -4.163  0.00  0.00     0.026 C 
BRANCH   3   4
HETATM    4  C   UNK N   1      25.729  24.475  -5.584  0.00  0.00     0.003 C 
BRANCH   4   5
HETATM    5  C   UNK N   1      25.630  23.009  -6.020  0.00  0.00     0.020 C 
BRANCH   5   6
HETATM    6  C   UNK N   1      26.054  22.692  -7.464  0.00  0.00     0.038 C 
HETATM    7  C   UNK N   1      26.008  23.951  -8.314  0.00  0.00     0.026 C 
HETATM    8  C   UNK N   1      27.474  22.131  -7.499  0.00  0.00     0.026 C 
BRANCH   6   9
HETATM    9  C   UNK N   1      25.072  21.694  -8.034  0.00  0.00     0.147 C 
HETATM   10  O   UNK N   1      25.449  20.604  -8.437  0.00  0.00    -0.649 OA
BRANCH   9  11
HETATM   11  O   UNK N   1      23.761  22.001  -8.093  0.00  0.00    -0.776 OA
HETATM   12  H   UNK N   1      23.112  21.449  -8.483  0.00  0.00     0.167 HD
ENDBRANCH   9  11
ENDBRANCH   6   9
ENDBRANCH   5   6
ENDBRANCH   4   5
ENDBRANCH   3   4
ENDBRANCH   2   3
ENDBRANCH   1   2
BRANCH   1  13
HETATM   13  C   UNK N   1      28.637  25.869  -3.827  0.00  0.00     0.167 C 
BRANCH  13  14
HETATM   14  C   UNK N   1      29.808  25.620  -4.760  0.00  0.00     0.026 C 
BRANCH  14  15
HETATM   15  C   UNK N   1      29.689  24.220  -5.331  0.00  0.00     0.003 C 
BRANCH  15  16
HETATM   16  C   UNK N   1      29.620  23.145  -4.245  0.00  0.00     0.020 C 
BRANCH  16  17
HETATM   17  C   UNK N   1      30.896  22.304  -4.080  0.00  0.00     0.038 C 
HETATM   18  C   UNK N   1      30.660  20.890  -4.592  0.00  0.00     0.026 C 
HETATM   19  C   UNK N   1      32.051  22.914  -4.863  0.00  0.00     0.026 C 
BRANCH  17  20
HETATM   20  C   UNK N   1      31.267  22.279  -2.615  0.00  0.00     0.147 C 
HETATM   21  O   UNK N   1      30.710  23.036  -1.833  0.00  0.00    -0.649 OA
BRANCH  20  22
HETATM   22  O   UNK N   1      32.206  21.428  -2.153  0.00  0.00    -0.776 OA
HETATM   23  H   UNK N   1      32.666  20.840  -2.718  0.00  0.00     0.167 HD
ENDBRANCH  20  22
ENDBRANCH  17  20
ENDBRANCH  16  17
ENDBRANCH  15  16
ENDBRANCH  14  15
ENDBRANCH  13  14
ENDBRANCH   1  13
TORSDOF 14
ENDMDL
MODEL 3
REMARK VINA RESULT:      -5.2      2.161      4.199
REMARK  14 active torsions:
REMARK  status: ('A' for Active; 'I' for Inactive)
REMARK    1  A    between atoms: O_1  and  C_18 
REMARK    2  A    between atoms: O_1  and  C_19 
REMARK    3  A    between atoms: O_2  and  C_20 
REMARK    4  A    between atoms: O_3  and  C_21 
REMARK    5  A    between atoms: C_6  and  C_8 
REMARK    6  A    between atoms: C_6  and  C_20 
REMARK    7  A    between atoms: C_7  and  C_9 
REMARK    8  A    between atoms: C_7  and  C_21 
REMARK    9  A    between atoms: C_8  and  C_10 
REMARK   10  A    between atoms: C_9  and  C_11 
REMARK   11  A    between atoms: C_10  and  C_12 
REMARK   12  A    between atoms: C_11  and  C_13 
REMARK   13  A    between atoms: C_12  and  C_18 
REMARK   14  A    between atoms: C_13  and  C_19 
ROOT
HETATM    1  O   UNK N   1      30.269  28.904  -4.861  0.00  0.00    -0.391 OA
ENDROOT
BRANCH   1   2
HETATM    2  C   UNK N   1      30.292  28.194  -3.659  0.00  0.00     0.167 C 
BRANCH   2   3
HETATM    3  C   UNK N   1      31.254  27.022  -3.762  0.00  0.00     0.026 C 
BRANCH   3   4
HETATM    4  C   UNK N   1      30.487  25.722  -3.595  0.00  0.00     0.003 C 
BRANCH   4   5
HETATM    5  C   UNK N   1      31.293  24.473  -3.970  0.00  0.00     0.020 C 
BRANCH   5   6
HETATM    6  C   UNK N   1      30.587  23.119  -3.785  0.00  0.00     0.038 C 
HETATM    7  C   UNK N   1      29.079  23.300  -3.846  0.00  0.00     0.026 C 
HETATM    8  C   UNK N   1      31.007  22.138  -4.878  0.00  0.00     0.026 C 
BRANCH   6   9
HETATM    9  C   UNK N   1      30.950  22.582  -2.419  0.00  0.00     0.147 C 
HETATM   10  O   UNK N   1      30.380  22.983  -1.416  0.00  0.00    -0.649 OA
BRANCH   9  11
HETATM   11  O   UNK N   1      31.909  21.641  -2.301  0.00  0.00    -0.776 OA
HETATM   12  H   UNK N   1      31.957  21.032  -1.591  0.00  0.00     0.167 HD
ENDBRANCH   9  11
ENDBRANCH   6   9
ENDBRANCH   5   6
ENDBRANCH   4   5
ENDBRANCH   3   4
ENDBRANCH   2   3
ENDBRANCH   1   2
BRANCH   1  13
HETATM   13  C   UNK N   1      29.348  29.931  -4.642  0.00  0.00     0.167 C 
BRANCH  13  14
HETATM   14  C   UNK N   1      28.567  30.213  -5.912  0.00  0.00     0.026 C 
BRANCH  14  15
HETATM   15  C   UNK N   1      27.702  29.008  -6.231  0.00  0.00     0.003 C 
BRANCH  15  16
HETATM   16  C   UNK N   1      26.729  28.667  -5.101  0.00  0.00     0.020 C 
BRANCH  16  17
HETATM   17  C   UNK N   1      26.362  27.178  -4.986  0.00  0.00     0.038 C 
HETATM   18  C   UNK N   1      25.045  26.908  -5.702  0.00  0.00     0.026 C 
HETATM   19  C   UNK N   1      27.440  26.305  -5.614  0.00  0.00     0.026 C 
BRANCH  17  20
HETATM   20  C   UNK N   1      26.248  26.825  -3.521  0.00  0.00     0.147 C 
HETATM   21  O   UNK N   1      26.041  27.704  -2.697  0.00  0.00    -0.649 OA
BRANCH  20  22
HETATM   22  O   UNK N   1      26.368  25.548  -3.106  0.00  0.00    -0.776 OA
HETATM   23  H   UNK N   1      25.735  25.144  -2.545  0.00  0.00     0.167 HD
ENDBRANCH  20  22
ENDBRANCH  17  20
ENDBRANCH  16  17
ENDBRANCH  15  16
ENDBRANCH  14  15
ENDBRANCH  13  14
ENDBRANCH   1  13
TORSDOF 14
ENDMDL
MODEL 4
REMARK VINA RESULT:      -5.2     17.882     22.347
REMARK  14 active torsions:
REMARK  status: ('A' for Active; 'I' for Inactive)
REMARK    1  A    between atoms: O_1  and  C_18 
REMARK    2  A    between atoms: O_1  and  C_19 
REMARK    3  A    between atoms: O_2  and  C_20 
REMARK    4  A    between atoms: O_3  and  C_21 
REMARK    5  A    between atoms: C_6  and  C_8 
REMARK    6  A    between atoms: C_6  and  C_20 
REMARK    7  A    between atoms: C_7  and  C_9 
REMARK    8  A    between atoms: C_7  and  C_21 
REMARK    9  A    between atoms: C_8  and  C_10 
REMARK   10  A    between atoms: C_9  and  C_11 
REMARK   11  A    between atoms: C_10  and  C_12 
REMARK   12  A    between atoms: C_11  and  C_13 
REMARK   13  A    between atoms: C_12  and  C_18 
REMARK   14  A    between atoms: C_13  and  C_19 
ROOT
HETATM    1  O   UNK N   1      34.703  13.235  13.255  0.00  0.00    -0.391 OA
ENDROOT
BRANCH   1   2
HETATM    2  C   UNK N   1      35.408  14.197  12.530  0.00  0.00     0.167 C 
BRANCH   2   3
HETATM    3  C   UNK N   1      34.880  14.271  11.107  0.00  0.00     0.026 C 
BRANCH   3   4
HETATM    4  C   UNK N   1      35.677  15.300  10.324  0.00  0.00     0.003 C 
BRANCH   4   5
HETATM    5  C   UNK N   1      34.891  16.573   9.992  0.00  0.00     0.020 C 
BRANCH   5   6
HETATM    6  C   UNK N   1      34.248  16.639   8.597  0.00  0.00     0.038 C 
HETATM    7  C   UNK N   1      34.792  15.527   7.714  0.00  0.00     0.026 C 
HETATM    8  C   UNK N   1      32.731  16.488   8.695  0.00  0.00     0.026 C 
BRANCH   6   9
HETATM    9  C   UNK N   1      34.612  17.967   7.973  0.00  0.00     0.147 C 
HETATM   10  O   UNK N   1      34.358  18.200   6.801  0.00  0.00    -0.649 OA
BRANCH   9  11
HETATM   11  O   UNK N   1      35.219  18.914   8.717  0.00  0.00    -0.776 OA
HETATM   12  H   UNK N   1      34.815  19.723   8.961  0.00  0.00     0.167 HD
ENDBRANCH   9  11
ENDBRANCH   6   9
ENDBRANCH   5   6
ENDBRANCH   4   5
ENDBRANCH   3   4
ENDBRANCH   2   3
ENDBRANCH   1   2
BRANCH   1  13
HETATM   13  C   UNK N   1      34.894  12.050  12.540  0.00  0.00     0.167 C 
BRANCH  13  14
HETATM   14  C   UNK N   1      34.241  10.889  13.268  0.00  0.00     0.026 C 
BRANCH  14  15
HETATM   15  C   UNK N   1      33.893  11.330  14.677  0.00  0.00     0.003 C 
BRANCH  15  16
HETATM   16  C   UNK N   1      34.562  10.464  15.747  0.00  0.00     0.020 C 
BRANCH  16  17
HETATM   17  C   UNK N   1      35.817  11.078  16.388  0.00  0.00     0.038 C 
HETATM   18  C   UNK N   1      36.142  10.361  17.692  0.00  0.00     0.026 C 
HETATM   19  C   UNK N   1      37.017  10.952  15.458  0.00  0.00     0.026 C 
BRANCH  17  20
HETATM   20  C   UNK N   1      35.556  12.544  16.643  0.00  0.00     0.147 C 
HETATM   21  O   UNK N   1      34.805  12.881  17.546  0.00  0.00    -0.649 OA
BRANCH  20  22
HETATM   22  O   UNK N   1      36.145  13.494  15.887  0.00  0.00    -0.776 OA
HETATM   23  H   UNK N   1      35.649  14.107  15.382  0.00  0.00     0.167 HD
ENDBRANCH  20  22
ENDBRANCH  17  20
ENDBRANCH  16  17
ENDBRANCH  15  16
ENDBRANCH  14  15
ENDBRANCH  13  14
ENDBRANCH   1  13
TORSDOF 14
ENDMDL
MODEL 5
REMARK VINA RESULT:      -5.1      1.860      6.142
REMARK  14 active torsions:
REMARK  status: ('A' for Active; 'I' for Inactive)
REMARK    1  A    between atoms: O_1  and  C_18 
REMARK    2  A    between atoms: O_1  and  C_19 
REMARK    3  A    between atoms: O_2  and  C_20 
REMARK    4  A    between atoms: O_3  and  C_21 
REMARK    5  A    between atoms: C_6  and  C_8 
REMARK    6  A    between atoms: C_6  and  C_20 
REMARK    7  A    between atoms: C_7  and  C_9 
REMARK    8  A    between atoms: C_7  and  C_21 
REMARK    9  A    between atoms: C_8  and  C_10 
REMARK   10  A    between atoms: C_9  and  C_11 
REMARK   11  A    between atoms: C_10  and  C_12 
REMARK   12  A    between atoms: C_11  and  C_13 
REMARK   13  A    between atoms: C_12  and  C_18 
REMARK   14  A    between atoms: C_13  and  C_19 
ROOT
HETATM    1  O   UNK N   1      25.802  25.917  -6.218  0.00  0.00    -0.391 OA
ENDROOT
BRANCH   1   2
HETATM    2  C   UNK N   1      26.228  26.637  -7.335  0.00  0.00     0.167 C 
BRANCH   2   3
HETATM    3  C   UNK N   1      27.693  27.011  -7.189  0.00  0.00     0.026 C 
BRANCH   3   4
HETATM    4  C   UNK N   1      27.952  27.503  -5.775  0.00  0.00     0.003 C 
BRANCH   4   5
HETATM    5  C   UNK N   1      27.343  28.877  -5.474  0.00  0.00     0.020 C 
BRANCH   5   6
HETATM    6  C   UNK N   1      26.974  29.157  -4.008  0.00  0.00     0.038 C 
HETATM    7  C   UNK N   1      28.178  28.930  -3.109  0.00  0.00     0.026 C 
HETATM    8  C   UNK N   1      26.502  30.600  -3.837  0.00  0.00     0.026 C 
BRANCH   6   9
HETATM    9  C   UNK N   1      25.885  28.190  -3.603  0.00  0.00     0.147 C 
HETATM   10  O   UNK N   1      25.983  27.527  -2.581  0.00  0.00    -0.649 OA
BRANCH   9  11
HETATM   11  O   UNK N   1      24.785  28.057  -4.372  0.00  0.00    -0.776 OA
HETATM   12  H   UNK N   1      24.711  28.401  -5.240  0.00  0.00     0.167 HD
ENDBRANCH   9  11
ENDBRANCH   6   9
ENDBRANCH   5   6
ENDBRANCH   4   5
ENDBRANCH   3   4
ENDBRANCH   2   3
ENDBRANCH   1   2
BRANCH   1  13
HETATM   13  C   UNK N   1      25.930  24.578  -6.595  0.00  0.00     0.167 C 
BRANCH  13  14
HETATM   14  C   UNK N   1      26.356  23.737  -5.406  0.00  0.00     0.026 C 
BRANCH  14  15
HETATM   15  C   UNK N   1      27.871  23.670  -5.372  0.00  0.00     0.003 C 
BRANCH  15  16
HETATM   16  C   UNK N   1      28.451  24.133  -4.035  0.00  0.00     0.020 C 
BRANCH  16  17
HETATM   17  C   UNK N   1      29.972  23.958  -3.890  0.00  0.00     0.038 C 
HETATM   18  C   UNK N   1      30.584  23.575  -5.230  0.00  0.00     0.026 C 
HETATM   19  C   UNK N   1      30.623  25.250  -3.414  0.00  0.00     0.026 C 
BRANCH  17  20
HETATM   20  C   UNK N   1      30.233  22.880  -2.863  0.00  0.00     0.147 C 
HETATM   21  O   UNK N   1      30.525  23.188  -1.717  0.00  0.00    -0.649 OA
BRANCH  20  22
HETATM   22  O   UNK N   1      30.148  21.575  -3.193  0.00  0.00    -0.776 OA
HETATM   23  H   UNK N   1      30.345  20.892  -2.582  0.00  0.00     0.167 HD
ENDBRANCH  20  22
ENDBRANCH  17  20
ENDBRANCH  16  17
ENDBRANCH  15  16
ENDBRANCH  14  15
ENDBRANCH  13  14
ENDBRANCH   1  13
TORSDOF 14
ENDMDL
MODEL 6
REMARK VINA RESULT:      -5.1      1.404      6.010
REMARK  14 active torsions:
REMARK  status: ('A' for Active; 'I' for Inactive)
REMARK    1  A    between atoms: O_1  and  C_18 
REMARK    2  A    between atoms: O_1  and  C_19 
REMARK    3  A    between atoms: O_2  and  C_20 
REMARK    4  A    between atoms: O_3  and  C_21 
REMARK    5  A    between atoms: C_6  and  C_8 
REMARK    6  A    between atoms: C_6  and  C_20 
REMARK    7  A    between atoms: C_7  and  C_9 
REMARK    8  A    between atoms: C_7  and  C_21 
REMARK    9  A    between atoms: C_8  and  C_10 
REMARK   10  A    between atoms: C_9  and  C_11 
REMARK   11  A    between atoms: C_10  and  C_12 
REMARK   12  A    between atoms: C_11  and  C_13 
REMARK   13  A    between atoms: C_12  and  C_18 
REMARK   14  A    between atoms: C_13  and  C_19 
ROOT
HETATM    1  O   UNK N   1      27.890  24.523  -8.412  0.00  0.00    -0.391 OA
ENDROOT
BRANCH   1   2
HETATM    2  C   UNK N   1      26.494  24.507  -8.418  0.00  0.00     0.167 C 
BRANCH   2   3
HETATM    3  C   UNK N   1      25.953  25.916  -8.247  0.00  0.00     0.026 C 
BRANCH   3   4
HETATM    4  C   UNK N   1      25.621  26.157  -6.785  0.00  0.00     0.003 C 
BRANCH   4   5
HETATM    5  C   UNK N   1      26.377  27.337  -6.162  0.00  0.00     0.020 C 
BRANCH   5   6
HETATM    6  C   UNK N   1      26.845  27.162  -4.708  0.00  0.00     0.038 C 
HETATM    7  C   UNK N   1      26.466  25.782  -4.196  0.00  0.00     0.026 C 
HETATM    8  C   UNK N   1      28.360  27.322  -4.607  0.00  0.00     0.026 C 
BRANCH   6   9
HETATM    9  C   UNK N   1      26.141  28.197  -3.860  0.00  0.00     0.147 C 
HETATM   10  O   UNK N   1      26.175  29.381  -4.159  0.00  0.00    -0.649 OA
BRANCH   9  11
HETATM   11  O   UNK N   1      25.459  27.813  -2.762  0.00  0.00    -0.776 OA
HETATM   12  H   UNK N   1      24.676  28.232  -2.462  0.00  0.00     0.167 HD
ENDBRANCH   9  11
ENDBRANCH   6   9
ENDBRANCH   5   6
ENDBRANCH   4   5
ENDBRANCH   3   4
ENDBRANCH   2   3
ENDBRANCH   1   2
BRANCH   1  13
HETATM   13  C   UNK N   1      28.251  23.261  -7.934  0.00  0.00     0.167 C 
BRANCH  13  14
HETATM   14  C   UNK N   1      28.023  23.184  -6.436  0.00  0.00     0.026 C 
BRANCH  14  15
HETATM   15  C   UNK N   1      29.234  23.762  -5.727  0.00  0.00     0.003 C 
BRANCH  15  16
HETATM   16  C   UNK N   1      29.645  22.943  -4.502  0.00  0.00     0.020 C 
BRANCH  16  17
HETATM   17  C   UNK N   1      30.879  23.470  -3.752  0.00  0.00     0.038 C 
HETATM   18  C   UNK N   1      32.128  23.285  -4.604  0.00  0.00     0.026 C 
HETATM   19  C   UNK N   1      30.728  24.952  -3.434  0.00  0.00     0.026 C 
BRANCH  17  20
HETATM   20  C   UNK N   1      31.010  22.709  -2.453  0.00  0.00     0.147 C 
HETATM   21  O   UNK N   1      31.777  21.761  -2.376  0.00  0.00    -0.649 OA
BRANCH  20  22
HETATM   22  O   UNK N   1      30.291  23.064  -1.368  0.00  0.00    -0.776 OA
HETATM   23  H   UNK N   1      29.376  23.262  -1.419  0.00  0.00     0.167 HD
ENDBRANCH  20  22
ENDBRANCH  17  20
ENDBRANCH  16  17
ENDBRANCH  15  16
ENDBRANCH  14  15
ENDBRANCH  13  14
ENDBRANCH   1  13
TORSDOF 14
ENDMDL
MODEL 7
REMARK VINA RESULT:      -5.1      1.529      5.619
REMARK  14 active torsions:
REMARK  status: ('A' for Active; 'I' for Inactive)
REMARK    1  A    between atoms: O_1  and  C_18 
REMARK    2  A    between atoms: O_1  and  C_19 
REMARK    3  A    between atoms: O_2  and  C_20 
REMARK    4  A    between atoms: O_3  and  C_21 
REMARK    5  A    between atoms: C_6  and  C_8 
REMARK    6  A    between atoms: C_6  and  C_20 
REMARK    7  A    between atoms: C_7  and  C_9 
REMARK    8  A    between atoms: C_7  and  C_21 
REMARK    9  A    between atoms: C_8  and  C_10 
REMARK   10  A    between atoms: C_9  and  C_11 
REMARK   11  A    between atoms: C_10  and  C_12 
REMARK   12  A    between atoms: C_11  and  C_13 
REMARK   13  A    between atoms: C_12  and  C_18 
REMARK   14  A    between atoms: C_13  and  C_19 
ROOT
HETATM    1  O   UNK N   1      29.013  23.349  -8.350  0.00  0.00    -0.391 OA
ENDROOT
BRANCH   1   2
HETATM    2  C   UNK N   1      28.033  24.313  -8.597  0.00  0.00     0.167 C 
BRANCH   2   3
HETATM    3  C   UNK N   1      28.517  25.679  -8.141  0.00  0.00     0.026 C 
BRANCH   3   4
HETATM    4  C   UNK N   1      27.574  26.223  -7.082  0.00  0.00     0.003 C 
BRANCH   4   5
HETATM    5  C   UNK N   1      27.636  25.470  -5.749  0.00  0.00     0.020 C 
BRANCH   5   6
HETATM    6  C   UNK N   1      26.290  25.052  -5.133  0.00  0.00     0.038 C 
HETATM    7  C   UNK N   1      25.201  26.031  -5.538  0.00  0.00     0.026 C 
HETATM    8  C   UNK N   1      25.893  23.655  -5.603  0.00  0.00     0.026 C 
BRANCH   6   9
HETATM    9  C   UNK N   1      26.431  25.088  -3.628  0.00  0.00     0.147 C 
HETATM   10  O   UNK N   1      26.649  24.066  -2.994  0.00  0.00    -0.649 OA
BRANCH   9  11
HETATM   11  O   UNK N   1      26.324  26.261  -2.972  0.00  0.00    -0.776 OA
HETATM   12  H   UNK N   1      26.086  26.333  -2.069  0.00  0.00     0.167 HD
ENDBRANCH   9  11
ENDBRANCH   6   9
ENDBRANCH   5   6
ENDBRANCH   4   5
ENDBRANCH   3   4
ENDBRANCH   2   3
ENDBRANCH   1   2
BRANCH   1  13
HETATM   13  C   UNK N   1      28.305  22.250  -7.857  0.00  0.00     0.167 C 
BRANCH  13  14
HETATM   14  C   UNK N   1      29.094  21.573  -6.751  0.00  0.00     0.026 C 
BRANCH  14  15
HETATM   15  C   UNK N   1      29.950  22.614  -6.053  0.00  0.00     0.003 C 
BRANCH  15  16
HETATM   16  C   UNK N   1      29.739  22.628  -4.538  0.00  0.00     0.020 C 
BRANCH  16  17
HETATM   17  C   UNK N   1      30.832  23.355  -3.737  0.00  0.00     0.038 C 
HETATM   18  C   UNK N   1      32.136  23.367  -4.523  0.00  0.00     0.026 C 
HETATM   19  C   UNK N   1      30.427  24.796  -3.454  0.00  0.00     0.026 C 
BRANCH  17  20
HETATM   20  C   UNK N   1      31.016  22.638  -2.420  0.00  0.00     0.147 C 
HETATM   21  O   UNK N   1      30.391  23.003  -1.434  0.00  0.00    -0.649 OA
BRANCH  20  22
HETATM   22  O   UNK N   1      31.862  21.593  -2.313  0.00  0.00    -0.776 OA
HETATM   23  H   UNK N   1      32.343  21.264  -3.047  0.00  0.00     0.167 HD
ENDBRANCH  20  22
ENDBRANCH  17  20
ENDBRANCH  16  17
ENDBRANCH  15  16
ENDBRANCH  14  15
ENDBRANCH  13  14
ENDBRANCH   1  13
TORSDOF 14
ENDMDL
MODEL 8
REMARK VINA RESULT:      -5.0      1.891      2.536
REMARK  14 active torsions:
REMARK  status: ('A' for Active; 'I' for Inactive)
REMARK    1  A    between atoms: O_1  and  C_18 
REMARK    2  A    between atoms: O_1  and  C_19 
REMARK    3  A    between atoms: O_2  and  C_20 
REMARK    4  A    between atoms: O_3  and  C_21 
REMARK    5  A    between atoms: C_6  and  C_8 
REMARK    6  A    between atoms: C_6  and  C_20 
REMARK    7  A    between atoms: C_7  and  C_9 
REMARK    8  A    between atoms: C_7  and  C_21 
REMARK    9  A    between atoms: C_8  and  C_10 
REMARK   10  A    between atoms: C_9  and  C_11 
REMARK   11  A    between atoms: C_10  and  C_12 
REMARK   12  A    between atoms: C_11  and  C_13 
REMARK   13  A    between atoms: C_12  and  C_18 
REMARK   14  A    between atoms: C_13  and  C_19 
ROOT
HETATM    1  O   UNK N   1      26.863  23.986  -7.426  0.00  0.00    -0.391 OA
ENDROOT
BRANCH   1   2
HETATM    2  C   UNK N   1      27.503  22.831  -7.878  0.00  0.00     0.167 C 
BRANCH   2   3
HETATM    3  C   UNK N   1      28.916  22.765  -7.326  0.00  0.00     0.026 C 
BRANCH   3   4
HETATM    4  C   UNK N   1      28.894  23.077  -5.839  0.00  0.00     0.003 C 
BRANCH   4   5
HETATM    5  C   UNK N   1      29.739  22.120  -4.991  0.00  0.00     0.020 C 
BRANCH   5   6
HETATM    6  C   UNK N   1      30.558  22.753  -3.853  0.00  0.00     0.038 C 
HETATM    7  C   UNK N   1      31.564  23.742  -4.417  0.00  0.00     0.026 C 
HETATM    8  C   UNK N   1      29.644  23.488  -2.875  0.00  0.00     0.026 C 
BRANCH   6   9
HETATM    9  C   UNK N   1      31.314  21.650  -3.149  0.00  0.00     0.147 C 
HETATM   10  O   UNK N   1      31.957  21.878  -2.135  0.00  0.00    -0.649 OA
BRANCH   9  11
HETATM   11  O   UNK N   1      31.277  20.393  -3.636  0.00  0.00    -0.776 OA
HETATM   12  H   UNK N   1      31.955  20.017  -4.162  0.00  0.00     0.167 HD
ENDBRANCH   9  11
ENDBRANCH   6   9
ENDBRANCH   5   6
ENDBRANCH   4   5
ENDBRANCH   3   4
ENDBRANCH   2   3
ENDBRANCH   1   2
BRANCH   1  13
HETATM   13  C   UNK N   1      26.850  24.835  -8.535  0.00  0.00     0.167 C 
BRANCH  13  14
HETATM   14  C   UNK N   1      26.009  26.064  -8.243  0.00  0.00     0.026 C 
BRANCH  14  15
HETATM   15  C   UNK N   1      26.655  26.842  -7.112  0.00  0.00     0.003 C 
BRANCH  15  16
HETATM   16  C   UNK N   1      25.770  26.915  -5.867  0.00  0.00     0.020 C 
BRANCH  16  17
HETATM   17  C   UNK N   1      26.416  26.383  -4.577  0.00  0.00     0.038 C 
HETATM   18  C   UNK N   1      27.934  26.421  -4.699  0.00  0.00     0.026 C 
HETATM   19  C   UNK N   1      26.008  27.229  -3.378  0.00  0.00     0.026 C 
BRANCH  17  20
HETATM   20  C   UNK N   1      25.940  24.967  -4.352  0.00  0.00     0.147 C 
HETATM   21  O   UNK N   1      26.274  24.365  -3.343  0.00  0.00    -0.649 OA
BRANCH  20  22
HETATM   22  O   UNK N   1      25.145  24.353  -5.253  0.00  0.00    -0.776 OA
HETATM   23  H   UNK N   1      25.221  23.438  -5.443  0.00  0.00     0.167 HD
ENDBRANCH  20  22
ENDBRANCH  17  20
ENDBRANCH  16  17
ENDBRANCH  15  16
ENDBRANCH  14  15
ENDBRANCH  13  14
ENDBRANCH   1  13
TORSDOF 14
ENDMDL
MODEL 9
REMARK VINA RESULT:      -4.9     16.997     21.608
REMARK  14 active torsions:
REMARK  status: ('A' for Active; 'I' for Inactive)
REMARK    1  A    between atoms: O_1  and  C_18 
REMARK    2  A    between atoms: O_1  and  C_19 
REMARK    3  A    between atoms: O_2  and  C_20 
REMARK    4  A    between atoms: O_3  and  C_21 
REMARK    5  A    between atoms: C_6  and  C_8 
REMARK    6  A    between atoms: C_6  and  C_20 
REMARK    7  A    between atoms: C_7  and  C_9 
REMARK    8  A    between atoms: C_7  and  C_21 
REMARK    9  A    between atoms: C_8  and  C_10 
REMARK   10  A    between atoms: C_9  and  C_11 
REMARK   11  A    between atoms: C_10  and  C_12 
REMARK   12  A    between atoms: C_11  and  C_13 
REMARK   13  A    between atoms: C_12  and  C_18 
REMARK   14  A    between atoms: C_13  and  C_19 
ROOT
HETATM    1  O   UNK N   1      34.869  13.904  12.621  0.00  0.00    -0.391 OA
ENDROOT
BRANCH   1   2
HETATM    2  C   UNK N   1      34.655  14.586  11.422  0.00  0.00     0.167 C 
BRANCH   2   3
HETATM    3  C   UNK N   1      35.225  15.991  11.510  0.00  0.00     0.026 C 
BRANCH   3   4
HETATM    4  C   UNK N   1      35.350  16.575  10.114  0.00  0.00     0.003 C 
BRANCH   4   5
HETATM    5  C   UNK N   1      34.139  16.301   9.215  0.00  0.00     0.020 C 
BRANCH   5   6
HETATM    6  C   UNK N   1      33.776  17.397   8.199  0.00  0.00     0.038 C 
HETATM    7  C   UNK N   1      32.344  17.858   8.411  0.00  0.00     0.026 C 
HETATM    8  C   UNK N   1      34.705  18.600   8.349  0.00  0.00     0.026 C 
BRANCH   6   9
HETATM    9  C   UNK N   1      33.889  16.807   6.811  0.00  0.00     0.147 C 
HETATM   10  O   UNK N   1      34.247  17.493   5.865  0.00  0.00    -0.649 OA
BRANCH   9  11
HETATM   11  O   UNK N   1      33.600  15.506   6.610  0.00  0.00    -0.776 OA
HETATM   12  H   UNK N   1      34.048  14.800   7.034  0.00  0.00     0.167 HD
ENDBRANCH   9  11
ENDBRANCH   6   9
ENDBRANCH   5   6
ENDBRANCH   4   5
ENDBRANCH   3   4
ENDBRANCH   2   3
ENDBRANCH   1   2
BRANCH   1  13
HETATM   13  C   UNK N   1      36.096  14.384  13.082  0.00  0.00     0.167 C 
BRANCH  13  14
HETATM   14  C   UNK N   1      36.298  13.997  14.536  0.00  0.00     0.026 C 
BRANCH  14  15
HETATM   15  C   UNK N   1      36.855  12.587  14.593  0.00  0.00     0.003 C 
BRANCH  15  16
HETATM   16  C   UNK N   1      35.942  11.624  15.354  0.00  0.00     0.020 C 
BRANCH  16  17
HETATM   17  C   UNK N   1      35.451  10.414  14.542  0.00  0.00     0.038 C 
HETATM   18  C   UNK N   1      36.462  10.068  13.457  0.00  0.00     0.026 C 
HETATM   19  C   UNK N   1      35.271   9.197  15.440  0.00  0.00     0.026 C 
BRANCH  17  20
HETATM   20  C   UNK N   1      34.115  10.761  13.927  0.00  0.00     0.147 C 
HETATM   21  O   UNK N   1      33.110  10.782  14.623  0.00  0.00    -0.649 OA
BRANCH  20  22
HETATM   22  O   UNK N   1      34.012  11.053  12.614  0.00  0.00    -0.776 OA
HETATM   23  H   UNK N   1      34.581  11.668  12.194  0.00  0.00     0.167 HD
ENDBRANCH  20  22
ENDBRANCH  17  20
ENDBRANCH  16  17
ENDBRANCH  15  16
ENDBRANCH  14  15
ENDBRANCH  13  14
ENDBRANCH   1  13
TORSDOF 14
ENDMDL
