MODEL 1
REMARK VINA RESULT:      -6.1      0.000      0.000
REMARK  7 active torsions:
REMARK  status: ('A' for Active; 'I' for Inactive)
REMARK    1  A    between atoms: C_5  and  C_8 
REMARK    2  A    between atoms: C_6  and  N_7 
REMARK    3  A    between atoms: N_7  and  C_9 
REMARK    4  A    between atoms: C_9  and  C_10 
REMARK    5  A    between atoms: C_16  and  O_21 
REMARK    6  A    between atoms: C_18  and  O_22 
REMARK    7  A    between atoms: O_21  and  C_24 
ROOT
HETATM    1  N   UNK N   1      28.153  24.511  -8.242  0.00  0.00    -0.411 N 
HETATM    2  H   UNK N   1      27.828  25.124  -8.990  0.00  0.00     0.154 HD
ENDROOT
BRANCH   1   3
HETATM    3  C   UNK N   1      27.325  23.482  -7.599  0.00  0.00     0.103 C 
HETATM    4  C   UNK N   1      27.279  22.293  -8.563  0.00  0.00     0.029 C 
HETATM    5  C   UNK N   1      26.311  21.218  -8.092  0.00  0.00     0.021 C 
HETATM    6  C   UNK N   1      24.945  21.852  -7.893  0.00  0.00     0.114 C 
HETATM    7  N   UNK N   1      25.031  22.854  -6.838  0.00  0.00    -0.411 N 
HETATM    8  C   UNK N   1      25.873  23.968  -7.286  0.00  0.00     0.132 C 
HETATM    9  H   UNK N   1      24.577  22.790  -5.928  0.00  0.00     0.153 HD
BRANCH   8  10
HETATM   10  C   UNK N   1      25.852  25.020  -6.216  0.00  0.00    -0.034 A 
HETATM   11  C   UNK N   1      26.161  24.692  -4.886  0.00  0.00     0.009 A 
HETATM   12  C   UNK N   1      26.183  25.686  -3.905  0.00  0.00     0.001 A 
HETATM   13  C   UNK N   1      25.899  27.011  -4.247  0.00  0.00     0.000 A 
HETATM   14  C   UNK N   1      25.587  27.341  -5.569  0.00  0.00     0.001 A 
HETATM   15  C   UNK N   1      25.563  26.348  -6.553  0.00  0.00     0.009 A 
ENDBRANCH   8  10
ENDBRANCH   1   3
BRANCH   1  16
HETATM   16  C   UNK N   1      29.497  24.546  -7.678  0.00  0.00     0.156 C 
BRANCH  16  17
HETATM   17  C   UNK N   1      29.579  25.134  -6.303  0.00  0.00    -0.005 A 
HETATM   18  C   UNK N   1      29.912  24.344  -5.196  0.00  0.00     0.048 A 
HETATM   19  C   UNK N   1      30.029  24.919  -3.930  0.00  0.00     0.079 A 
HETATM   20  C   UNK N   1      29.795  26.288  -3.758  0.00  0.00     0.040 A 
HETATM   21  C   UNK N   1      29.445  27.079  -4.854  0.00  0.00     0.040 A 
HETATM   22  C   UNK N   1      29.342  26.511  -6.136  0.00  0.00     0.076 A 
BRANCH  19  23
HETATM   23  O   UNK N   1      30.399  24.150  -2.885  0.00  0.00    -0.255 OA
BRANCH  23  24
HETATM   24  C   UNK N   1      29.609  23.127  -2.391  0.00  0.00     0.530 C 
HETATM   25  F   UNK N   1      29.900  21.952  -3.057  0.00  0.00    -0.144 F 
HETATM   26  F   UNK N   1      28.256  23.405  -2.533  0.00  0.00    -0.144 F 
HETATM   27  F   UNK N   1      29.886  22.966  -1.048  0.00  0.00    -0.144 F 
ENDBRANCH  23  24
ENDBRANCH  19  23
BRANCH  22  28
HETATM   28  O   UNK N   1      29.023  27.267  -7.216  0.00  0.00    -0.355 OA
HETATM   29  C   UNK N   1      28.751  28.613  -7.148  0.00  0.00     0.210 C 
ENDBRANCH  22  28
ENDBRANCH  16  17
ENDBRANCH   1  16
TORSDOF 7
ENDMDL
MODEL 2
REMARK VINA RESULT:      -6.0      3.212      5.411
REMARK  7 active torsions:
REMARK  status: ('A' for Active; 'I' for Inactive)
REMARK    1  A    between atoms: C_5  and  C_8 
REMARK    2  A    between atoms: C_6  and  N_7 
REMARK    3  A    between atoms: N_7  and  C_9 
REMARK    4  A    between atoms: C_9  and  C_10 
REMARK    5  A    between atoms: C_16  and  O_21 
REMARK    6  A    between atoms: C_18  and  O_22 
REMARK    7  A    between atoms: O_21  and  C_24 
ROOT
HETATM    1  N   UNK N   1      28.404  24.205  -3.401  0.00  0.00    -0.411 N 
HETATM    2  H   UNK N   1      28.854  24.682  -2.620  0.00  0.00     0.154 HD
ENDROOT
BRANCH   1   3
HETATM    3  C   UNK N   1      29.129  23.551  -4.498  0.00  0.00     0.103 C 
HETATM    4  C   UNK N   1      29.840  22.339  -3.892  0.00  0.00     0.029 C 
HETATM    5  C   UNK N   1      30.769  21.667  -4.892  0.00  0.00     0.021 C 
HETATM    6  C   UNK N   1      31.746  22.705  -5.418  0.00  0.00     0.114 C 
HETATM    7  N   UNK N   1      31.007  23.738  -6.133  0.00  0.00    -0.411 N 
HETATM    8  C   UNK N   1      30.171  24.487  -5.190  0.00  0.00     0.132 C 
HETATM    9  H   UNK N   1      31.062  23.912  -7.136  0.00  0.00     0.153 HD
BRANCH   8  10
HETATM   10  C   UNK N   1      29.510  25.602  -5.947  0.00  0.00    -0.034 A 
HETATM   11  C   UNK N   1      28.891  25.357  -7.183  0.00  0.00     0.009 A 
HETATM   12  C   UNK N   1      28.238  26.391  -7.858  0.00  0.00     0.001 A 
HETATM   13  C   UNK N   1      28.199  27.673  -7.302  0.00  0.00     0.000 A 
HETATM   14  C   UNK N   1      28.818  27.922  -6.074  0.00  0.00     0.001 A 
HETATM   15  C   UNK N   1      29.473  26.889  -5.396  0.00  0.00     0.009 A 
ENDBRANCH   8  10
ENDBRANCH   1   3
BRANCH   1  16
HETATM   16  C   UNK N   1      26.960  24.084  -3.567  0.00  0.00     0.156 C 
BRANCH  16  17
HETATM   17  C   UNK N   1      26.293  25.312  -4.105  0.00  0.00    -0.005 A 
HETATM   18  C   UNK N   1      26.330  26.523  -3.404  0.00  0.00     0.048 A 
HETATM   19  C   UNK N   1      25.742  27.668  -3.943  0.00  0.00     0.079 A 
HETATM   20  C   UNK N   1      25.095  27.606  -5.182  0.00  0.00     0.040 A 
HETATM   21  C   UNK N   1      25.039  26.398  -5.880  0.00  0.00     0.040 A 
HETATM   22  C   UNK N   1      25.644  25.243  -5.351  0.00  0.00     0.076 A 
BRANCH  19  23
HETATM   23  O   UNK N   1      25.832  28.836  -3.274  0.00  0.00    -0.255 OA
BRANCH  23  24
HETATM   24  C   UNK N   1      26.815  29.774  -3.533  0.00  0.00     0.530 C 
HETATM   25  F   UNK N   1      26.770  30.137  -4.865  0.00  0.00    -0.144 F 
HETATM   26  F   UNK N   1      28.082  29.290  -3.237  0.00  0.00    -0.144 F 
HETATM   27  F   UNK N   1      26.577  30.889  -2.753  0.00  0.00    -0.144 F 
ENDBRANCH  23  24
ENDBRANCH  19  23
BRANCH  22  28
HETATM   28  O   UNK N   1      25.616  24.065  -6.023  0.00  0.00    -0.355 OA
HETATM   29  C   UNK N   1      25.550  23.973  -7.394  0.00  0.00     0.210 C 
ENDBRANCH  22  28
ENDBRANCH  16  17
ENDBRANCH   1  16
TORSDOF 7
ENDMDL
MODEL 3
REMARK VINA RESULT:      -6.0     11.951     14.142
REMARK  7 active torsions:
REMARK  status: ('A' for Active; 'I' for Inactive)
REMARK    1  A    between atoms: C_5  and  C_8 
REMARK    2  A    between atoms: C_6  and  N_7 
REMARK    3  A    between atoms: N_7  and  C_9 
REMARK    4  A    between atoms: C_9  and  C_10 
REMARK    5  A    between atoms: C_16  and  O_21 
REMARK    6  A    between atoms: C_18  and  O_22 
REMARK    7  A    between atoms: O_21  and  C_24 
ROOT
HETATM    1  N   UNK N   1      29.761  16.402   4.592  0.00  0.00    -0.411 N 
HETATM    2  H   UNK N   1      29.512  15.503   5.005  0.00  0.00     0.154 HD
ENDROOT
BRANCH   1   3
HETATM    3  C   UNK N   1      30.891  17.230   5.035  0.00  0.00     0.103 C 
HETATM    4  C   UNK N   1      32.048  16.939   4.077  0.00  0.00     0.029 C 
HETATM    5  C   UNK N   1      33.339  17.607   4.527  0.00  0.00     0.021 C 
HETATM    6  C   UNK N   1      33.642  17.164   5.947  0.00  0.00     0.114 C 
HETATM    7  N   UNK N   1      32.580  17.628   6.831  0.00  0.00    -0.411 N 
HETATM    8  C   UNK N   1      31.331  16.933   6.505  0.00  0.00     0.132 C 
HETATM    9  H   UNK N   1      32.688  18.330   7.562  0.00  0.00     0.153 HD
BRANCH   8  10
HETATM   10  C   UNK N   1      30.292  17.361   7.500  0.00  0.00    -0.034 A 
HETATM   11  C   UNK N   1      28.952  16.972   7.345  0.00  0.00     0.009 A 
HETATM   12  C   UNK N   1      28.000  17.338   8.301  0.00  0.00     0.001 A 
HETATM   13  C   UNK N   1      28.383  18.091   9.414  0.00  0.00     0.000 A 
HETATM   14  C   UNK N   1      29.715  18.485   9.569  0.00  0.00     0.001 A 
HETATM   15  C   UNK N   1      30.670  18.121   8.614  0.00  0.00     0.009 A 
ENDBRANCH   8  10
ENDBRANCH   1   3
BRANCH   1  16
HETATM   16  C   UNK N   1      29.042  17.027   3.488  0.00  0.00     0.156 C 
BRANCH  16  17
HETATM   17  C   UNK N   1      27.799  17.758   3.891  0.00  0.00    -0.005 A 
HETATM   18  C   UNK N   1      27.854  19.072   4.369  0.00  0.00     0.048 A 
HETATM   19  C   UNK N   1      26.681  19.754   4.695  0.00  0.00     0.079 A 
HETATM   20  C   UNK N   1      25.442  19.118   4.563  0.00  0.00     0.040 A 
HETATM   21  C   UNK N   1      25.379  17.801   4.104  0.00  0.00     0.040 A 
HETATM   22  C   UNK N   1      26.555  17.113   3.756  0.00  0.00     0.076 A 
BRANCH  19  23
HETATM   23  O   UNK N   1      26.754  21.036   5.108  0.00  0.00    -0.255 OA
BRANCH  23  24
HETATM   24  C   UNK N   1      26.986  21.388   6.425  0.00  0.00     0.530 C 
HETATM   25  F   UNK N   1      28.167  22.100   6.514  0.00  0.00    -0.144 F 
HETATM   26  F   UNK N   1      27.064  20.274   7.251  0.00  0.00    -0.144 F 
HETATM   27  F   UNK N   1      25.944  22.184   6.859  0.00  0.00    -0.144 F 
ENDBRANCH  23  24
ENDBRANCH  19  23
BRANCH  22  28
HETATM   28  O   UNK N   1      26.513  15.840   3.289  0.00  0.00    -0.355 OA
HETATM   29  C   UNK N   1      25.769  15.454   2.199  0.00  0.00     0.210 C 
ENDBRANCH  22  28
ENDBRANCH  16  17
ENDBRANCH   1  16
TORSDOF 7
ENDMDL
MODEL 4
REMARK VINA RESULT:      -6.0      2.632      4.983
REMARK  7 active torsions:
REMARK  status: ('A' for Active; 'I' for Inactive)
REMARK    1  A    between atoms: C_5  and  C_8 
REMARK    2  A    between atoms: C_6  and  N_7 
REMARK    3  A    between atoms: N_7  and  C_9 
REMARK    4  A    between atoms: C_9  and  C_10 
REMARK    5  A    between atoms: C_16  and  O_21 
REMARK    6  A    between atoms: C_18  and  O_22 
REMARK    7  A    between atoms: O_21  and  C_24 
ROOT
HETATM    1  N   UNK N   1      27.312  24.512  -6.833  0.00  0.00    -0.411 N 
HETATM    2  H   UNK N   1      28.066  24.968  -7.347  0.00  0.00     0.154 HD
ENDROOT
BRANCH   1   3
HETATM    3  C   UNK N   1      26.512  25.166  -5.789  0.00  0.00     0.103 C 
HETATM    4  C   UNK N   1      25.588  26.156  -6.501  0.00  0.00     0.029 C 
HETATM    5  C   UNK N   1      24.821  27.026  -5.516  0.00  0.00     0.021 C 
HETATM    6  C   UNK N   1      25.818  27.721  -4.607  0.00  0.00     0.114 C 
HETATM    7  N   UNK N   1      26.540  26.718  -3.833  0.00  0.00    -0.411 N 
HETATM    8  C   UNK N   1      27.380  25.918  -4.729  0.00  0.00     0.132 C 
HETATM    9  H   UNK N   1      26.471  26.592  -2.824  0.00  0.00     0.153 HD
BRANCH   8  10
HETATM   10  C   UNK N   1      28.181  24.970  -3.885  0.00  0.00    -0.034 A 
HETATM   11  C   UNK N   1      29.584  25.015  -3.896  0.00  0.00     0.009 A 
HETATM   12  C   UNK N   1      30.321  24.159  -3.073  0.00  0.00     0.001 A 
HETATM   13  C   UNK N   1      29.660  23.258  -2.233  0.00  0.00     0.000 A 
HETATM   14  C   UNK N   1      28.262  23.207  -2.222  0.00  0.00     0.001 A 
HETATM   15  C   UNK N   1      27.523  24.062  -3.046  0.00  0.00     0.009 A 
ENDBRANCH   8  10
ENDBRANCH   1   3
BRANCH   1  16
HETATM   16  C   UNK N   1      26.892  23.132  -7.043  0.00  0.00     0.156 C 
BRANCH  16  17
HETATM   17  C   UNK N   1      28.010  22.136  -7.049  0.00  0.00    -0.005 A 
HETATM   18  C   UNK N   1      29.117  22.285  -6.205  0.00  0.00     0.048 A 
HETATM   19  C   UNK N   1      30.128  21.323  -6.191  0.00  0.00     0.079 A 
HETATM   20  C   UNK N   1      30.047  20.211  -7.037  0.00  0.00     0.040 A 
HETATM   21  C   UNK N   1      28.955  20.064  -7.895  0.00  0.00     0.040 A 
HETATM   22  C   UNK N   1      27.924  21.021  -7.903  0.00  0.00     0.076 A 
BRANCH  19  23
HETATM   23  O   UNK N   1      31.161  21.460  -5.335  0.00  0.00    -0.255 OA
BRANCH  23  24
HETATM   24  C   UNK N   1      31.310  20.672  -4.208  0.00  0.00     0.530 C 
HETATM   25  F   UNK N   1      32.134  21.309  -3.301  0.00  0.00    -0.144 F 
HETATM   26  F   UNK N   1      31.848  19.429  -4.515  0.00  0.00    -0.144 F 
HETATM   27  F   UNK N   1      30.067  20.483  -3.635  0.00  0.00    -0.144 F 
ENDBRANCH  23  24
ENDBRANCH  19  23
BRANCH  22  28
HETATM   28  O   UNK N   1      26.847  20.885  -8.715  0.00  0.00    -0.355 OA
HETATM   29  C   UNK N   1      26.862  21.193 -10.055  0.00  0.00     0.210 C 
ENDBRANCH  22  28
ENDBRANCH  16  17
ENDBRANCH   1  16
TORSDOF 7
ENDMDL
MODEL 5
REMARK VINA RESULT:      -6.0     11.723     14.342
REMARK  7 active torsions:
REMARK  status: ('A' for Active; 'I' for Inactive)
REMARK    1  A    between atoms: C_5  and  C_8 
REMARK    2  A    between atoms: C_6  and  N_7 
REMARK    3  A    between atoms: N_7  and  C_9 
REMARK    4  A    between atoms: C_9  and  C_10 
REMARK    5  A    between atoms: C_16  and  O_21 
REMARK    6  A    between atoms: C_18  and  O_22 
REMARK    7  A    between atoms: O_21  and  C_24 
ROOT
HETATM    1  N   UNK N   1      29.390  16.645   5.190  0.00  0.00    -0.411 N 
HETATM    2  H   UNK N   1      28.839  15.788   5.135  0.00  0.00     0.154 HD
ENDROOT
BRANCH   1   3
HETATM    3  C   UNK N   1      29.193  17.692   6.201  0.00  0.00     0.103 C 
HETATM    4  C   UNK N   1      29.877  17.200   7.479  0.00  0.00     0.029 C 
HETATM    5  C   UNK N   1      29.601  18.118   8.660  0.00  0.00     0.021 C 
HETATM    6  C   UNK N   1      28.098  18.253   8.827  0.00  0.00     0.114 C 
HETATM    7  N   UNK N   1      27.540  18.889   7.639  0.00  0.00    -0.411 N 
HETATM    8  C   UNK N   1      27.687  17.994   6.488  0.00  0.00     0.132 C 
HETATM    9  H   UNK N   1      27.114  19.815   7.614  0.00  0.00     0.153 HD
BRANCH   8  10
HETATM   10  C   UNK N   1      27.011  18.640   5.314  0.00  0.00    -0.034 A 
HETATM   11  C   UNK N   1      25.797  18.133   4.821  0.00  0.00     0.009 A 
HETATM   12  C   UNK N   1      25.152  18.769   3.757  0.00  0.00     0.001 A 
HETATM   13  C   UNK N   1      25.713  19.912   3.182  0.00  0.00     0.000 A 
HETATM   14  C   UNK N   1      26.924  20.417   3.667  0.00  0.00     0.001 A 
HETATM   15  C   UNK N   1      27.573  19.783   4.731  0.00  0.00     0.009 A 
ENDBRANCH   8  10
ENDBRANCH   1   3
BRANCH   1  16
HETATM   16  C   UNK N   1      30.474  16.984   4.274  0.00  0.00     0.156 C 
BRANCH  16  17
HETATM   17  C   UNK N   1      31.835  16.577   4.745  0.00  0.00    -0.005 A 
HETATM   18  C   UNK N   1      32.649  17.465   5.460  0.00  0.00     0.048 A 
HETATM   19  C   UNK N   1      33.896  17.053   5.932  0.00  0.00     0.079 A 
HETATM   20  C   UNK N   1      34.347  15.753   5.677  0.00  0.00     0.040 A 
HETATM   21  C   UNK N   1      33.549  14.868   4.950  0.00  0.00     0.040 A 
HETATM   22  C   UNK N   1      32.284  15.269   4.486  0.00  0.00     0.076 A 
BRANCH  19  23
HETATM   23  O   UNK N   1      34.644  17.908   6.660  0.00  0.00    -0.255 OA
BRANCH  23  24
HETATM   24  C   UNK N   1      34.462  18.091   8.019  0.00  0.00     0.530 C 
HETATM   25  F   UNK N   1      34.894  16.970   8.701  0.00  0.00    -0.144 F 
HETATM   26  F   UNK N   1      33.130  18.328   8.335  0.00  0.00    -0.144 F 
HETATM   27  F   UNK N   1      35.209  19.180   8.421  0.00  0.00    -0.144 F 
ENDBRANCH  23  24
ENDBRANCH  19  23
BRANCH  22  28
HETATM   28  O   UNK N   1      31.486  14.417   3.794  0.00  0.00    -0.355 OA
HETATM   29  C   UNK N   1      31.934  13.624   2.764  0.00  0.00     0.210 C 
ENDBRANCH  22  28
ENDBRANCH  16  17
ENDBRANCH   1  16
TORSDOF 7
ENDMDL
MODEL 6
REMARK VINA RESULT:      -5.8      2.237      4.886
REMARK  7 active torsions:
REMARK  status: ('A' for Active; 'I' for Inactive)
REMARK    1  A    between atoms: C_5  and  C_8 
REMARK    2  A    between atoms: C_6  and  N_7 
REMARK    3  A    between atoms: N_7  and  C_9 
REMARK    4  A    between atoms: C_9  and  C_10 
REMARK    5  A    between atoms: C_16  and  O_21 
REMARK    6  A    between atoms: C_18  and  O_22 
REMARK    7  A    between atoms: O_21  and  C_24 
ROOT
HETATM    1  N   UNK N   1      25.353  26.139  -5.276  0.00  0.00    -0.411 N 
HETATM    2  H   UNK N   1      24.602  26.330  -5.940  0.00  0.00     0.154 HD
ENDROOT
BRANCH   1   3
HETATM    3  C   UNK N   1      26.345  27.131  -4.841  0.00  0.00     0.103 C 
HETATM    4  C   UNK N   1      25.641  28.039  -3.831  0.00  0.00     0.029 C 
HETATM    5  C   UNK N   1      26.511  29.220  -3.427  0.00  0.00     0.021 C 
HETATM    6  C   UNK N   1      26.925  29.967  -4.682  0.00  0.00     0.114 C 
HETATM    7  N   UNK N   1      27.739  29.090  -5.515  0.00  0.00    -0.411 N 
HETATM    8  C   UNK N   1      26.915  27.987  -6.018  0.00  0.00     0.132 C 
HETATM    9  H   UNK N   1      28.729  29.223  -5.715  0.00  0.00     0.153 HD
BRANCH   8  10
HETATM   10  C   UNK N   1      27.761  27.169  -6.949  0.00  0.00    -0.034 A 
HETATM   11  C   UNK N   1      29.053  26.768  -6.573  0.00  0.00     0.009 A 
HETATM   12  C   UNK N   1      29.816  25.968  -7.428  0.00  0.00     0.001 A 
HETATM   13  C   UNK N   1      29.292  25.564  -8.659  0.00  0.00     0.000 A 
HETATM   14  C   UNK N   1      28.007  25.964  -9.039  0.00  0.00     0.001 A 
HETATM   15  C   UNK N   1      27.242  26.766  -8.186  0.00  0.00     0.009 A 
ENDBRANCH   8  10
ENDBRANCH   1   3
BRANCH   1  16
HETATM   16  C   UNK N   1      25.575  24.846  -4.639  0.00  0.00     0.156 C 
BRANCH  16  17
HETATM   17  C   UNK N   1      26.740  24.078  -5.182  0.00  0.00    -0.005 A 
HETATM   18  C   UNK N   1      27.935  23.969  -4.460  0.00  0.00     0.048 A 
HETATM   19  C   UNK N   1      28.994  23.210  -4.961  0.00  0.00     0.079 A 
HETATM   20  C   UNK N   1      28.872  22.568  -6.199  0.00  0.00     0.040 A 
HETATM   21  C   UNK N   1      27.690  22.687  -6.933  0.00  0.00     0.040 A 
HETATM   22  C   UNK N   1      26.612  23.435  -6.427  0.00  0.00     0.076 A 
BRANCH  19  23
HETATM   23  O   UNK N   1      30.118  23.077  -4.227  0.00  0.00    -0.255 OA
BRANCH  23  24
HETATM   24  C   UNK N   1      30.214  22.209  -3.154  0.00  0.00     0.530 C 
HETATM   25  F   UNK N   1      29.216  22.488  -2.240  0.00  0.00    -0.144 F 
HETATM   26  F   UNK N   1      31.447  22.303  -2.523  0.00  0.00    -0.144 F 
HETATM   27  F   UNK N   1      30.054  20.918  -3.617  0.00  0.00    -0.144 F 
ENDBRANCH  23  24
ENDBRANCH  19  23
BRANCH  22  28
HETATM   28  O   UNK N   1      25.449  23.546  -7.117  0.00  0.00    -0.355 OA
HETATM   29  C   UNK N   1      25.367  23.463  -8.487  0.00  0.00     0.210 C 
ENDBRANCH  22  28
ENDBRANCH  16  17
ENDBRANCH   1  16
TORSDOF 7
ENDMDL
MODEL 7
REMARK VINA RESULT:      -5.8     12.172     14.981
REMARK  7 active torsions:
REMARK  status: ('A' for Active; 'I' for Inactive)
REMARK    1  A    between atoms: C_5  and  C_8 
REMARK    2  A    between atoms: C_6  and  N_7 
REMARK    3  A    between atoms: N_7  and  C_9 
REMARK    4  A    between atoms: C_9  and  C_10 
REMARK    5  A    between atoms: C_16  and  O_21 
REMARK    6  A    between atoms: C_18  and  O_22 
REMARK    7  A    between atoms: O_21  and  C_24 
ROOT
HETATM    1  N   UNK N   1      29.297  18.325   4.835  0.00  0.00    -0.411 N 
HETATM    2  H   UNK N   1      30.108  18.933   4.718  0.00  0.00     0.154 HD
ENDROOT
BRANCH   1   3
HETATM    3  C   UNK N   1      27.972  18.789   5.269  0.00  0.00     0.103 C 
HETATM    4  C   UNK N   1      27.413  19.643   4.129  0.00  0.00     0.029 C 
HETATM    5  C   UNK N   1      26.111  20.328   4.519  0.00  0.00     0.021 C 
HETATM    6  C   UNK N   1      26.351  21.137   5.782  0.00  0.00     0.114 C 
HETATM    7  N   UNK N   1      26.712  20.234   6.868  0.00  0.00    -0.411 N 
HETATM    8  C   UNK N   1      28.016  19.625   6.588  0.00  0.00     0.132 C 
HETATM    9  H   UNK N   1      26.144  20.052   7.694  0.00  0.00     0.153 HD
BRANCH   8  10
HETATM   10  C   UNK N   1      28.396  18.786   7.773  0.00  0.00    -0.034 A 
HETATM   11  C   UNK N   1      29.418  19.201   8.642  0.00  0.00     0.009 A 
HETATM   12  C   UNK N   1      29.734  18.436   9.768  0.00  0.00     0.001 A 
HETATM   13  C   UNK N   1      29.031  17.257  10.032  0.00  0.00     0.000 A 
HETATM   14  C   UNK N   1      28.015  16.839   9.166  0.00  0.00     0.001 A 
HETATM   15  C   UNK N   1      27.698  17.602   8.037  0.00  0.00     0.009 A 
ENDBRANCH   8  10
ENDBRANCH   1   3
BRANCH   1  16
HETATM   16  C   UNK N   1      29.307  16.887   4.590  0.00  0.00     0.156 C 
BRANCH  16  17
HETATM   17  C   UNK N   1      30.325  16.129   5.384  0.00  0.00    -0.005 A 
HETATM   18  C   UNK N   1      30.925  16.692   6.517  0.00  0.00     0.048 A 
HETATM   19  C   UNK N   1      31.837  15.953   7.272  0.00  0.00     0.079 A 
HETATM   20  C   UNK N   1      32.169  14.648   6.889  0.00  0.00     0.040 A 
HETATM   21  C   UNK N   1      31.587  14.086   5.751  0.00  0.00     0.040 A 
HETATM   22  C   UNK N   1      30.655  14.818   4.994  0.00  0.00     0.076 A 
BRANCH  19  23
HETATM   23  O   UNK N   1      32.367  16.496   8.387  0.00  0.00    -0.255 OA
BRANCH  23  24
HETATM   24  C   UNK N   1      33.328  17.490   8.352  0.00  0.00     0.530 C 
HETATM   25  F   UNK N   1      34.122  17.408   9.481  0.00  0.00    -0.144 F 
HETATM   26  F   UNK N   1      32.761  18.755   8.287  0.00  0.00    -0.144 F 
HETATM   27  F   UNK N   1      34.115  17.302   7.233  0.00  0.00    -0.144 F 
ENDBRANCH  23  24
ENDBRANCH  19  23
BRANCH  22  28
HETATM   28  O   UNK N   1      30.065  14.282   3.897  0.00  0.00    -0.355 OA
HETATM   29  C   UNK N   1      30.767  13.772   2.829  0.00  0.00     0.210 C 
ENDBRANCH  22  28
ENDBRANCH  16  17
ENDBRANCH   1  16
TORSDOF 7
ENDMDL
MODEL 8
REMARK VINA RESULT:      -5.6      3.312      5.437
REMARK  7 active torsions:
REMARK  status: ('A' for Active; 'I' for Inactive)
REMARK    1  A    between atoms: C_5  and  C_8 
REMARK    2  A    between atoms: C_6  and  N_7 
REMARK    3  A    between atoms: N_7  and  C_9 
REMARK    4  A    between atoms: C_9  and  C_10 
REMARK    5  A    between atoms: C_16  and  O_21 
REMARK    6  A    between atoms: C_18  and  O_22 
REMARK    7  A    between atoms: O_21  and  C_24 
ROOT
HETATM    1  N   UNK N   1      28.812  22.299  -6.066  0.00  0.00    -0.411 N 
HETATM    2  H   UNK N   1      28.128  21.592  -5.797  0.00  0.00     0.154 HD
ENDROOT
BRANCH   1   3
HETATM    3  C   UNK N   1      29.924  22.740  -5.213  0.00  0.00     0.103 C 
HETATM    4  C   UNK N   1      30.901  21.565  -5.125  0.00  0.00     0.029 C 
HETATM    5  C   UNK N   1      32.020  21.831  -4.129  0.00  0.00     0.021 C 
HETATM    6  C   UNK N   1      31.400  22.167  -2.784  0.00  0.00     0.114 C 
HETATM    7  N   UNK N   1      30.625  23.395  -2.908  0.00  0.00    -0.411 N 
HETATM    8  C   UNK N   1      29.469  23.161  -3.778  0.00  0.00     0.132 C 
HETATM    9  H   UNK N   1      30.852  24.281  -2.458  0.00  0.00     0.153 HD
BRANCH   8  10
HETATM   10  C   UNK N   1      28.645  24.415  -3.796  0.00  0.00    -0.034 A 
HETATM   11  C   UNK N   1      29.214  25.638  -4.186  0.00  0.00     0.009 A 
HETATM   12  C   UNK N   1      28.428  26.792  -4.242  0.00  0.00     0.001 A 
HETATM   13  C   UNK N   1      27.071  26.729  -3.913  0.00  0.00     0.000 A 
HETATM   14  C   UNK N   1      26.501  25.514  -3.521  0.00  0.00     0.001 A 
HETATM   15  C   UNK N   1      27.286  24.357  -3.462  0.00  0.00     0.009 A 
ENDBRANCH   8  10
ENDBRANCH   1   3
BRANCH   1  16
HETATM   16  C   UNK N   1      28.810  22.998  -7.346  0.00  0.00     0.156 C 
BRANCH  16  17
HETATM   17  C   UNK N   1      27.925  24.204  -7.393  0.00  0.00    -0.005 A 
HETATM   18  C   UNK N   1      28.411  25.444  -7.826  0.00  0.00     0.048 A 
HETATM   19  C   UNK N   1      27.559  26.546  -7.908  0.00  0.00     0.079 A 
HETATM   20  C   UNK N   1      26.215  26.421  -7.540  0.00  0.00     0.040 A 
HETATM   21  C   UNK N   1      25.726  25.192  -7.091  0.00  0.00     0.040 A 
HETATM   22  C   UNK N   1      26.574  24.072  -7.022  0.00  0.00     0.076 A 
BRANCH  19  23
HETATM   23  O   UNK N   1      28.037  27.718  -8.374  0.00  0.00    -0.255 OA
BRANCH  23  24
HETATM   24  C   UNK N   1      28.622  28.667  -7.554  0.00  0.00     0.530 C 
HETATM   25  F   UNK N   1      29.101  29.712  -8.322  0.00  0.00    -0.144 F 
HETATM   26  F   UNK N   1      29.666  28.135  -6.811  0.00  0.00    -0.144 F 
HETATM   27  F   UNK N   1      27.663  29.149  -6.684  0.00  0.00    -0.144 F 
ENDBRANCH  23  24
ENDBRANCH  19  23
BRANCH  22  28
HETATM   28  O   UNK N   1      26.112  22.867  -6.606  0.00  0.00    -0.355 OA
HETATM   29  C   UNK N   1      25.275  22.074  -7.356  0.00  0.00     0.210 C 
ENDBRANCH  22  28
ENDBRANCH  16  17
ENDBRANCH   1  16
TORSDOF 7
ENDMDL
MODEL 9
REMARK VINA RESULT:      -5.5     12.218     13.992
REMARK  7 active torsions:
REMARK  status: ('A' for Active; 'I' for Inactive)
REMARK    1  A    between atoms: C_5  and  C_8 
REMARK    2  A    between atoms: C_6  and  N_7 
REMARK    3  A    between atoms: N_7  and  C_9 
REMARK    4  A    between atoms: C_9  and  C_10 
REMARK    5  A    between atoms: C_16  and  O_21 
REMARK    6  A    between atoms: C_18  and  O_22 
REMARK    7  A    between atoms: O_21  and  C_24 
ROOT
HETATM    1  N   UNK N   1      25.109  15.851   5.045  0.00  0.00    -0.411 N 
HETATM    2  H   UNK N   1      25.310  15.298   4.212  0.00  0.00     0.154 HD
ENDROOT
BRANCH   1   3
HETATM    3  C   UNK N   1      24.091  16.908   5.109  0.00  0.00     0.103 C 
HETATM    4  C   UNK N   1      22.743  16.234   4.840  0.00  0.00     0.029 C 
HETATM    5  C   UNK N   1      21.617  17.249   4.710  0.00  0.00     0.021 C 
HETATM    6  C   UNK N   1      21.989  18.246   3.626  0.00  0.00     0.114 C 
HETATM    7  N   UNK N   1      23.186  18.972   4.034  0.00  0.00    -0.411 N 
HETATM    8  C   UNK N   1      24.328  18.053   4.074  0.00  0.00     0.132 C 
HETATM    9  H   UNK N   1      23.223  19.965   4.259  0.00  0.00     0.153 HD
BRANCH   8  10
HETATM   10  C   UNK N   1      25.554  18.857   4.396  0.00  0.00    -0.034 A 
HETATM   11  C   UNK N   1      25.522  19.835   5.403  0.00  0.00     0.009 A 
HETATM   12  C   UNK N   1      26.680  20.546   5.727  0.00  0.00     0.001 A 
HETATM   13  C   UNK N   1      27.874  20.283   5.050  0.00  0.00     0.000 A 
HETATM   14  C   UNK N   1      27.909  19.313   4.043  0.00  0.00     0.001 A 
HETATM   15  C   UNK N   1      26.751  18.600   3.716  0.00  0.00     0.009 A 
ENDBRANCH   8  10
ENDBRANCH   1   3
BRANCH   1  16
HETATM   16  C   UNK N   1      25.794  15.690   6.322  0.00  0.00     0.156 C 
BRANCH  16  17
HETATM   17  C   UNK N   1      27.210  16.179   6.334  0.00  0.00    -0.005 A 
HETATM   18  C   UNK N   1      27.619  17.191   7.210  0.00  0.00     0.048 A 
HETATM   19  C   UNK N   1      28.953  17.601   7.239  0.00  0.00     0.079 A 
HETATM   20  C   UNK N   1      29.885  17.013   6.376  0.00  0.00     0.040 A 
HETATM   21  C   UNK N   1      29.481  16.016   5.487  0.00  0.00     0.040 A 
HETATM   22  C   UNK N   1      28.142  15.584   5.464  0.00  0.00     0.076 A 
BRANCH  19  23
HETATM   23  O   UNK N   1      29.337  18.543   8.125  0.00  0.00    -0.255 OA
BRANCH  23  24
HETATM   24  C   UNK N   1      30.162  18.268   9.200  0.00  0.00     0.530 C 
HETATM   25  F   UNK N   1      31.479  18.484   8.841  0.00  0.00    -0.144 F 
HETATM   26  F   UNK N   1      30.020  16.958   9.638  0.00  0.00    -0.144 F 
HETATM   27  F   UNK N   1      29.832  19.117  10.238  0.00  0.00    -0.144 F 
ENDBRANCH  23  24
ENDBRANCH  19  23
BRANCH  22  28
HETATM   28  O   UNK N   1      27.735  14.603   4.621  0.00  0.00    -0.355 OA
HETATM   29  C   UNK N   1      28.592  13.708   4.026  0.00  0.00     0.210 C 
ENDBRANCH  22  28
ENDBRANCH  16  17
ENDBRANCH   1  16
TORSDOF 7
ENDMDL
