MODEL 1
REMARK VINA RESULT:      -7.1      0.000      0.000
REMARK  7 active torsions:
REMARK  status: ('A' for Active; 'I' for Inactive)
REMARK    1  A    between atoms: O_28  and  C_13 
REMARK    2  A    between atoms: O_28  and  C_14 
REMARK    3  A    between atoms: S_30  and  C_15 
REMARK    4  A    between atoms: C_16  and  C_17 
REMARK    5  A    between atoms: O_24  and  C_17 
REMARK    6  A    between atoms: N_21  and  O_25 
REMARK    7  A    between atoms: S_30  and  N_23 
ROOT
HETATM    1  O   UNK N   1      19.411  15.867   4.116  0.00  0.00    -0.200 OA
HETATM    2  O   UNK N   1      19.995  14.455   2.301  0.00  0.00    -0.200 OA
HETATM    3  S   UNK N   1      20.616  15.095   3.550  0.00  0.00     0.261 S 
ENDROOT
BRANCH   3   4
HETATM    4  C   UNK N   1      21.171  13.940   4.798  0.00  0.00     0.079 A 
HETATM    5  C   UNK N   1      20.631  13.970   6.090  0.00  0.00     0.028 A 
HETATM    6  C   UNK N   1      21.130  13.110   7.076  0.00  0.00     0.039 A 
HETATM    7  C   UNK N   1      22.167  12.218   6.777  0.00  0.00     0.076 A 
HETATM    8  C   UNK N   1      22.689  12.192   5.473  0.00  0.00     0.039 A 
HETATM    9  C   UNK N   1      22.193  13.046   4.496  0.00  0.00     0.028 A 
BRANCH   7  10
HETATM   10  O   UNK N   1      22.694  11.453   7.772  0.00  0.00    -0.311 OA
BRANCH  10  11
HETATM   11  C   UNK N   1      23.383  11.898   8.858  0.00  0.00     0.078 A 
HETATM   12  C   UNK N   1      23.051  11.507  10.166  0.00  0.00     0.054 A 
HETATM   13  C   UNK N   1      23.803  11.977  11.242  0.00  0.00     0.090 A 
HETATM   14  N   UNK N   1      24.858  12.808  11.023  0.00  0.00    -0.375 N 
HETATM   15  C   UNK N   1      25.193  13.211   9.767  0.00  0.00     0.090 A 
ATOM     16  HN  UNK N   1      25.407  13.137  11.817  1.00  0.00     0.164 HD
HETATM   17  C   UNK N   1      24.456  12.769   8.666  0.00  0.00     0.054 A 
ENDBRANCH  10  11
ENDBRANCH   7  10
ENDBRANCH   3   4
BRANCH   3  18
HETATM   18  N   UNK N   1      21.763  16.384   3.032  0.00  0.00    -0.292 N 
HETATM   19  C   UNK N   1      22.928  16.444   3.920  0.00  0.00     0.146 C 
HETATM   20  C   UNK N   1      22.556  16.947   5.324  0.00  0.00     0.095 C 
HETATM   21  S   UNK N   1      21.223  18.223   5.344  0.00  0.00    -0.156 SA
HETATM   22  C   UNK N   1      21.542  18.855   3.666  0.00  0.00     0.029 C 
HETATM   23  C   UNK N   1      20.692  20.097   3.432  0.00  0.00     0.029 C 
HETATM   24  C   UNK N   1      22.985  19.353   3.603  0.00  0.00     0.029 C 
HETATM   25  C   UNK N   1      21.266  17.732   2.603  0.00  0.00     0.190 C 
BRANCH  25  26
HETATM   26  C   UNK N   1      19.800  17.719   2.140  0.00  0.00     0.161 C 
HETATM   27  N   UNK N   1      19.455  17.257   0.983  0.00  0.00    -0.249 N 
ATOM     28  HN  UNK N   1      18.471  17.289   0.715  1.00  0.00     0.196 HD
BRANCH  27  29
HETATM   29  O   UNK N   1      20.325  16.747   0.137  0.00  0.00    -0.288 OA
HETATM   30  H   UNK N   1      20.728  16.317  -0.592  0.00  0.00     0.244 HD
ENDBRANCH  27  29
BRANCH  26  31
HETATM   31  O   UNK N   1      18.847  18.242   2.929  0.00  0.00    -0.346 OA
HETATM   32  H   UNK N   1      18.346  18.669   3.599  0.00  0.00     0.219 HD
ENDBRANCH  26  31
ENDBRANCH  25  26
ENDBRANCH   3  18
TORSDOF 7
ENDMDL
MODEL 2
REMARK VINA RESULT:      -6.9      9.418     13.086
REMARK  7 active torsions:
REMARK  status: ('A' for Active; 'I' for Inactive)
REMARK    1  A    between atoms: O_28  and  C_13 
REMARK    2  A    between atoms: O_28  and  C_14 
REMARK    3  A    between atoms: S_30  and  C_15 
REMARK    4  A    between atoms: C_16  and  C_17 
REMARK    5  A    between atoms: O_24  and  C_17 
REMARK    6  A    between atoms: N_21  and  O_25 
REMARK    7  A    between atoms: S_30  and  N_23 
ROOT
HETATM    1  O   UNK N   1      32.128  15.499   9.076  0.00  0.00    -0.200 OA
HETATM    2  O   UNK N   1      33.021  17.666   8.711  0.00  0.00    -0.200 OA
HETATM    3  S   UNK N   1      32.923  16.296   8.027  0.00  0.00     0.261 S 
ENDROOT
BRANCH   3   4
HETATM    4  C   UNK N   1      31.998  16.277   6.497  0.00  0.00     0.079 A 
HETATM    5  C   UNK N   1      32.255  17.221   5.495  0.00  0.00     0.028 A 
HETATM    6  C   UNK N   1      31.471  17.241   4.335  0.00  0.00     0.039 A 
HETATM    7  C   UNK N   1      30.429  16.319   4.170  0.00  0.00     0.076 A 
HETATM    8  C   UNK N   1      30.193  15.372   5.179  0.00  0.00     0.039 A 
HETATM    9  C   UNK N   1      30.972  15.353   6.329  0.00  0.00     0.028 A 
BRANCH   7  10
HETATM   10  O   UNK N   1      29.626  16.413   3.076  0.00  0.00    -0.311 OA
BRANCH  10  11
HETATM   11  C   UNK N   1      28.266  16.414   3.066  0.00  0.00     0.078 A 
HETATM   12  C   UNK N   1      27.513  17.397   3.730  0.00  0.00     0.054 A 
HETATM   13  C   UNK N   1      26.120  17.361   3.670  0.00  0.00     0.090 A 
HETATM   14  N   UNK N   1      25.494  16.380   2.966  0.00  0.00    -0.375 N 
HETATM   15  C   UNK N   1      26.199  15.410   2.322  0.00  0.00     0.090 A 
ATOM     16  HN  UNK N   1      24.475  16.371   2.920  1.00  0.00     0.164 HD
HETATM   17  C   UNK N   1      27.595  15.407   2.369  0.00  0.00     0.054 A 
ENDBRANCH  10  11
ENDBRANCH   7  10
ENDBRANCH   3   4
BRANCH   3  18
HETATM   18  N   UNK N   1      34.553  15.527   8.031  0.00  0.00    -0.292 N 
HETATM   19  C   UNK N   1      34.716  14.627   6.886  0.00  0.00     0.146 C 
HETATM   20  C   UNK N   1      33.819  13.384   6.999  0.00  0.00     0.095 C 
HETATM   21  S   UNK N   1      33.590  12.769   8.724  0.00  0.00    -0.156 SA
HETATM   22  C   UNK N   1      35.159  13.431   9.370  0.00  0.00     0.029 C 
HETATM   23  C   UNK N   1      35.370  12.915  10.788  0.00  0.00     0.029 C 
HETATM   24  C   UNK N   1      36.308  12.830   8.561  0.00  0.00     0.029 C 
HETATM   25  C   UNK N   1      35.154  15.000   9.300  0.00  0.00     0.190 C 
BRANCH  25  26
HETATM   26  C   UNK N   1      34.556  15.636  10.565  0.00  0.00     0.161 C 
HETATM   27  N   UNK N   1      34.910  16.812  10.969  0.00  0.00    -0.249 N 
ATOM     28  HN  UNK N   1      34.498  17.181  11.826  1.00  0.00     0.196 HD
BRANCH  27  29
HETATM   29  O   UNK N   1      35.783  17.551  10.317  0.00  0.00    -0.288 OA
HETATM   30  H   UNK N   1      36.471  17.847   9.753  0.00  0.00     0.244 HD
ENDBRANCH  27  29
BRANCH  26  31
HETATM   31  O   UNK N   1      33.676  14.943  11.307  0.00  0.00    -0.346 OA
HETATM   32  H   UNK N   1      33.006  14.652  11.896  0.00  0.00     0.219 HD
ENDBRANCH  26  31
ENDBRANCH  25  26
ENDBRANCH   3  18
TORSDOF 7
ENDMDL
MODEL 3
REMARK VINA RESULT:      -6.8      9.465     12.962
REMARK  7 active torsions:
REMARK  status: ('A' for Active; 'I' for Inactive)
REMARK    1  A    between atoms: O_28  and  C_13 
REMARK    2  A    between atoms: O_28  and  C_14 
REMARK    3  A    between atoms: S_30  and  C_15 
REMARK    4  A    between atoms: C_16  and  C_17 
REMARK    5  A    between atoms: O_24  and  C_17 
REMARK    6  A    between atoms: N_21  and  O_25 
REMARK    7  A    between atoms: S_30  and  N_23 
ROOT
HETATM    1  O   UNK N   1      31.968  15.717   9.071  0.00  0.00    -0.200 OA
HETATM    2  O   UNK N   1      32.904  17.872   8.740  0.00  0.00    -0.200 OA
HETATM    3  S   UNK N   1      32.730  16.532   8.011  0.00  0.00     0.261 S 
ENDROOT
BRANCH   3   4
HETATM    4  C   UNK N   1      31.727  16.598   6.533  0.00  0.00     0.079 A 
HETATM    5  C   UNK N   1      30.483  15.957   6.485  0.00  0.00     0.028 A 
HETATM    6  C   UNK N   1      29.743  15.953   5.296  0.00  0.00     0.039 A 
HETATM    7  C   UNK N   1      30.241  16.590   4.152  0.00  0.00     0.076 A 
HETATM    8  C   UNK N   1      31.485  17.239   4.221  0.00  0.00     0.039 A 
HETATM    9  C   UNK N   1      32.217  17.242   5.401  0.00  0.00     0.028 A 
BRANCH   7  10
HETATM   10  O   UNK N   1      29.546  16.500   2.985  0.00  0.00    -0.311 OA
BRANCH  10  11
HETATM   11  C   UNK N   1      28.692  15.505   2.625  0.00  0.00     0.078 A 
HETATM   12  C   UNK N   1      29.144  14.232   2.239  0.00  0.00     0.054 A 
HETATM   13  C   UNK N   1      28.223  13.243   1.898  0.00  0.00     0.090 A 
HETATM   14  N   UNK N   1      26.890  13.510   1.944  0.00  0.00    -0.375 N 
HETATM   15  C   UNK N   1      26.425  14.737   2.304  0.00  0.00     0.090 A 
ATOM     16  HN  UNK N   1      26.225  12.775   1.703  1.00  0.00     0.164 HD
HETATM   17  C   UNK N   1      27.318  15.756   2.642  0.00  0.00     0.054 A 
ENDBRANCH  10  11
ENDBRANCH   7  10
ENDBRANCH   3   4
BRANCH   3  18
HETATM   18  N   UNK N   1      34.335  15.721   7.899  0.00  0.00    -0.292 N 
HETATM   19  C   UNK N   1      34.416  14.871   6.708  0.00  0.00     0.146 C 
HETATM   20  C   UNK N   1      33.489  13.648   6.810  0.00  0.00     0.095 C 
HETATM   21  S   UNK N   1      33.326  12.960   8.514  0.00  0.00    -0.156 SA
HETATM   22  C   UNK N   1      34.943  13.549   9.111  0.00  0.00     0.029 C 
HETATM   23  C   UNK N   1      35.208  12.962  10.492  0.00  0.00     0.029 C 
HETATM   24  C   UNK N   1      36.033  12.956   8.220  0.00  0.00     0.029 C 
HETATM   25  C   UNK N   1      34.981  15.119   9.112  0.00  0.00     0.190 C 
BRANCH  25  26
HETATM   26  C   UNK N   1      34.465  15.712  10.432  0.00  0.00     0.161 C 
HETATM   27  N   UNK N   1      34.876  16.856  10.873  0.00  0.00    -0.249 N 
ATOM     28  HN  UNK N   1      34.516  17.196  11.765  1.00  0.00     0.196 HD
BRANCH  27  29
HETATM   29  O   UNK N   1      35.741  17.598  10.215  0.00  0.00    -0.288 OA
HETATM   30  H   UNK N   1      36.401  18.221   9.983  0.00  0.00     0.244 HD
ENDBRANCH  27  29
BRANCH  26  31
HETATM   31  O   UNK N   1      33.597  15.012  11.183  0.00  0.00    -0.346 OA
HETATM   32  H   UNK N   1      32.850  14.658  11.627  0.00  0.00     0.219 HD
ENDBRANCH  26  31
ENDBRANCH  25  26
ENDBRANCH   3  18
TORSDOF 7
ENDMDL
MODEL 4
REMARK VINA RESULT:      -6.7     15.241     17.785
REMARK  7 active torsions:
REMARK  status: ('A' for Active; 'I' for Inactive)
REMARK    1  A    between atoms: O_28  and  C_13 
REMARK    2  A    between atoms: O_28  and  C_14 
REMARK    3  A    between atoms: S_30  and  C_15 
REMARK    4  A    between atoms: C_16  and  C_17 
REMARK    5  A    between atoms: O_24  and  C_17 
REMARK    6  A    between atoms: N_21  and  O_25 
REMARK    7  A    between atoms: S_30  and  N_23 
ROOT
HETATM    1  O   UNK N   1      37.519  12.048  14.106  0.00  0.00    -0.200 OA
HETATM    2  O   UNK N   1      36.813  14.264  14.572  0.00  0.00    -0.200 OA
HETATM    3  S   UNK N   1      36.289  12.822  14.613  0.00  0.00     0.261 S 
ENDROOT
BRANCH   3   4
HETATM    4  C   UNK N   1      35.881  12.210  16.242  0.00  0.00     0.079 A 
HETATM    5  C   UNK N   1      35.242  13.036  17.176  0.00  0.00     0.028 A 
HETATM    6  C   UNK N   1      34.997  12.567  18.473  0.00  0.00     0.039 A 
HETATM    7  C   UNK N   1      35.388  11.273  18.842  0.00  0.00     0.076 A 
HETATM    8  C   UNK N   1      36.017  10.454  17.890  0.00  0.00     0.039 A 
HETATM    9  C   UNK N   1      36.259  10.921  16.604  0.00  0.00     0.028 A 
BRANCH   7  10
HETATM   10  O   UNK N   1      35.219  10.870  20.131  0.00  0.00    -0.311 OA
BRANCH  10  11
HETATM   11  C   UNK N   1      34.153  10.192  20.635  0.00  0.00     0.078 A 
HETATM   12  C   UNK N   1      33.643   9.035  20.022  0.00  0.00     0.054 A 
HETATM   13  C   UNK N   1      32.561   8.367  20.593  0.00  0.00     0.090 A 
HETATM   14  N   UNK N   1      32.004   8.833  21.743  0.00  0.00    -0.375 N 
HETATM   15  C   UNK N   1      32.471   9.958  22.351  0.00  0.00     0.090 A 
ATOM     16  HN  UNK N   1      31.219   8.331  22.157  1.00  0.00     0.164 HD
HETATM   17  C   UNK N   1      33.547  10.659  21.802  0.00  0.00     0.054 A 
ENDBRANCH  10  11
ENDBRANCH   7  10
ENDBRANCH   3   4
BRANCH   3  18
HETATM   18  N   UNK N   1      35.066  12.611  13.307  0.00  0.00    -0.292 N 
HETATM   19  C   UNK N   1      34.305  11.372  13.490  0.00  0.00     0.146 C 
HETATM   20  C   UNK N   1      35.175  10.125  13.263  0.00  0.00     0.095 C 
HETATM   21  S   UNK N   1      36.456  10.322  11.950  0.00  0.00    -0.156 SA
HETATM   22  C   UNK N   1      35.565  11.601  11.008  0.00  0.00     0.029 C 
HETATM   23  C   UNK N   1      36.304  11.862   9.702  0.00  0.00     0.029 C 
HETATM   24  C   UNK N   1      34.211  11.035  10.584  0.00  0.00     0.029 C 
HETATM   25  C   UNK N   1      35.408  12.901  11.876  0.00  0.00     0.190 C 
BRANCH  25  26
HETATM   26  C   UNK N   1      36.604  13.853  11.718  0.00  0.00     0.161 C 
HETATM   27  N   UNK N   1      36.446  15.128  11.577  0.00  0.00    -0.249 N 
ATOM     28  HN  UNK N   1      37.272  15.714  11.456  1.00  0.00     0.196 HD
BRANCH  27  29
HETATM   29  O   UNK N   1      35.260  15.699  11.582  0.00  0.00    -0.288 OA
HETATM   30  H   UNK N   1      34.484  16.169  11.344  0.00  0.00     0.244 HD
ENDBRANCH  27  29
BRANCH  26  31
HETATM   31  O   UNK N   1      37.852  13.355  11.677  0.00  0.00    -0.346 OA
HETATM   32  H   UNK N   1      38.747  13.118  11.827  0.00  0.00     0.219 HD
ENDBRANCH  26  31
ENDBRANCH  25  26
ENDBRANCH   3  18
TORSDOF 7
ENDMDL
MODEL 5
REMARK VINA RESULT:      -6.6      8.284      9.806
REMARK  7 active torsions:
REMARK  status: ('A' for Active; 'I' for Inactive)
REMARK    1  A    between atoms: O_28  and  C_13 
REMARK    2  A    between atoms: O_28  and  C_14 
REMARK    3  A    between atoms: S_30  and  C_15 
REMARK    4  A    between atoms: C_16  and  C_17 
REMARK    5  A    between atoms: O_24  and  C_17 
REMARK    6  A    between atoms: N_21  and  O_25 
REMARK    7  A    between atoms: S_30  and  N_23 
ROOT
HETATM    1  O   UNK N   1      29.647  14.953   4.599  0.00  0.00    -0.200 OA
HETATM    2  O   UNK N   1      29.326  17.158   3.784  0.00  0.00    -0.200 OA
HETATM    3  S   UNK N   1      29.380  16.381   5.107  0.00  0.00     0.261 S 
ENDROOT
BRANCH   3   4
HETATM    4  C   UNK N   1      30.718  16.841   6.201  0.00  0.00     0.079 A 
HETATM    5  C   UNK N   1      31.977  17.178   5.688  0.00  0.00     0.028 A 
HETATM    6  C   UNK N   1      33.035  17.461   6.560  0.00  0.00     0.039 A 
HETATM    7  C   UNK N   1      32.840  17.410   7.947  0.00  0.00     0.076 A 
HETATM    8  C   UNK N   1      31.569  17.082   8.444  0.00  0.00     0.039 A 
HETATM    9  C   UNK N   1      30.520  16.801   7.577  0.00  0.00     0.028 A 
BRANCH   7  10
HETATM   10  O   UNK N   1      33.903  17.604   8.775  0.00  0.00    -0.311 OA
BRANCH  10  11
HETATM   11  C   UNK N   1      34.717  16.642   9.289  0.00  0.00     0.078 A 
HETATM   12  C   UNK N   1      35.009  15.458   8.592  0.00  0.00     0.054 A 
HETATM   13  C   UNK N   1      35.866  14.515   9.158  0.00  0.00     0.090 A 
HETATM   14  N   UNK N   1      36.420  14.744  10.379  0.00  0.00    -0.375 N 
HETATM   15  C   UNK N   1      36.144  15.878  11.080  0.00  0.00     0.090 A 
ATOM     16  HN  UNK N   1      37.053  14.052  10.779  1.00  0.00     0.164 HD
HETATM   17  C   UNK N   1      35.282  16.841  10.550  0.00  0.00     0.054 A 
ENDBRANCH  10  11
ENDBRANCH   7  10
ENDBRANCH   3   4
BRANCH   3  18
HETATM   18  N   UNK N   1      27.720  16.301   5.801  0.00  0.00    -0.292 N 
HETATM   19  C   UNK N   1      26.974  15.162   5.257  0.00  0.00     0.146 C 
HETATM   20  C   UNK N   1      26.646  15.348   3.767  0.00  0.00     0.095 C 
HETATM   21  S   UNK N   1      26.295  17.092   3.279  0.00  0.00    -0.156 SA
HETATM   22  C   UNK N   1      25.719  17.634   4.920  0.00  0.00     0.029 C 
HETATM   23  C   UNK N   1      25.154  19.044   4.808  0.00  0.00     0.029 C 
HETATM   24  C   UNK N   1      24.527  16.768   5.326  0.00  0.00     0.029 C 
HETATM   25  C   UNK N   1      26.890  17.540   5.962  0.00  0.00     0.190 C 
BRANCH  25  26
HETATM   26  C   UNK N   1      27.727  18.828   6.014  0.00  0.00     0.161 C 
HETATM   27  N   UNK N   1      27.962  19.445   7.125  0.00  0.00    -0.249 N 
ATOM     28  HN  UNK N   1      28.506  20.307   7.102  1.00  0.00     0.196 HD
BRANCH  27  29
HETATM   29  O   UNK N   1      27.523  19.003   8.285  0.00  0.00    -0.288 OA
HETATM   30  H   UNK N   1      27.304  18.917   9.192  0.00  0.00     0.244 HD
ENDBRANCH  27  29
BRANCH  26  31
HETATM   31  O   UNK N   1      28.195  19.365   4.873  0.00  0.00    -0.346 OA
HETATM   32  H   UNK N   1      28.418  19.578   3.987  0.00  0.00     0.219 HD
ENDBRANCH  26  31
ENDBRANCH  25  26
ENDBRANCH   3  18
TORSDOF 7
ENDMDL
MODEL 6
REMARK VINA RESULT:      -6.6      9.649     13.319
REMARK  7 active torsions:
REMARK  status: ('A' for Active; 'I' for Inactive)
REMARK    1  A    between atoms: O_28  and  C_13 
REMARK    2  A    between atoms: O_28  and  C_14 
REMARK    3  A    between atoms: S_30  and  C_15 
REMARK    4  A    between atoms: C_16  and  C_17 
REMARK    5  A    between atoms: O_24  and  C_17 
REMARK    6  A    between atoms: N_21  and  O_25 
REMARK    7  A    between atoms: S_30  and  N_23 
ROOT
HETATM    1  O   UNK N   1      34.178  17.620   9.564  0.00  0.00    -0.200 OA
HETATM    2  O   UNK N   1      34.989  18.520   7.525  0.00  0.00    -0.200 OA
HETATM    3  S   UNK N   1      34.194  17.319   8.055  0.00  0.00     0.261 S 
ENDROOT
BRANCH   3   4
HETATM    4  C   UNK N   1      32.501  17.222   7.489  0.00  0.00     0.079 A 
HETATM    5  C   UNK N   1      32.195  17.326   6.126  0.00  0.00     0.028 A 
HETATM    6  C   UNK N   1      30.860  17.325   5.706  0.00  0.00     0.039 A 
HETATM    7  C   UNK N   1      29.824  17.220   6.644  0.00  0.00     0.076 A 
HETATM    8  C   UNK N   1      30.148  17.104   8.006  0.00  0.00     0.039 A 
HETATM    9  C   UNK N   1      31.474  17.106   8.420  0.00  0.00     0.028 A 
BRANCH   7  10
HETATM   10  O   UNK N   1      28.534  17.308   6.222  0.00  0.00    -0.311 OA
BRANCH  10  11
HETATM   11  C   UNK N   1      27.927  18.403   5.689  0.00  0.00     0.078 A 
HETATM   12  C   UNK N   1      27.554  18.469   4.337  0.00  0.00     0.054 A 
HETATM   13  C   UNK N   1      26.917  19.609   3.848  0.00  0.00     0.090 A 
HETATM   14  N   UNK N   1      26.655  20.652   4.681  0.00  0.00    -0.375 N 
HETATM   15  C   UNK N   1      27.015  20.618   5.993  0.00  0.00     0.090 A 
ATOM     16  HN  UNK N   1      26.179  21.476   4.315  1.00  0.00     0.164 HD
HETATM   17  C   UNK N   1      27.664  19.497   6.516  0.00  0.00     0.054 A 
ENDBRANCH  10  11
ENDBRANCH   7  10
ENDBRANCH   3   4
BRANCH   3  18
HETATM   18  N   UNK N   1      35.212  15.840   7.910  0.00  0.00    -0.292 N 
HETATM   19  C   UNK N   1      35.165  15.296   6.550  0.00  0.00     0.146 C 
HETATM   20  C   UNK N   1      33.781  14.718   6.210  0.00  0.00     0.095 C 
HETATM   21  S   UNK N   1      32.923  13.917   7.632  0.00  0.00    -0.156 SA
HETATM   22  C   UNK N   1      34.437  13.484   8.547  0.00  0.00     0.029 C 
HETATM   23  C   UNK N   1      34.067  12.608   9.737  0.00  0.00     0.029 C 
HETATM   24  C   UNK N   1      35.300  12.590   7.658  0.00  0.00     0.029 C 
HETATM   25  C   UNK N   1      35.200  14.787   8.978  0.00  0.00     0.190 C 
BRANCH  25  26
HETATM   26  C   UNK N   1      34.726  15.313  10.343  0.00  0.00     0.161 C 
HETATM   27  N   UNK N   1      35.537  15.881  11.174  0.00  0.00    -0.249 N 
ATOM     28  HN  UNK N   1      35.176  16.195  12.075  1.00  0.00     0.196 HD
BRANCH  27  29
HETATM   29  O   UNK N   1      36.811  16.069  10.902  0.00  0.00    -0.288 OA
HETATM   30  H   UNK N   1      37.648  16.452  10.723  0.00  0.00     0.244 HD
ENDBRANCH  27  29
BRANCH  26  31
HETATM   31  O   UNK N   1      33.445  15.142  10.715  0.00  0.00    -0.346 OA
HETATM   32  H   UNK N   1      32.575  14.833  10.881  0.00  0.00     0.219 HD
ENDBRANCH  26  31
ENDBRANCH  25  26
ENDBRANCH   3  18
TORSDOF 7
ENDMDL
MODEL 7
REMARK VINA RESULT:      -6.5     11.420     15.542
REMARK  7 active torsions:
REMARK  status: ('A' for Active; 'I' for Inactive)
REMARK    1  A    between atoms: O_28  and  C_13 
REMARK    2  A    between atoms: O_28  and  C_14 
REMARK    3  A    between atoms: S_30  and  C_15 
REMARK    4  A    between atoms: C_16  and  C_17 
REMARK    5  A    between atoms: O_24  and  C_17 
REMARK    6  A    between atoms: N_21  and  O_25 
REMARK    7  A    between atoms: S_30  and  N_23 
ROOT
HETATM    1  O   UNK N   1      35.604  11.018   8.702  0.00  0.00    -0.200 OA
HETATM    2  O   UNK N   1      34.040  11.450  10.433  0.00  0.00    -0.200 OA
HETATM    3  S   UNK N   1      35.149  12.153   9.637  0.00  0.00     0.261 S 
ENDROOT
BRANCH   3   4
HETATM    4  C   UNK N   1      34.603  13.522   8.625  0.00  0.00     0.079 A 
HETATM    5  C   UNK N   1      35.524  14.278   7.889  0.00  0.00     0.028 A 
HETATM    6  C   UNK N   1      35.091  15.394   7.162  0.00  0.00     0.039 A 
HETATM    7  C   UNK N   1      33.739  15.758   7.166  0.00  0.00     0.076 A 
HETATM    8  C   UNK N   1      32.827  14.983   7.900  0.00  0.00     0.039 A 
HETATM    9  C   UNK N   1      33.258  13.876   8.621  0.00  0.00     0.028 A 
BRANCH   7  10
HETATM   10  O   UNK N   1      33.355  16.895   6.524  0.00  0.00    -0.311 OA
BRANCH  10  11
HETATM   11  C   UNK N   1      32.543  16.977   5.435  0.00  0.00     0.078 A 
HETATM   12  C   UNK N   1      31.154  17.157   5.549  0.00  0.00     0.054 A 
HETATM   13  C   UNK N   1      30.372  17.254   4.398  0.00  0.00     0.090 A 
HETATM   14  N   UNK N   1      30.954  17.180   3.172  0.00  0.00    -0.375 N 
HETATM   15  C   UNK N   1      32.295  16.995   3.033  0.00  0.00     0.090 A 
ATOM     16  HN  UNK N   1      30.373  17.263   2.337  1.00  0.00     0.164 HD
HETATM   17  C   UNK N   1      33.109  16.882   4.163  0.00  0.00     0.054 A 
ENDBRANCH  10  11
ENDBRANCH   7  10
ENDBRANCH   3   4
BRANCH   3  18
HETATM   18  N   UNK N   1      36.561  12.423  10.723  0.00  0.00    -0.292 N 
HETATM   19  C   UNK N   1      37.227  11.159  11.049  0.00  0.00     0.146 C 
HETATM   20  C   UNK N   1      36.353  10.262  11.942  0.00  0.00     0.095 C 
HETATM   21  S   UNK N   1      35.316  11.183  13.158  0.00  0.00    -0.156 SA
HETATM   22  C   UNK N   1      36.404  12.640  13.269  0.00  0.00     0.029 C 
HETATM   23  C   UNK N   1      35.903  13.552  14.382  0.00  0.00     0.029 C 
HETATM   24  C   UNK N   1      37.784  12.179  13.736  0.00  0.00     0.029 C 
HETATM   25  C   UNK N   1      36.472  13.371  11.881  0.00  0.00     0.190 C 
BRANCH  25  26
HETATM   26  C   UNK N   1      35.361  14.421  11.722  0.00  0.00     0.161 C 
HETATM   27  N   UNK N   1      35.613  15.629  11.338  0.00  0.00    -0.249 N 
ATOM     28  HN  UNK N   1      34.842  16.293  11.268  1.00  0.00     0.196 HD
BRANCH  27  29
HETATM   29  O   UNK N   1      36.828  16.035  11.034  0.00  0.00    -0.288 OA
HETATM   30  H   UNK N   1      37.728  16.070  10.776  0.00  0.00     0.244 HD
ENDBRANCH  27  29
BRANCH  26  31
HETATM   31  O   UNK N   1      34.093  14.101  12.035  0.00  0.00    -0.346 OA
HETATM   32  H   UNK N   1      33.246  13.708  12.131  0.00  0.00     0.219 HD
ENDBRANCH  26  31
ENDBRANCH  25  26
ENDBRANCH   3  18
TORSDOF 7
ENDMDL
MODEL 8
REMARK VINA RESULT:      -6.4     10.953     13.331
REMARK  7 active torsions:
REMARK  status: ('A' for Active; 'I' for Inactive)
REMARK    1  A    between atoms: O_28  and  C_13 
REMARK    2  A    between atoms: O_28  and  C_14 
REMARK    3  A    between atoms: S_30  and  C_15 
REMARK    4  A    between atoms: C_16  and  C_17 
REMARK    5  A    between atoms: O_24  and  C_17 
REMARK    6  A    between atoms: N_21  and  O_25 
REMARK    7  A    between atoms: S_30  and  N_23 
ROOT
HETATM    1  O   UNK N   1      34.353  12.836   6.743  0.00  0.00    -0.200 OA
HETATM    2  O   UNK N   1      35.261  14.861   5.904  0.00  0.00    -0.200 OA
HETATM    3  S   UNK N   1      34.307  14.354   6.994  0.00  0.00     0.261 S 
ENDROOT
BRANCH   3   4
HETATM    4  C   UNK N   1      34.844  14.656   8.672  0.00  0.00     0.079 A 
HETATM    5  C   UNK N   1      36.190  14.508   9.030  0.00  0.00     0.028 A 
HETATM    6  C   UNK N   1      36.583  14.674  10.363  0.00  0.00     0.039 A 
HETATM    7  C   UNK N   1      35.635  14.989  11.345  0.00  0.00     0.076 A 
HETATM    8  C   UNK N   1      34.291  15.146  10.968  0.00  0.00     0.039 A 
HETATM    9  C   UNK N   1      33.903  14.981   9.644  0.00  0.00     0.028 A 
BRANCH   7  10
HETATM   10  O   UNK N   1      36.024  15.060  12.647  0.00  0.00    -0.311 OA
BRANCH  10  11
HETATM   11  C   UNK N   1      35.952  14.064  13.571  0.00  0.00     0.078 A 
HETATM   12  C   UNK N   1      36.607  14.145  14.811  0.00  0.00     0.054 A 
HETATM   13  C   UNK N   1      36.483  13.103  15.729  0.00  0.00     0.090 A 
HETATM   14  N   UNK N   1      35.726  12.015  15.425  0.00  0.00    -0.375 N 
HETATM   15  C   UNK N   1      35.090  11.907  14.227  0.00  0.00     0.090 A 
ATOM     16  HN  UNK N   1      35.634  11.263  16.109  1.00  0.00     0.164 HD
HETATM   17  C   UNK N   1      35.200  12.925  13.278  0.00  0.00     0.054 A 
ENDBRANCH  10  11
ENDBRANCH   7  10
ENDBRANCH   3   4
BRANCH   3  18
HETATM   18  N   UNK N   1      32.623  14.822   6.556  0.00  0.00    -0.292 N 
HETATM   19  C   UNK N   1      32.005  13.818   5.686  0.00  0.00     0.146 C 
HETATM   20  C   UNK N   1      32.657  13.783   4.294  0.00  0.00     0.095 C 
HETATM   21  S   UNK N   1      33.214  15.429   3.675  0.00  0.00    -0.156 SA
HETATM   22  C   UNK N   1      32.018  16.408   4.639  0.00  0.00     0.029 C 
HETATM   23  C   UNK N   1      32.094  17.863   4.197  0.00  0.00     0.029 C 
HETATM   24  C   UNK N   1      30.607  15.959   4.259  0.00  0.00     0.029 C 
HETATM   25  C   UNK N   1      32.290  16.234   6.176  0.00  0.00     0.190 C 
BRANCH  25  26
HETATM   26  C   UNK N   1      33.304  17.261   6.706  0.00  0.00     0.161 C 
HETATM   27  N   UNK N   1      33.062  17.981   7.752  0.00  0.00    -0.249 N 
ATOM     28  HN  UNK N   1      33.760  18.661   8.051  1.00  0.00     0.196 HD
BRANCH  27  29
HETATM   29  O   UNK N   1      31.949  17.868   8.445  0.00  0.00    -0.288 OA
HETATM   30  H   UNK N   1      31.208  18.036   8.995  0.00  0.00     0.244 HD
ENDBRANCH  27  29
BRANCH  26  31
HETATM   31  O   UNK N   1      34.458  17.460   6.045  0.00  0.00    -0.346 OA
HETATM   32  H   UNK N   1      35.348  17.585   5.778  0.00  0.00     0.219 HD
ENDBRANCH  26  31
ENDBRANCH  25  26
ENDBRANCH   3  18
TORSDOF 7
ENDMDL
MODEL 9
REMARK VINA RESULT:      -6.4     11.387     15.632
REMARK  7 active torsions:
REMARK  status: ('A' for Active; 'I' for Inactive)
REMARK    1  A    between atoms: O_28  and  C_13 
REMARK    2  A    between atoms: O_28  and  C_14 
REMARK    3  A    between atoms: S_30  and  C_15 
REMARK    4  A    between atoms: C_16  and  C_17 
REMARK    5  A    between atoms: O_24  and  C_17 
REMARK    6  A    between atoms: N_21  and  O_25 
REMARK    7  A    between atoms: S_30  and  N_23 
ROOT
HETATM    1  O   UNK N   1      36.621  14.940  12.153  0.00  0.00    -0.200 OA
HETATM    2  O   UNK N   1      37.273  13.168  10.718  0.00  0.00    -0.200 OA
HETATM    3  S   UNK N   1      36.041  14.011  11.073  0.00  0.00     0.261 S 
ENDROOT
BRANCH   3   4
HETATM    4  C   UNK N   1      35.412  15.029   9.744  0.00  0.00     0.079 A 
HETATM    5  C   UNK N   1      35.469  14.588   8.416  0.00  0.00     0.028 A 
HETATM    6  C   UNK N   1      35.042  15.427   7.380  0.00  0.00     0.039 A 
HETATM    7  C   UNK N   1      34.557  16.710   7.665  0.00  0.00     0.076 A 
HETATM    8  C   UNK N   1      34.496  17.134   9.003  0.00  0.00     0.039 A 
HETATM    9  C   UNK N   1      34.919  16.299  10.030  0.00  0.00     0.028 A 
BRANCH   7  10
HETATM   10  O   UNK N   1      34.230  17.541   6.638  0.00  0.00    -0.311 OA
BRANCH  10  11
HETATM   11  C   UNK N   1      33.124  17.459   5.849  0.00  0.00     0.078 A 
HETATM   12  C   UNK N   1      31.845  17.215   6.376  0.00  0.00     0.054 A 
HETATM   13  C   UNK N   1      30.743  17.160   5.523  0.00  0.00     0.090 A 
HETATM   14  N   UNK N   1      30.908  17.347   4.186  0.00  0.00    -0.375 N 
HETATM   15  C   UNK N   1      32.138  17.574   3.649  0.00  0.00     0.090 A 
ATOM     16  HN  UNK N   1      30.093  17.316   3.573  1.00  0.00     0.164 HD
HETATM   17  C   UNK N   1      33.266  17.625   4.470  0.00  0.00     0.054 A 
ENDBRANCH  10  11
ENDBRANCH   7  10
ENDBRANCH   3   4
BRANCH   3  18
HETATM   18  N   UNK N   1      34.866  12.977  11.964  0.00  0.00    -0.292 N 
HETATM   19  C   UNK N   1      35.136  12.991  13.405  0.00  0.00     0.146 C 
HETATM   20  C   UNK N   1      36.455  12.278  13.749  0.00  0.00     0.095 C 
HETATM   21  S   UNK N   1      36.834  10.824  12.679  0.00  0.00    -0.156 SA
HETATM   22  C   UNK N   1      35.103  10.444  12.257  0.00  0.00     0.029 C 
HETATM   23  C   UNK N   1      35.053   9.124  11.498  0.00  0.00     0.029 C 
HETATM   24  C   UNK N   1      34.336  10.178  13.552  0.00  0.00     0.029 C 
HETATM   25  C   UNK N   1      34.473  11.628  11.440  0.00  0.00     0.190 C 
BRANCH  25  26
HETATM   26  C   UNK N   1      34.700  11.475   9.927  0.00  0.00     0.161 C 
HETATM   27  N   UNK N   1      33.731  11.577   9.078  0.00  0.00    -0.249 N 
ATOM     28  HN  UNK N   1      33.932  11.448   8.086  1.00  0.00     0.196 HD
BRANCH  27  29
HETATM   29  O   UNK N   1      32.495  11.840   9.444  0.00  0.00    -0.288 OA
HETATM   30  H   UNK N   1      31.693  12.272   9.668  0.00  0.00     0.244 HD
ENDBRANCH  27  29
BRANCH  26  31
HETATM   31  O   UNK N   1      35.928  11.181   9.464  0.00  0.00    -0.346 OA
HETATM   32  H   UNK N   1      36.692  10.793   9.082  0.00  0.00     0.219 HD
ENDBRANCH  26  31
ENDBRANCH  25  26
ENDBRANCH   3  18
TORSDOF 7
ENDMDL
