REMARK  5 active torsions:
REMARK  status: ('A' for Active; 'I' for Inactive)
REMARK    1  A    between atoms: C_18  and  C_14 
REMARK    2  A    between atoms: N_32  and  C_14 
REMARK    3  A    between atoms: C_26  and  C_21 
REMARK    4  A    between atoms: C_25  and  C_22 
REMARK    5  A    between atoms: C_27  and  C_25 
REMARK       I    between atoms: N_33  and  C_26 
REMARK       I    between atoms: N_30  and  C_27 
ROOT
HETATM    1  C   UNK N   1      -0.568  -4.567   1.336  0.00  0.00     0.156 C 
HETATM    2  C   UNK N   1       2.370  -1.107  -0.287  0.00  0.00     0.033 A 
HETATM    3  C   UNK N   1       2.353  -3.744   0.606  0.00  0.00     0.055 A 
HETATM    4  C   UNK N   1      -0.876  -2.226   0.495  0.00  0.00     0.107 A 
HETATM    5  C   UNK N   1       1.205  -1.746  -0.028  0.00  0.00     0.007 A 
HETATM    6  C   UNK N   1       3.589  -1.701  -0.031  0.00  0.00     0.054 A 
HETATM    7  C   UNK N   1      -0.056  -1.218  -0.021  0.00  0.00     0.048 A 
HETATM    8  C   UNK N   1       3.594  -3.081   0.358  0.00  0.00     0.051 A 
HETATM    9  C   UNK N   1       1.167  -3.006   0.437  0.00  0.00     0.046 A 
HETATM   10 Cl   UNK N   1       5.088  -3.945   0.688  0.00  0.00    -0.083 Cl
HETATM   11  N   UNK N   1      -0.105  -3.324   0.745  0.00  0.00    -0.359 N 
ENDROOT
BRANCH   6  12
HETATM   12  C   UNK N   1       4.800  -0.808  -0.097  0.00  0.00     0.256 C 
HETATM   13  N   UNK N   1       4.729   0.565   0.155  0.00  0.00    -0.340 N 
HETATM   14  C   UNK N   1       5.952   1.348  -0.025  0.00  0.00     0.162 C 
HETATM   15  C   UNK N   1       3.475   1.231   0.596  0.00  0.00     0.111 C 
HETATM   16  C   UNK N   1       5.788   2.861   0.163  0.00  0.00     0.237 C 
HETATM   17  C   UNK N   1       6.140   3.254   1.605  0.00  0.00     0.044 C 
HETATM   18  N   UNK N   1       4.418   3.262  -0.245  0.00  0.00     0.100 N 
HETATM   19  C   UNK N   1       3.549   2.718   0.769  0.00  0.00     0.298 C 
HETATM   20  C   UNK N   1       2.997   0.673   1.934  0.00  0.00     0.034 C 
HETATM   21  O   UNK N   1       5.885  -1.315  -0.346  0.00  0.00    -0.267 OA
BRANCH  18  22
HETATM   22  C   UNK N   1       4.078   4.692  -0.324  0.00  0.00     0.311 C 
BRANCH  22  23
HETATM   23  C   UNK N   1       5.259   5.568  -0.478  0.00  0.00    -0.030 A 
HETATM   24  C   UNK N   1       6.052   5.504  -1.629  0.00  0.00     0.012 A 
HETATM   25  C   UNK N   1       7.269   6.185  -1.663  0.00  0.00     0.043 A 
HETATM   26  C   UNK N   1       7.684   6.925  -0.551  0.00  0.00     0.116 A 
HETATM   27  C   UNK N   1       6.867   7.019   0.578  0.00  0.00     0.043 A 
HETATM   28  F   UNK N   1       8.887   7.541  -0.559  0.00  0.00    -0.206 F 
HETATM   29  C   UNK N   1       5.655   6.336   0.615  0.00  0.00     0.012 A 
ENDBRANCH  22  23
ENDBRANCH  18  22
ENDBRANCH   6  12
BRANCH   7  30
HETATM   30  C   UNK N   1      -0.324   0.212  -0.363  0.00  0.00     0.251 C 
HETATM   31  O   UNK N   1       0.482   0.787  -1.083  0.00  0.00    -0.281 OA
BRANCH  30  32
HETATM   32  C   UNK N   1      -1.448   0.994   0.229  0.00  0.00     0.294 C 
HETATM   33  N   UNK N   1      -1.519   2.364   0.140  0.00  0.00    -0.354 N 
HETATM   34  C   UNK N   1      -2.592   3.081   0.777  0.00  0.00     0.152 C 
HETATM   35  C   UNK N   1      -0.505   3.156  -0.523  0.00  0.00     0.152 C 
HETATM   36  O   UNK N   1      -2.306   0.390   0.864  0.00  0.00    -0.264 OA
ENDBRANCH  30  32
ENDBRANCH   7  30
TORSDOF 5
