REMARK  3 active torsions:
REMARK  status: ('A' for Active; 'I' for Inactive)
REMARK    1  A    between atoms: O_1  and  C_4 
REMARK    2  A    between atoms: O_1  and  C_6 
REMARK    3  A    between atoms: C_6  and  C_7 
ROOT
HETATM    1  O   UNK N   1       3.820  -1.742  -0.000  0.00  0.00    -0.256 OA
HETATM    2  C   UNK N   1       3.845  -0.519   0.000  0.00  0.00     0.329 C 
ENDROOT
BRANCH   2   3
HETATM    3  O   UNK N   1       2.696   0.201   0.000  0.00  0.00    -0.316 OA
BRANCH   3   4
HETATM    4  C   UNK N   1       1.446  -0.366  -0.000  0.00  0.00     0.175 C 
HETATM    5  C   UNK N   1       0.415   0.743  -0.000  0.00  0.00     0.034 C 
ENDBRANCH   3   4
ENDBRANCH   2   3
BRANCH   2   6
HETATM    6  C   UNK N   1       5.130   0.202   0.000  0.00  0.00     0.220 C 
HETATM    7  O   UNK N   1       5.139   1.421   0.000  0.00  0.00    -0.287 OA
HETATM    8  C   UNK N   1       6.426  -0.539  -0.000  0.00  0.00     0.103 C 
ENDBRANCH   2   6
TORSDOF 3
