MODEL 1
REMARK VINA RESULT:      -4.1      0.000      0.000
REMARK  4 active torsions:
REMARK  status: ('A' for Active; 'I' for Inactive)
REMARK    1  A    between atoms: S_1  and  S_2 
REMARK    2  A    between atoms: S_1  and  C_6 
REMARK    3  A    between atoms: S_2  and  C_10 
REMARK    4  A    between atoms: C_6  and  C_7 
ROOT
HETATM    1  N   UNK N   1      33.831  15.775   9.808  0.00  0.00    -0.345 N 
HETATM    2  N   UNK N   1      35.475  17.126  10.496  0.00  0.00    -0.345 N 
ATOM      3  HN  UNK N   1      36.122  17.913  10.540  1.00  0.00     0.167 HD
HETATM    4  C   UNK N   1      34.507  16.915   9.588  0.00  0.00     0.154 A 
HETATM    5  C   UNK N   1      34.389  15.243  10.911  0.00  0.00     0.107 A 
HETATM    6  C   UNK N   1      35.407  16.077  11.335  0.00  0.00     0.107 A 
HETATM    7  H   UNK N   1      33.089  15.407   9.276  0.00  0.00     0.167 HD
ENDROOT
BRANCH   4   8
HETATM    8  S   UNK N   1      34.205  18.021   8.211  0.00  0.00    -0.021 SA
BRANCH   8   9
HETATM    9  S   UNK N   1      32.083  17.787   8.216  0.00  0.00    -0.085 SA
BRANCH   9  10
HETATM   10  C   UNK N   1      32.142  16.854   6.659  0.00  0.00     0.054 C 
HETATM   11  C   UNK N   1      30.838  17.027   5.901  0.00  0.00     0.022 C 
BRANCH  10  12
HETATM   12  C   UNK N   1      33.319  17.347   5.833  0.00  0.00     0.011 C 
HETATM   13  C   UNK N   1      32.897  17.617   4.402  0.00  0.00     0.006 C 
ENDBRANCH  10  12
ENDBRANCH   9  10
ENDBRANCH   8   9
ENDBRANCH   4   8
TORSDOF 4
ENDMDL
MODEL 2
REMARK VINA RESULT:      -3.9      4.890      7.932
REMARK  4 active torsions:
REMARK  status: ('A' for Active; 'I' for Inactive)
REMARK    1  A    between atoms: S_1  and  S_2 
REMARK    2  A    between atoms: S_1  and  C_6 
REMARK    3  A    between atoms: S_2  and  C_10 
REMARK    4  A    between atoms: C_6  and  C_7 
ROOT
HETATM    1  N   UNK N   1      36.386  15.692  11.477  0.00  0.00    -0.345 N 
HETATM    2  N   UNK N   1      34.477  14.530  11.563  0.00  0.00    -0.345 N 
ATOM      3  HN  UNK N   1      33.762  13.870  11.870  1.00  0.00     0.167 HD
HETATM    4  C   UNK N   1      35.673  14.761  12.133  0.00  0.00     0.154 A 
HETATM    5  C   UNK N   1      35.605  16.076  10.451  0.00  0.00     0.107 A 
HETATM    6  C   UNK N   1      34.426  15.355  10.503  0.00  0.00     0.107 A 
HETATM    7  H   UNK N   1      37.287  16.022  11.699  0.00  0.00     0.167 HD
ENDROOT
BRANCH   4   8
HETATM    8  S   UNK N   1      36.252  13.873  13.577  0.00  0.00    -0.021 SA
BRANCH   8   9
HETATM    9  S   UNK N   1      35.285  12.033  13.095  0.00  0.00    -0.085 SA
BRANCH   9  10
HETATM   10  C   UNK N   1      34.460  11.996  14.712  0.00  0.00     0.054 C 
HETATM   11  C   UNK N   1      33.623  10.736  14.839  0.00  0.00     0.022 C 
BRANCH  10  12
HETATM   12  C   UNK N   1      35.514  12.061  15.805  0.00  0.00     0.011 C 
HETATM   13  C   UNK N   1      34.995  12.824  17.008  0.00  0.00     0.006 C 
ENDBRANCH  10  12
ENDBRANCH   9  10
ENDBRANCH   8   9
ENDBRANCH   4   8
TORSDOF 4
ENDMDL
MODEL 3
REMARK VINA RESULT:      -3.9      1.946      2.704
REMARK  4 active torsions:
REMARK  status: ('A' for Active; 'I' for Inactive)
REMARK    1  A    between atoms: S_1  and  S_2 
REMARK    2  A    between atoms: S_1  and  C_6 
REMARK    3  A    between atoms: S_2  and  C_10 
REMARK    4  A    between atoms: C_6  and  C_7 
ROOT
HETATM    1  N   UNK N   1      34.998  17.200  10.472  0.00  0.00    -0.345 N 
HETATM    2  N   UNK N   1      35.069  15.630   8.881  0.00  0.00    -0.345 N 
ATOM      3  HN  UNK N   1      34.911  15.142   8.000  1.00  0.00     0.167 HD
HETATM    4  C   UNK N   1      34.616  16.846   9.233  0.00  0.00     0.154 A 
HETATM    5  C   UNK N   1      35.734  16.168  10.923  0.00  0.00     0.107 A 
HETATM    6  C   UNK N   1      35.775  15.196   9.940  0.00  0.00     0.107 A 
HETATM    7  H   UNK N   1      34.785  18.035  10.947  0.00  0.00     0.167 HD
ENDROOT
BRANCH   4   8
HETATM    8  S   UNK N   1      33.575  17.843   8.170  0.00  0.00    -0.021 SA
BRANCH   8   9
HETATM    9  S   UNK N   1      32.102  16.333   7.843  0.00  0.00    -0.085 SA
BRANCH   9  10
HETATM   10  C   UNK N   1      30.807  17.588   7.629  0.00  0.00     0.054 C 
HETATM   11  C   UNK N   1      29.496  16.921   7.250  0.00  0.00     0.022 C 
BRANCH  10  12
HETATM   12  C   UNK N   1      30.662  18.375   8.921  0.00  0.00     0.011 C 
HETATM   13  C   UNK N   1      29.208  18.455   9.342  0.00  0.00     0.006 C 
ENDBRANCH  10  12
ENDBRANCH   9  10
ENDBRANCH   8   9
ENDBRANCH   4   8
TORSDOF 4
ENDMDL
MODEL 4
REMARK VINA RESULT:      -3.9      2.328      3.119
REMARK  4 active torsions:
REMARK  status: ('A' for Active; 'I' for Inactive)
REMARK    1  A    between atoms: S_1  and  S_2 
REMARK    2  A    between atoms: S_1  and  C_6 
REMARK    3  A    between atoms: S_2  and  C_10 
REMARK    4  A    between atoms: C_6  and  C_7 
ROOT
HETATM    1  N   UNK N   1      34.575  14.112  11.537  0.00  0.00    -0.345 N 
HETATM    2  N   UNK N   1      36.362  15.007  12.539  0.00  0.00    -0.345 N 
ATOM      3  HN  UNK N   1      37.109  15.660  12.777  1.00  0.00     0.167 HD
HETATM    4  C   UNK N   1      35.408  15.164  11.606  0.00  0.00     0.154 A 
HETATM    5  C   UNK N   1      35.014  13.253  12.475  0.00  0.00     0.107 A 
HETATM    6  C   UNK N   1      36.121  13.805  13.092  0.00  0.00     0.107 A 
HETATM    7  H   UNK N   1      33.808  13.994  10.930  0.00  0.00     0.167 HD
ENDROOT
BRANCH   4   8
HETATM    8  S   UNK N   1      35.309  16.604  10.545  0.00  0.00    -0.021 SA
BRANCH   8   9
HETATM    9  S   UNK N   1      33.905  15.761   9.177  0.00  0.00    -0.085 SA
BRANCH   9  10
HETATM   10  C   UNK N   1      33.318  17.412   8.700  0.00  0.00     0.054 C 
HETATM   11  C   UNK N   1      34.457  18.212   8.092  0.00  0.00     0.022 C 
BRANCH  10  12
HETATM   12  C   UNK N   1      32.172  17.262   7.713  0.00  0.00     0.011 C 
HETATM   13  C   UNK N   1      30.846  17.155   8.441  0.00  0.00     0.006 C 
ENDBRANCH  10  12
ENDBRANCH   9  10
ENDBRANCH   8   9
ENDBRANCH   4   8
TORSDOF 4
ENDMDL
MODEL 5
REMARK VINA RESULT:      -3.8      6.095      9.159
REMARK  4 active torsions:
REMARK  status: ('A' for Active; 'I' for Inactive)
REMARK    1  A    between atoms: S_1  and  S_2 
REMARK    2  A    between atoms: S_1  and  C_6 
REMARK    3  A    between atoms: S_2  and  C_10 
REMARK    4  A    between atoms: C_6  and  C_7 
ROOT
HETATM    1  N   UNK N   1      35.547  14.697  12.373  0.00  0.00    -0.345 N 
HETATM    2  N   UNK N   1      37.316  13.333  12.258  0.00  0.00    -0.345 N 
ATOM      3  HN  UNK N   1      38.084  12.723  12.539  1.00  0.00     0.167 HD
HETATM    4  C   UNK N   1      36.436  13.959  13.060  0.00  0.00     0.154 A 
HETATM    5  C   UNK N   1      35.871  14.524  11.079  0.00  0.00     0.107 A 
HETATM    6  C   UNK N   1      36.966  13.683  11.008  0.00  0.00     0.107 A 
HETATM    7  H   UNK N   1      34.816  15.246  12.739  0.00  0.00     0.167 HD
ENDROOT
BRANCH   4   8
HETATM    8  S   UNK N   1      36.496  13.850  14.846  0.00  0.00    -0.021 SA
BRANCH   8   9
HETATM    9  S   UNK N   1      36.185  11.740  14.938  0.00  0.00    -0.085 SA
BRANCH   9  10
HETATM   10  C   UNK N   1      35.239  11.906  16.479  0.00  0.00     0.054 C 
HETATM   11  C   UNK N   1      35.803  10.974  17.537  0.00  0.00     0.022 C 
BRANCH  10  12
HETATM   12  C   UNK N   1      35.301  13.352  16.942  0.00  0.00     0.011 C 
HETATM   13  C   UNK N   1      35.151  13.442  18.449  0.00  0.00     0.006 C 
ENDBRANCH  10  12
ENDBRANCH   9  10
ENDBRANCH   8   9
ENDBRANCH   4   8
TORSDOF 4
ENDMDL
MODEL 6
REMARK VINA RESULT:      -3.8     11.423     12.435
REMARK  4 active torsions:
REMARK  status: ('A' for Active; 'I' for Inactive)
REMARK    1  A    between atoms: S_1  and  S_2 
REMARK    2  A    between atoms: S_1  and  C_6 
REMARK    3  A    between atoms: S_2  and  C_10 
REMARK    4  A    between atoms: C_6  and  C_7 
ROOT
HETATM    1  N   UNK N   1      23.486  13.147  10.147  0.00  0.00    -0.345 N 
HETATM    2  N   UNK N   1      22.152  12.003  11.531  0.00  0.00    -0.345 N 
ATOM      3  HN  UNK N   1      21.312  11.655  11.992  1.00  0.00     0.167 HD
HETATM    4  C   UNK N   1      22.222  12.896  10.528  0.00  0.00     0.154 A 
HETATM    5  C   UNK N   1      24.252  12.372  10.937  0.00  0.00     0.107 A 
HETATM    6  C   UNK N   1      23.427  11.666  11.794  0.00  0.00     0.107 A 
HETATM    7  H   UNK N   1      23.787  13.765   9.443  0.00  0.00     0.167 HD
ENDROOT
BRANCH   4   8
HETATM    8  S   UNK N   1      20.777  13.691   9.829  0.00  0.00    -0.021 SA
BRANCH   8   9
HETATM    9  S   UNK N   1      21.419  13.544   7.799  0.00  0.00    -0.085 SA
BRANCH   9  10
HETATM   10  C   UNK N   1      21.067  15.303   7.518  0.00  0.00     0.054 C 
HETATM   11  C   UNK N   1      20.049  15.457   6.402  0.00  0.00     0.022 C 
BRANCH  10  12
HETATM   12  C   UNK N   1      20.553  15.916   8.810  0.00  0.00     0.011 C 
HETATM   13  C   UNK N   1      19.852  17.233   8.540  0.00  0.00     0.006 C 
ENDBRANCH  10  12
ENDBRANCH   9  10
ENDBRANCH   8   9
ENDBRANCH   4   8
TORSDOF 4
ENDMDL
MODEL 7
REMARK VINA RESULT:      -3.7     12.453     13.651
REMARK  4 active torsions:
REMARK  status: ('A' for Active; 'I' for Inactive)
REMARK    1  A    between atoms: S_1  and  S_2 
REMARK    2  A    between atoms: S_1  and  C_6 
REMARK    3  A    between atoms: S_2  and  C_10 
REMARK    4  A    between atoms: C_6  and  C_7 
ROOT
HETATM    1  N   UNK N   1      44.280  24.557   1.399  0.00  0.00    -0.345 N 
HETATM    2  N   UNK N   1      45.942  24.262   2.865  0.00  0.00    -0.345 N 
ATOM      3  HN  UNK N   1      46.478  23.911   3.659  1.00  0.00     0.167 HD
HETATM    4  C   UNK N   1      44.704  23.897   2.490  0.00  0.00     0.154 A 
HETATM    5  C   UNK N   1      45.297  25.370   1.061  0.00  0.00     0.107 A 
HETATM    6  C   UNK N   1      46.324  25.190   1.969  0.00  0.00     0.107 A 
HETATM    7  H   UNK N   1      43.411  24.466   0.945  0.00  0.00     0.167 HD
ENDROOT
BRANCH   4   8
HETATM    8  S   UNK N   1      43.726  22.699   3.393  0.00  0.00    -0.021 SA
BRANCH   8   9
HETATM    9  S   UNK N   1      42.876  21.778   1.665  0.00  0.00    -0.085 SA
BRANCH   9  10
HETATM   10  C   UNK N   1      41.252  22.505   2.027  0.00  0.00     0.054 C 
HETATM   11  C   UNK N   1      40.880  23.507   0.949  0.00  0.00     0.022 C 
BRANCH  10  12
HETATM   12  C   UNK N   1      40.221  21.392   2.113  0.00  0.00     0.011 C 
HETATM   13  C   UNK N   1      40.704  20.280   3.025  0.00  0.00     0.006 C 
ENDBRANCH  10  12
ENDBRANCH   9  10
ENDBRANCH   8   9
ENDBRANCH   4   8
TORSDOF 4
ENDMDL
MODEL 8
REMARK VINA RESULT:      -3.7     11.373     13.283
REMARK  4 active torsions:
REMARK  status: ('A' for Active; 'I' for Inactive)
REMARK    1  A    between atoms: S_1  and  S_2 
REMARK    2  A    between atoms: S_1  and  C_6 
REMARK    3  A    between atoms: S_2  and  C_10 
REMARK    4  A    between atoms: C_6  and  C_7 
ROOT
HETATM    1  N   UNK N   1      21.438  15.498   7.880  0.00  0.00    -0.345 N 
HETATM    2  N   UNK N   1      19.532  15.989   8.941  0.00  0.00    -0.345 N 
ATOM      3  HN  UNK N   1      18.744  15.930   9.587  1.00  0.00     0.167 HD
HETATM    4  C   UNK N   1      20.567  15.138   8.838  0.00  0.00     0.154 A 
HETATM    5  C   UNK N   1      20.937  16.633   7.358  0.00  0.00     0.107 A 
HETATM    6  C   UNK N   1      19.757  16.935   8.012  0.00  0.00     0.107 A 
HETATM    7  H   UNK N   1      22.263  15.031   7.616  0.00  0.00     0.167 HD
ENDROOT
BRANCH   4   8
HETATM    8  S   UNK N   1      20.721  13.663   9.843  0.00  0.00    -0.021 SA
BRANCH   8   9
HETATM    9  S   UNK N   1      21.933  12.589   8.454  0.00  0.00    -0.085 SA
BRANCH   9  10
HETATM   10  C   UNK N   1      23.110  12.144   9.764  0.00  0.00     0.054 C 
HETATM   11  C   UNK N   1      24.410  12.905   9.574  0.00  0.00     0.022 C 
BRANCH  10  12
HETATM   12  C   UNK N   1      22.488  12.460  11.114  0.00  0.00     0.011 C 
HETATM   13  C   UNK N   1      23.285  11.822  12.236  0.00  0.00     0.006 C 
ENDBRANCH  10  12
ENDBRANCH   9  10
ENDBRANCH   8   9
ENDBRANCH   4   8
TORSDOF 4
ENDMDL
MODEL 9
REMARK VINA RESULT:      -3.6      3.408      4.191
REMARK  4 active torsions:
REMARK  status: ('A' for Active; 'I' for Inactive)
REMARK    1  A    between atoms: S_1  and  S_2 
REMARK    2  A    between atoms: S_1  and  C_6 
REMARK    3  A    between atoms: S_2  and  C_10 
REMARK    4  A    between atoms: C_6  and  C_7 
ROOT
HETATM    1  N   UNK N   1      29.831  17.598   7.557  0.00  0.00    -0.345 N 
HETATM    2  N   UNK N   1      30.232  18.324   9.634  0.00  0.00    -0.345 N 
ATOM      3  HN  UNK N   1      30.730  18.592  10.483  1.00  0.00     0.167 HD
HETATM    4  C   UNK N   1      30.764  17.869   8.486  0.00  0.00     0.154 A 
HETATM    5  C   UNK N   1      28.656  17.905   8.137  0.00  0.00     0.107 A 
HETATM    6  C   UNK N   1      28.904  18.351   9.422  0.00  0.00     0.107 A 
HETATM    7  H   UNK N   1      29.976  17.250   6.647  0.00  0.00     0.167 HD
ENDROOT
BRANCH   4   8
HETATM    8  S   UNK N   1      32.521  17.608   8.261  0.00  0.00    -0.021 SA
BRANCH   8   9
HETATM    9  S   UNK N   1      32.332  15.701   7.321  0.00  0.00    -0.085 SA
BRANCH   9  10
HETATM   10  C   UNK N   1      33.698  16.081   6.187  0.00  0.00     0.054 C 
HETATM   11  C   UNK N   1      33.697  15.101   5.026  0.00  0.00     0.022 C 
BRANCH  10  12
HETATM   12  C   UNK N   1      33.547  17.509   5.692  0.00  0.00     0.011 C 
HETATM   13  C   UNK N   1      32.744  17.550   4.406  0.00  0.00     0.006 C 
ENDBRANCH  10  12
ENDBRANCH   9  10
ENDBRANCH   8   9
ENDBRANCH   4   8
TORSDOF 4
ENDMDL
