MODEL 1
REMARK VINA RESULT:      -1.5      0.000      0.000
REMARK  0 active torsions:
REMARK  status: ('A' for Active; 'I' for Inactive)
ROOT
HETATM    1  I   UNK N   1      21.114  13.924   9.405  0.00  0.00     0.000 I 
HETATM    2  I   UNK N   1      22.737  12.161  10.782  0.00  0.00     0.000 I 
ENDROOT
TORSDOF 0
ENDMDL
MODEL 2
REMARK VINA RESULT:      -1.5      0.283      2.773
REMARK  0 active torsions:
REMARK  status: ('A' for Active; 'I' for Inactive)
ROOT
HETATM    1  I   UNK N   1      22.480  12.225  10.638  0.00  0.00     0.000 I 
HETATM    2  I   UNK N   1      20.997  14.146   9.318  0.00  0.00     0.000 I 
ENDROOT
TORSDOF 0
ENDMDL
MODEL 3
REMARK VINA RESULT:      -1.4     13.253     14.032
REMARK  0 active torsions:
REMARK  status: ('A' for Active; 'I' for Inactive)
ROOT
HETATM    1  I   UNK N   1      35.182  12.728  16.383  0.00  0.00     0.000 I 
HETATM    2  I   UNK N   1      34.110  10.879  14.631  0.00  0.00     0.000 I 
ENDROOT
TORSDOF 0
ENDMDL
MODEL 4
REMARK VINA RESULT:      -1.4     13.260     14.004
REMARK  0 active torsions:
REMARK  status: ('A' for Active; 'I' for Inactive)
ROOT
HETATM    1  I   UNK N   1      34.116  10.873  14.632  0.00  0.00     0.000 I 
HETATM    2  I   UNK N   1      35.202  12.762  16.330  0.00  0.00     0.000 I 
ENDROOT
TORSDOF 0
ENDMDL
MODEL 5
REMARK VINA RESULT:      -1.4     21.220     21.244
REMARK  0 active torsions:
REMARK  status: ('A' for Active; 'I' for Inactive)
ROOT
HETATM    1  I   UNK N   1      25.329  26.655  -5.868  0.00  0.00     0.000 I 
HETATM    2  I   UNK N   1      26.229  28.355  -3.884  0.00  0.00     0.000 I 
ENDROOT
TORSDOF 0
ENDMDL
MODEL 6
REMARK VINA RESULT:      -1.4     19.369     20.391
REMARK  0 active torsions:
REMARK  status: ('A' for Active; 'I' for Inactive)
ROOT
HETATM    1  I   UNK N   1      26.584  24.888  -4.276  0.00  0.00     0.000 I 
HETATM    2  I   UNK N   1      25.309  26.922  -5.643  0.00  0.00     0.000 I 
ENDROOT
TORSDOF 0
ENDMDL
MODEL 7
REMARK VINA RESULT:      -1.4     19.543     20.368
REMARK  0 active torsions:
REMARK  status: ('A' for Active; 'I' for Inactive)
ROOT
HETATM    1  I   UNK N   1      25.300  26.961  -5.631  0.00  0.00     0.000 I 
HETATM    2  I   UNK N   1      26.112  24.352  -5.223  0.00  0.00     0.000 I 
ENDROOT
TORSDOF 0
ENDMDL
MODEL 8
REMARK VINA RESULT:      -1.3     21.299     22.191
REMARK  0 active torsions:
REMARK  status: ('A' for Active; 'I' for Inactive)
ROOT
HETATM    1  I   UNK N   1      27.638  28.392  -6.046  0.00  0.00     0.000 I 
HETATM    2  I   UNK N   1      25.325  26.943  -5.621  0.00  0.00     0.000 I 
ENDROOT
TORSDOF 0
ENDMDL
MODEL 9
REMARK VINA RESULT:      -1.3     12.874     12.954
REMARK  0 active torsions:
REMARK  status: ('A' for Active; 'I' for Inactive)
ROOT
HETATM    1  I   UNK N   1      33.093  17.157   5.383  0.00  0.00     0.000 I 
HETATM    2  I   UNK N   1      33.928  17.827   7.930  0.00  0.00     0.000 I 
ENDROOT
TORSDOF 0
ENDMDL
