MODEL 1
REMARK VINA RESULT:      -6.8      0.000      0.000
REMARK  15 active torsions:
REMARK  status: ('A' for Active; 'I' for Inactive)
REMARK    1  A    between atoms: C_2  and  O_3 
REMARK    2  A    between atoms: O_3  and  C_4 
REMARK    3  A    between atoms: C_4  and  C_6 
REMARK    4  A    between atoms: C_6  and  N_9 
REMARK    5  A    between atoms: N_9  and  P_10 
REMARK    6  A    between atoms: P_10  and  C_12 
REMARK    7  A    between atoms: P_10  and  N_30 
REMARK    8  A    between atoms: C_15  and  C_17 
REMARK    9  A    between atoms: C_18  and  C_24 
REMARK   10  A    between atoms: C_20  and  N_23 
REMARK   11  A    between atoms: C_24  and  C_26 
REMARK   12  A    between atoms: N_30  and  C_31 
REMARK   13  A    between atoms: C_31  and  C_34 
REMARK   14  A    between atoms: C_34  and  O_36 
REMARK   15  A    between atoms: O_36  and  C_37 
ROOT
HETATM    1  P   UNK N   1      35.035  15.229   9.980  0.00  0.00     0.305 P 
HETATM    2  O   UNK N   1      36.181  16.094  10.557  0.00  0.00    -0.268 OA
ENDROOT
BRANCH   1   3
HETATM    3  N   UNK N   1      35.865  14.147   8.775  0.00  0.00    -0.333 N 
HETATM    4  H   UNK N   1      36.882  14.108   8.707  0.00  0.00     0.164 HD
BRANCH   3   5
HETATM    5  C   UNK N   1      35.008  13.330   7.903  0.00  0.00     0.114 C 
HETATM    6  C   UNK N   1      35.865  12.213   7.335  0.00  0.00     0.049 C 
HETATM    7  C   UNK N   1      34.546  14.171   6.720  0.00  0.00     0.049 C 
BRANCH   5   8
HETATM    8  C   UNK N   1      33.835  12.679   8.634  0.00  0.00     0.286 C 
HETATM    9  O   UNK N   1      32.693  12.995   8.339  0.00  0.00    -0.262 OA
BRANCH   8  10
HETATM   10  O   UNK N   1      34.017  11.767   9.630  0.00  0.00    -0.320 OA
BRANCH  10  11
HETATM   11  C   UNK N   1      33.233  10.646   9.798  0.00  0.00     0.174 C 
HETATM   12  C   UNK N   1      33.609   9.590   8.785  0.00  0.00     0.034 C 
ENDBRANCH  10  11
ENDBRANCH   8  10
ENDBRANCH   5   8
ENDBRANCH   3   5
ENDBRANCH   1   3
BRANCH   1  13
HETATM   13  C   UNK N   1      34.013  16.455   9.100  0.00  0.00     0.154 A 
HETATM   14  C   UNK N   1      34.413  17.654   8.554  0.00  0.00     0.047 A 
HETATM   15  C   UNK N   1      33.271  18.208   8.016  0.00  0.00     0.043 A 
HETATM   16  C   UNK N   1      32.251  17.307   8.276  0.00  0.00     0.104 A 
HETATM   17  O   UNK N   1      32.736  16.272   8.899  0.00  0.00    -0.301 OA
BRANCH  16  18
HETATM   18  C   UNK N   1      30.838  17.415   7.874  0.00  0.00     0.089 A 
HETATM   19  C   UNK N   1      30.212  16.703   6.815  0.00  0.00     0.084 A 
HETATM   20  S   UNK N   1      28.605  17.124   6.885  0.00  0.00    -0.048 SA
HETATM   21  C   UNK N   1      28.714  18.172   8.149  0.00  0.00     0.143 A 
HETATM   22  N   UNK N   1      29.989  18.240   8.594  0.00  0.00    -0.333 N 
ATOM     23  HN  UNK N   1      30.291  18.831   9.369  1.00  0.00     0.168 HD
BRANCH  19  24
HETATM   24  C   UNK N   1      30.840  15.817   5.782  0.00  0.00     0.176 C 
HETATM   25  O   UNK N   1      31.064  14.650   6.054  0.00  0.00    -0.291 OA
BRANCH  24  26
HETATM   26  C   UNK N   1      31.247  16.332   4.416  0.00  0.00     0.015 C 
HETATM   27  C   UNK N   1      30.015  16.485   3.545  0.00  0.00     0.023 C 
HETATM   28  C   UNK N   1      31.964  17.663   4.528  0.00  0.00     0.023 C 
HETATM   29  C   UNK N   1      32.190  15.360   3.718  0.00  0.00     0.023 C 
ENDBRANCH  24  26
ENDBRANCH  19  24
BRANCH  21  30
HETATM   30  N   UNK N   1      27.645  18.902   8.710  0.00  0.00    -0.380 N 
HETATM   31  H   UNK N   1      27.589  19.020   9.685  0.00  0.00     0.158 HD
HETATM   32  H   UNK N   1      26.956  19.293   8.125  0.00  0.00     0.158 HD
ENDBRANCH  21  30
ENDBRANCH  16  18
ENDBRANCH   1  13
BRANCH   1  33
HETATM   33  N   UNK N   1      34.517  14.257  11.424  0.00  0.00    -0.333 N 
HETATM   34  H   UNK N   1      33.529  14.071  11.591  0.00  0.00     0.164 HD
BRANCH  33  35
HETATM   35  C   UNK N   1      35.539  13.738  12.353  0.00  0.00     0.114 C 
HETATM   36  C   UNK N   1      36.599  13.034  11.525  0.00  0.00     0.049 C 
HETATM   37  C   UNK N   1      36.213  14.783  13.224  0.00  0.00     0.049 C 
BRANCH  35  38
HETATM   38  C   UNK N   1      34.925  12.727  13.278  0.00  0.00     0.286 C 
HETATM   39  O   UNK N   1      34.778  11.565  12.921  0.00  0.00    -0.262 OA
BRANCH  38  40
HETATM   40  O   UNK N   1      34.555  13.116  14.523  0.00  0.00    -0.320 OA
BRANCH  40  41
HETATM   41  C   UNK N   1      34.683  12.298  15.617  0.00  0.00     0.174 C 
HETATM   42  C   UNK N   1      34.926  13.162  16.836  0.00  0.00     0.034 C 
ENDBRANCH  40  41
ENDBRANCH  38  40
ENDBRANCH  35  38
ENDBRANCH  33  35
ENDBRANCH   1  33
TORSDOF 15
ENDMDL
MODEL 2
REMARK VINA RESULT:      -6.6      1.464      2.506
REMARK  15 active torsions:
REMARK  status: ('A' for Active; 'I' for Inactive)
REMARK    1  A    between atoms: C_2  and  O_3 
REMARK    2  A    between atoms: O_3  and  C_4 
REMARK    3  A    between atoms: C_4  and  C_6 
REMARK    4  A    between atoms: C_6  and  N_9 
REMARK    5  A    between atoms: N_9  and  P_10 
REMARK    6  A    between atoms: P_10  and  C_12 
REMARK    7  A    between atoms: P_10  and  N_30 
REMARK    8  A    between atoms: C_15  and  C_17 
REMARK    9  A    between atoms: C_18  and  C_24 
REMARK   10  A    between atoms: C_20  and  N_23 
REMARK   11  A    between atoms: C_24  and  C_26 
REMARK   12  A    between atoms: N_30  and  C_31 
REMARK   13  A    between atoms: C_31  and  C_34 
REMARK   14  A    between atoms: C_34  and  O_36 
REMARK   15  A    between atoms: O_36  and  C_37 
ROOT
HETATM    1  P   UNK N   1      35.186  15.477  10.146  0.00  0.00     0.305 P 
HETATM    2  O   UNK N   1      36.117  16.454  10.905  0.00  0.00    -0.268 OA
ENDROOT
BRANCH   1   3
HETATM    3  N   UNK N   1      36.311  14.565   9.045  0.00  0.00    -0.333 N 
HETATM    4  H   UNK N   1      37.324  14.637   9.140  0.00  0.00     0.164 HD
BRANCH   3   5
HETATM    5  C   UNK N   1      35.698  13.716   8.011  0.00  0.00     0.114 C 
HETATM    6  C   UNK N   1      34.307  13.343   8.491  0.00  0.00     0.049 C 
HETATM    7  C   UNK N   1      36.483  12.417   7.894  0.00  0.00     0.049 C 
BRANCH   5   8
HETATM    8  C   UNK N   1      35.542  14.414   6.661  0.00  0.00     0.286 C 
HETATM    9  O   UNK N   1      34.440  14.469   6.137  0.00  0.00    -0.262 OA
BRANCH   8  10
HETATM   10  O   UNK N   1      36.602  14.961   6.000  0.00  0.00    -0.320 OA
BRANCH  10  11
HETATM   11  C   UNK N   1      37.400  14.265   5.118  0.00  0.00     0.174 C 
HETATM   12  C   UNK N   1      38.854  14.604   5.350  0.00  0.00     0.034 C 
ENDBRANCH  10  11
ENDBRANCH   8  10
ENDBRANCH   5   8
ENDBRANCH   3   5
ENDBRANCH   1   3
BRANCH   1  13
HETATM   13  C   UNK N   1      34.143  16.602   9.162  0.00  0.00     0.154 A 
HETATM   14  C   UNK N   1      34.531  17.730   8.474  0.00  0.00     0.047 A 
HETATM   15  C   UNK N   1      33.376  18.225   7.907  0.00  0.00     0.043 A 
HETATM   16  C   UNK N   1      32.361  17.365   8.295  0.00  0.00     0.104 A 
HETATM   17  O   UNK N   1      32.861  16.404   9.017  0.00  0.00    -0.301 OA
BRANCH  16  18
HETATM   18  C   UNK N   1      30.939  17.435   7.922  0.00  0.00     0.089 A 
HETATM   19  C   UNK N   1      30.307  16.691   6.888  0.00  0.00     0.084 A 
HETATM   20  S   UNK N   1      28.692  17.078   6.986  0.00  0.00    -0.048 SA
HETATM   21  C   UNK N   1      28.804  18.150   8.230  0.00  0.00     0.143 A 
HETATM   22  N   UNK N   1      30.086  18.254   8.646  0.00  0.00    -0.333 N 
ATOM     23  HN  UNK N   1      30.391  18.865   9.404  1.00  0.00     0.168 HD
BRANCH  19  24
HETATM   24  C   UNK N   1      30.931  15.801   5.858  0.00  0.00     0.176 C 
HETATM   25  O   UNK N   1      31.229  14.658   6.158  0.00  0.00    -0.291 OA
BRANCH  24  26
HETATM   26  C   UNK N   1      31.248  16.286   4.457  0.00  0.00     0.015 C 
HETATM   27  C   UNK N   1      32.059  17.565   4.535  0.00  0.00     0.023 C 
HETATM   28  C   UNK N   1      32.020  15.237   3.680  0.00  0.00     0.023 C 
HETATM   29  C   UNK N   1      29.975  16.591   3.677  0.00  0.00     0.023 C 
ENDBRANCH  24  26
ENDBRANCH  19  24
BRANCH  21  30
HETATM   30  N   UNK N   1      27.731  18.865   8.801  0.00  0.00    -0.380 N 
HETATM   31  H   UNK N   1      26.977  19.153   8.239  0.00  0.00     0.158 HD
HETATM   32  H   UNK N   1      27.739  19.077   9.763  0.00  0.00     0.158 HD
ENDBRANCH  21  30
ENDBRANCH  16  18
ENDBRANCH   1  13
BRANCH   1  33
HETATM   33  N   UNK N   1      34.606  14.384  11.475  0.00  0.00    -0.333 N 
HETATM   34  H   UNK N   1      33.620  14.367  11.733  0.00  0.00     0.164 HD
BRANCH  33  35
HETATM   35  C   UNK N   1      35.573  13.519  12.177  0.00  0.00     0.114 C 
HETATM   36  C   UNK N   1      34.999  12.113  12.204  0.00  0.00     0.049 C 
HETATM   37  C   UNK N   1      36.962  13.469  11.565  0.00  0.00     0.049 C 
BRANCH  35  38
HETATM   38  C   UNK N   1      35.738  13.980  13.597  0.00  0.00     0.286 C 
HETATM   39  O   UNK N   1      36.511  14.890  13.870  0.00  0.00    -0.262 OA
BRANCH  38  40
HETATM   40  O   UNK N   1      35.000  13.388  14.569  0.00  0.00    -0.320 OA
BRANCH  40  41
HETATM   41  C   UNK N   1      35.479  13.197  15.840  0.00  0.00     0.174 C 
HETATM   42  C   UNK N   1      35.623  11.710  16.079  0.00  0.00     0.034 C 
ENDBRANCH  40  41
ENDBRANCH  38  40
ENDBRANCH  35  38
ENDBRANCH  33  35
ENDBRANCH   1  33
TORSDOF 15
ENDMDL
MODEL 3
REMARK VINA RESULT:      -6.4      4.575      9.707
REMARK  15 active torsions:
REMARK  status: ('A' for Active; 'I' for Inactive)
REMARK    1  A    between atoms: C_2  and  O_3 
REMARK    2  A    between atoms: O_3  and  C_4 
REMARK    3  A    between atoms: C_4  and  C_6 
REMARK    4  A    between atoms: C_6  and  N_9 
REMARK    5  A    between atoms: N_9  and  P_10 
REMARK    6  A    between atoms: P_10  and  C_12 
REMARK    7  A    between atoms: P_10  and  N_30 
REMARK    8  A    between atoms: C_15  and  C_17 
REMARK    9  A    between atoms: C_18  and  C_24 
REMARK   10  A    between atoms: C_20  and  N_23 
REMARK   11  A    between atoms: C_24  and  C_26 
REMARK   12  A    between atoms: N_30  and  C_31 
REMARK   13  A    between atoms: C_31  and  C_34 
REMARK   14  A    between atoms: C_34  and  O_36 
REMARK   15  A    between atoms: O_36  and  C_37 
ROOT
HETATM    1  P   UNK N   1      27.628  17.492   6.107  0.00  0.00     0.305 P 
HETATM    2  O   UNK N   1      26.812  16.313   6.691  0.00  0.00    -0.268 OA
ENDROOT
BRANCH   1   3
HETATM    3  N   UNK N   1      28.232  16.859   4.511  0.00  0.00    -0.333 N 
HETATM    4  H   UNK N   1      29.068  17.240   4.070  0.00  0.00     0.164 HD
BRANCH   3   5
HETATM    5  C   UNK N   1      27.462  15.774   3.884  0.00  0.00     0.114 C 
HETATM    6  C   UNK N   1      27.509  14.579   4.820  0.00  0.00     0.049 C 
HETATM    7  C   UNK N   1      28.151  15.347   2.595  0.00  0.00     0.049 C 
BRANCH   5   8
HETATM    8  C   UNK N   1      25.991  16.119   3.659  0.00  0.00     0.286 C 
HETATM    9  O   UNK N   1      25.697  17.177   3.124  0.00  0.00    -0.262 OA
BRANCH   8  10
HETATM   10  O   UNK N   1      24.982  15.294   4.058  0.00  0.00    -0.320 OA
BRANCH  10  11
HETATM   11  C   UNK N   1      24.042  14.760   3.203  0.00  0.00     0.174 C 
HETATM   12  C   UNK N   1      22.677  15.331   3.506  0.00  0.00     0.034 C 
ENDBRANCH  10  11
ENDBRANCH   8  10
ENDBRANCH   5   8
ENDBRANCH   3   5
ENDBRANCH   1   3
BRANCH   1  13
HETATM   13  C   UNK N   1      29.020  17.633   7.276  0.00  0.00     0.154 A 
HETATM   14  C   UNK N   1      29.200  18.573   8.266  0.00  0.00     0.047 A 
HETATM   15  C   UNK N   1      30.403  18.251   8.858  0.00  0.00     0.043 A 
HETATM   16  C   UNK N   1      30.875  17.137   8.182  0.00  0.00     0.104 A 
HETATM   17  O   UNK N   1      30.015  16.788   7.269  0.00  0.00    -0.301 OA
BRANCH  16  18
HETATM   18  C   UNK N   1      32.109  16.381   8.455  0.00  0.00     0.089 A 
HETATM   19  C   UNK N   1      33.251  16.310   7.611  0.00  0.00     0.084 A 
HETATM   20  S   UNK N   1      34.374  15.422   8.457  0.00  0.00    -0.048 SA
HETATM   21  C   UNK N   1      33.450  15.118   9.784  0.00  0.00     0.143 A 
HETATM   22  N   UNK N   1      32.235  15.696   9.653  0.00  0.00    -0.333 N 
ATOM     23  HN  UNK N   1      31.496  15.634  10.354  1.00  0.00     0.168 HD
BRANCH  19  24
HETATM   24  C   UNK N   1      33.421  16.836   6.218  0.00  0.00     0.176 C 
HETATM   25  O   UNK N   1      34.083  17.843   6.038  0.00  0.00    -0.291 OA
BRANCH  24  26
HETATM   26  C   UNK N   1      32.762  16.181   5.021  0.00  0.00     0.015 C 
HETATM   27  C   UNK N   1      32.053  14.915   5.463  0.00  0.00     0.023 C 
HETATM   28  C   UNK N   1      31.769  17.120   4.365  0.00  0.00     0.023 C 
HETATM   29  C   UNK N   1      33.791  15.792   3.968  0.00  0.00     0.023 C 
ENDBRANCH  24  26
ENDBRANCH  19  24
BRANCH  21  30
HETATM   30  N   UNK N   1      33.847  14.368  10.911  0.00  0.00    -0.380 N 
HETATM   31  H   UNK N   1      33.294  13.615  11.221  0.00  0.00     0.158 HD
HETATM   32  H   UNK N   1      34.677  14.599  11.388  0.00  0.00     0.158 HD
ENDBRANCH  21  30
ENDBRANCH  16  18
ENDBRANCH   1  13
BRANCH   1  33
HETATM   33  N   UNK N   1      26.348  18.748   5.826  0.00  0.00    -0.333 N 
HETATM   34  H   UNK N   1      25.371  18.543   6.038  0.00  0.00     0.164 HD
BRANCH  33  35
HETATM   35  C   UNK N   1      26.731  20.067   5.288  0.00  0.00     0.114 C 
HETATM   36  C   UNK N   1      26.431  21.104   6.356  0.00  0.00     0.049 C 
HETATM   37  C   UNK N   1      28.185  20.200   4.871  0.00  0.00     0.049 C 
BRANCH  35  38
HETATM   38  C   UNK N   1      25.898  20.391   4.081  0.00  0.00     0.286 C 
HETATM   39  O   UNK N   1      26.426  20.566   2.989  0.00  0.00    -0.262 OA
BRANCH  38  40
HETATM   40  O   UNK N   1      24.551  20.465   4.214  0.00  0.00    -0.320 OA
BRANCH  40  41
HETATM   41  C   UNK N   1      23.695  20.200   3.175  0.00  0.00     0.174 C 
HETATM   42  C   UNK N   1      22.670  19.191   3.645  0.00  0.00     0.034 C 
ENDBRANCH  40  41
ENDBRANCH  38  40
ENDBRANCH  35  38
ENDBRANCH  33  35
ENDBRANCH   1  33
TORSDOF 15
ENDMDL
MODEL 4
REMARK VINA RESULT:      -6.4      1.453      1.974
REMARK  15 active torsions:
REMARK  status: ('A' for Active; 'I' for Inactive)
REMARK    1  A    between atoms: C_2  and  O_3 
REMARK    2  A    between atoms: O_3  and  C_4 
REMARK    3  A    between atoms: C_4  and  C_6 
REMARK    4  A    between atoms: C_6  and  N_9 
REMARK    5  A    between atoms: N_9  and  P_10 
REMARK    6  A    between atoms: P_10  and  C_12 
REMARK    7  A    between atoms: P_10  and  N_30 
REMARK    8  A    between atoms: C_15  and  C_17 
REMARK    9  A    between atoms: C_18  and  C_24 
REMARK   10  A    between atoms: C_20  and  N_23 
REMARK   11  A    between atoms: C_24  and  C_26 
REMARK   12  A    between atoms: N_30  and  C_31 
REMARK   13  A    between atoms: C_31  and  C_34 
REMARK   14  A    between atoms: C_34  and  O_36 
REMARK   15  A    between atoms: O_36  and  C_37 
ROOT
HETATM    1  P   UNK N   1      35.245  15.481  10.166  0.00  0.00     0.305 P 
HETATM    2  O   UNK N   1      36.273  16.404  10.862  0.00  0.00    -0.268 OA
ENDROOT
BRANCH   1   3
HETATM    3  N   UNK N   1      36.252  14.480   9.028  0.00  0.00    -0.333 N 
HETATM    4  H   UNK N   1      37.271  14.509   9.054  0.00  0.00     0.164 HD
BRANCH   3   5
HETATM    5  C   UNK N   1      35.534  13.626   8.069  0.00  0.00     0.114 C 
HETATM    6  C   UNK N   1      35.241  14.467   6.839  0.00  0.00     0.049 C 
HETATM    7  C   UNK N   1      34.187  13.229   8.658  0.00  0.00     0.049 C 
BRANCH   5   8
HETATM    8  C   UNK N   1      36.338  12.411   7.610  0.00  0.00     0.286 C 
HETATM    9  O   UNK N   1      37.151  12.535   6.707  0.00  0.00    -0.262 OA
BRANCH   8  10
HETATM   10  O   UNK N   1      36.165  11.176   8.161  0.00  0.00    -0.320 OA
BRANCH  10  11
HETATM   11  C   UNK N   1      36.958  10.665   9.165  0.00  0.00     0.174 C 
HETATM   12  C   UNK N   1      36.317   9.434   9.761  0.00  0.00     0.034 C 
ENDBRANCH  10  11
ENDBRANCH   8  10
ENDBRANCH   5   8
ENDBRANCH   3   5
ENDBRANCH   1   3
BRANCH   1  13
HETATM   13  C   UNK N   1      34.230  16.658   9.214  0.00  0.00     0.154 A 
HETATM   14  C   UNK N   1      34.642  17.809   8.581  0.00  0.00     0.047 A 
HETATM   15  C   UNK N   1      33.502  18.341   8.018  0.00  0.00     0.043 A 
HETATM   16  C   UNK N   1      32.471  17.477   8.351  0.00  0.00     0.104 A 
HETATM   17  O   UNK N   1      32.949  16.481   9.040  0.00  0.00    -0.301 OA
BRANCH  16  18
HETATM   18  C   UNK N   1      31.056  17.578   7.958  0.00  0.00     0.089 A 
HETATM   19  C   UNK N   1      30.510  17.224   6.695  0.00  0.00     0.084 A 
HETATM   20  S   UNK N   1      28.867  17.433   6.845  0.00  0.00    -0.048 SA
HETATM   21  C   UNK N   1      28.863  17.977   8.398  0.00  0.00     0.143 A 
HETATM   22  N   UNK N   1      30.123  18.011   8.888  0.00  0.00    -0.333 N 
ATOM     23  HN  UNK N   1      30.360  18.320   9.830  1.00  0.00     0.168 HD
BRANCH  19  24
HETATM   24  C   UNK N   1      31.229  16.822   5.443  0.00  0.00     0.176 C 
HETATM   25  O   UNK N   1      31.654  17.685   4.695  0.00  0.00    -0.291 OA
BRANCH  24  26
HETATM   26  C   UNK N   1      31.413  15.370   5.049  0.00  0.00     0.015 C 
HETATM   27  C   UNK N   1      32.650  15.233   4.183  0.00  0.00     0.023 C 
HETATM   28  C   UNK N   1      31.545  14.486   6.274  0.00  0.00     0.023 C 
HETATM   29  C   UNK N   1      30.224  14.862   4.242  0.00  0.00     0.023 C 
ENDBRANCH  24  26
ENDBRANCH  19  24
BRANCH  21  30
HETATM   30  N   UNK N   1      27.722  18.355   9.137  0.00  0.00    -0.380 N 
HETATM   31  H   UNK N   1      27.395  17.780   9.865  0.00  0.00     0.158 HD
HETATM   32  H   UNK N   1      27.254  19.194   8.922  0.00  0.00     0.158 HD
ENDBRANCH  21  30
ENDBRANCH  16  18
ENDBRANCH   1  13
BRANCH   1  33
HETATM   33  N   UNK N   1      34.661  14.447  11.540  0.00  0.00    -0.333 N 
HETATM   34  H   UNK N   1      33.687  14.490  11.838  0.00  0.00     0.164 HD
BRANCH  33  35
HETATM   35  C   UNK N   1      35.607  13.543  12.221  0.00  0.00     0.114 C 
HETATM   36  C   UNK N   1      35.010  12.147  12.194  0.00  0.00     0.049 C 
HETATM   37  C   UNK N   1      37.000  13.491  11.621  0.00  0.00     0.049 C 
BRANCH  35  38
HETATM   38  C   UNK N   1      35.765  13.953  13.658  0.00  0.00     0.286 C 
HETATM   39  O   UNK N   1      36.607  14.782  13.979  0.00  0.00    -0.262 OA
BRANCH  38  40
HETATM   40  O   UNK N   1      34.946  13.405  14.590  0.00  0.00    -0.320 OA
BRANCH  40  41
HETATM   41  C   UNK N   1      35.367  13.132  15.866  0.00  0.00     0.174 C 
HETATM   42  C   UNK N   1      35.232  11.643  16.106  0.00  0.00     0.034 C 
ENDBRANCH  40  41
ENDBRANCH  38  40
ENDBRANCH  35  38
ENDBRANCH  33  35
ENDBRANCH   1  33
TORSDOF 15
ENDMDL
MODEL 5
REMARK VINA RESULT:      -6.2      1.969      4.800
REMARK  15 active torsions:
REMARK  status: ('A' for Active; 'I' for Inactive)
REMARK    1  A    between atoms: C_2  and  O_3 
REMARK    2  A    between atoms: O_3  and  C_4 
REMARK    3  A    between atoms: C_4  and  C_6 
REMARK    4  A    between atoms: C_6  and  N_9 
REMARK    5  A    between atoms: N_9  and  P_10 
REMARK    6  A    between atoms: P_10  and  C_12 
REMARK    7  A    between atoms: P_10  and  N_30 
REMARK    8  A    between atoms: C_15  and  C_17 
REMARK    9  A    between atoms: C_18  and  C_24 
REMARK   10  A    between atoms: C_20  and  N_23 
REMARK   11  A    between atoms: C_24  and  C_26 
REMARK   12  A    between atoms: N_30  and  C_31 
REMARK   13  A    between atoms: C_31  and  C_34 
REMARK   14  A    between atoms: C_34  and  O_36 
REMARK   15  A    between atoms: O_36  and  C_37 
ROOT
HETATM    1  P   UNK N   1      34.972  13.410  10.213  0.00  0.00     0.305 P 
HETATM    2  O   UNK N   1      33.999  12.385   9.583  0.00  0.00    -0.268 OA
ENDROOT
BRANCH   1   3
HETATM    3  N   UNK N   1      34.711  13.219  12.004  0.00  0.00    -0.333 N 
HETATM    4  H   UNK N   1      33.818  12.900  12.381  0.00  0.00     0.164 HD
BRANCH   3   5
HETATM    5  C   UNK N   1      35.843  13.542  12.886  0.00  0.00     0.114 C 
HETATM    6  C   UNK N   1      36.245  14.979  12.606  0.00  0.00     0.049 C 
HETATM    7  C   UNK N   1      37.037  12.673  12.513  0.00  0.00     0.049 C 
BRANCH   5   8
HETATM    8  C   UNK N   1      35.507  13.444  14.373  0.00  0.00     0.286 C 
HETATM    9  O   UNK N   1      36.296  13.879  15.198  0.00  0.00    -0.262 OA
BRANCH   8  10
HETATM   10  O   UNK N   1      34.358  12.862  14.821  0.00  0.00    -0.320 OA
BRANCH  10  11
HETATM   11  C   UNK N   1      34.295  11.587  15.340  0.00  0.00     0.174 C 
HETATM   12  C   UNK N   1      33.728  10.634  14.313  0.00  0.00     0.034 C 
ENDBRANCH  10  11
ENDBRANCH   8  10
ENDBRANCH   5   8
ENDBRANCH   3   5
ENDBRANCH   1   3
BRANCH   1  13
HETATM   13  C   UNK N   1      34.286  15.005   9.661  0.00  0.00     0.154 A 
HETATM   14  C   UNK N   1      34.922  16.224   9.602  0.00  0.00     0.047 A 
HETATM   15  C   UNK N   1      33.975  17.107   9.128  0.00  0.00     0.043 A 
HETATM   16  C   UNK N   1      32.822  16.362   8.936  0.00  0.00     0.104 A 
HETATM   17  O   UNK N   1      33.055  15.118   9.241  0.00  0.00    -0.301 OA
BRANCH  16  18
HETATM   18  C   UNK N   1      31.531  16.833   8.408  0.00  0.00     0.089 A 
HETATM   19  C   UNK N   1      31.013  16.574   7.109  0.00  0.00     0.084 A 
HETATM   20  S   UNK N   1      29.490  17.242   7.096  0.00  0.00    -0.048 SA
HETATM   21  C   UNK N   1      29.513  17.854   8.623  0.00  0.00     0.143 A 
HETATM   22  N   UNK N   1      30.685  17.562   9.229  0.00  0.00    -0.333 N 
ATOM     23  HN  UNK N   1      30.922  17.846  10.180  1.00  0.00     0.168 HD
BRANCH  19  24
HETATM   24  C   UNK N   1      31.689  15.915   5.945  0.00  0.00     0.176 C 
HETATM   25  O   UNK N   1      31.629  14.704   5.827  0.00  0.00    -0.291 OA
BRANCH  24  26
HETATM   26  C   UNK N   1      32.487  16.702   4.924  0.00  0.00     0.015 C 
HETATM   27  C   UNK N   1      31.574  17.682   4.214  0.00  0.00     0.023 C 
HETATM   28  C   UNK N   1      33.627  17.451   5.585  0.00  0.00     0.023 C 
HETATM   29  C   UNK N   1      33.091  15.783   3.870  0.00  0.00     0.023 C 
ENDBRANCH  24  26
ENDBRANCH  19  24
BRANCH  21  30
HETATM   30  N   UNK N   1      28.469  18.578   9.237  0.00  0.00    -0.380 N 
HETATM   31  H   UNK N   1      27.538  18.435   8.953  0.00  0.00     0.158 HD
HETATM   32  H   UNK N   1      28.674  19.226   9.951  0.00  0.00     0.158 HD
ENDBRANCH  21  30
ENDBRANCH  16  18
ENDBRANCH   1  13
BRANCH   1  33
HETATM   33  N   UNK N   1      36.595  12.737   9.754  0.00  0.00    -0.333 N 
HETATM   34  H   UNK N   1      37.178  12.280  10.454  0.00  0.00     0.164 HD
BRANCH  33  35
HETATM   35  C   UNK N   1      37.061  12.856   8.360  0.00  0.00     0.114 C 
HETATM   36  C   UNK N   1      37.264  11.451   7.821  0.00  0.00     0.049 C 
HETATM   37  C   UNK N   1      36.130  13.609   7.426  0.00  0.00     0.049 C 
BRANCH  35  38
HETATM   38  C   UNK N   1      38.386  13.563   8.320  0.00  0.00     0.286 C 
HETATM   39  O   UNK N   1      38.739  14.276   9.252  0.00  0.00    -0.262 OA
BRANCH  38  40
HETATM   40  O   UNK N   1      39.194  13.384   7.246  0.00  0.00    -0.320 OA
BRANCH  40  41
HETATM   41  C   UNK N   1      39.940  14.403   6.711  0.00  0.00     0.174 C 
HETATM   42  C   UNK N   1      39.354  14.768   5.364  0.00  0.00     0.034 C 
ENDBRANCH  40  41
ENDBRANCH  38  40
ENDBRANCH  35  38
ENDBRANCH  33  35
ENDBRANCH   1  33
TORSDOF 15
ENDMDL
MODEL 6
REMARK VINA RESULT:      -6.2      3.174      8.177
REMARK  15 active torsions:
REMARK  status: ('A' for Active; 'I' for Inactive)
REMARK    1  A    between atoms: C_2  and  O_3 
REMARK    2  A    between atoms: O_3  and  C_4 
REMARK    3  A    between atoms: C_4  and  C_6 
REMARK    4  A    between atoms: C_6  and  N_9 
REMARK    5  A    between atoms: N_9  and  P_10 
REMARK    6  A    between atoms: P_10  and  C_12 
REMARK    7  A    between atoms: P_10  and  N_30 
REMARK    8  A    between atoms: C_15  and  C_17 
REMARK    9  A    between atoms: C_18  and  C_24 
REMARK   10  A    between atoms: C_20  and  N_23 
REMARK   11  A    between atoms: C_24  and  C_26 
REMARK   12  A    between atoms: N_30  and  C_31 
REMARK   13  A    between atoms: C_31  and  C_34 
REMARK   14  A    between atoms: C_34  and  O_36 
REMARK   15  A    between atoms: O_36  and  C_37 
ROOT
HETATM    1  P   UNK N   1      33.132  14.348   8.741  0.00  0.00     0.305 P 
HETATM    2  O   UNK N   1      32.020  14.794   9.722  0.00  0.00    -0.268 OA
ENDROOT
BRANCH   1   3
HETATM    3  N   UNK N   1      32.751  12.599   8.412  0.00  0.00    -0.333 N 
HETATM    4  H   UNK N   1      31.856  12.190   8.679  0.00  0.00     0.164 HD
BRANCH   3   5
HETATM    5  C   UNK N   1      33.789  11.800   7.743  0.00  0.00     0.114 C 
HETATM    6  C   UNK N   1      33.112  10.581   7.143  0.00  0.00     0.049 C 
HETATM    7  C   UNK N   1      34.776  11.285   8.782  0.00  0.00     0.049 C 
BRANCH   5   8
HETATM    8  C   UNK N   1      34.491  12.539   6.605  0.00  0.00     0.286 C 
HETATM    9  O   UNK N   1      35.703  12.686   6.641  0.00  0.00    -0.262 OA
BRANCH   8  10
HETATM   10  O   UNK N   1      33.806  13.067   5.551  0.00  0.00    -0.320 OA
BRANCH  10  11
HETATM   11  C   UNK N   1      34.085  12.779   4.232  0.00  0.00     0.174 C 
HETATM   12  C   UNK N   1      32.807  12.490   3.480  0.00  0.00     0.034 C 
ENDBRANCH  10  11
ENDBRANCH   8  10
ENDBRANCH   5   8
ENDBRANCH   3   5
ENDBRANCH   1   3
BRANCH   1  13
HETATM   13  C   UNK N   1      34.637  14.466   9.763  0.00  0.00     0.154 A 
HETATM   14  C   UNK N   1      35.871  14.955   9.397  0.00  0.00     0.047 A 
HETATM   15  C   UNK N   1      36.663  14.817  10.516  0.00  0.00     0.043 A 
HETATM   16  C   UNK N   1      35.855  14.248  11.488  0.00  0.00     0.104 A 
HETATM   17  O   UNK N   1      34.657  14.078  11.009  0.00  0.00    -0.301 OA
BRANCH  16  18
HETATM   18  C   UNK N   1      36.218  13.929  12.879  0.00  0.00     0.089 A 
HETATM   19  C   UNK N   1      36.300  12.629  13.446  0.00  0.00     0.084 A 
HETATM   20  S   UNK N   1      36.855  12.854  14.998  0.00  0.00    -0.048 SA
HETATM   21  C   UNK N   1      36.942  14.497  14.956  0.00  0.00     0.143 A 
HETATM   22  N   UNK N   1      36.563  14.957  13.743  0.00  0.00    -0.333 N 
ATOM     23  HN  UNK N   1      36.535  15.945  13.492  1.00  0.00     0.168 HD
BRANCH  19  24
HETATM   24  C   UNK N   1      35.904  11.316  12.842  0.00  0.00     0.176 C 
HETATM   25  O   UNK N   1      36.513  10.898  11.872  0.00  0.00    -0.291 OA
BRANCH  24  26
HETATM   26  C   UNK N   1      34.739  10.503  13.369  0.00  0.00     0.015 C 
HETATM   27  C   UNK N   1      33.834  10.109  12.218  0.00  0.00     0.023 C 
HETATM   28  C   UNK N   1      35.225   9.258  14.086  0.00  0.00     0.023 C 
HETATM   29  C   UNK N   1      33.907  11.307  14.359  0.00  0.00     0.023 C 
ENDBRANCH  24  26
ENDBRANCH  19  24
BRANCH  21  30
HETATM   30  N   UNK N   1      37.353  15.328  16.019  0.00  0.00    -0.380 N 
HETATM   31  H   UNK N   1      36.784  15.425  16.816  0.00  0.00     0.158 HD
HETATM   32  H   UNK N   1      38.209  15.812  15.962  0.00  0.00     0.158 HD
ENDBRANCH  21  30
ENDBRANCH  16  18
ENDBRANCH   1  13
BRANCH   1  33
HETATM   33  N   UNK N   1      32.770  15.344   7.266  0.00  0.00    -0.333 N 
HETATM   34  H   UNK N   1      32.654  14.894   6.358  0.00  0.00     0.164 HD
BRANCH  33  35
HETATM   35  C   UNK N   1      32.645  16.808   7.392  0.00  0.00     0.114 C 
HETATM   36  C   UNK N   1      31.167  17.151   7.325  0.00  0.00     0.049 C 
HETATM   37  C   UNK N   1      33.227  17.402   8.662  0.00  0.00     0.049 C 
BRANCH  35  38
HETATM   38  C   UNK N   1      33.330  17.483   6.239  0.00  0.00     0.286 C 
HETATM   39  O   UNK N   1      34.473  17.908   6.356  0.00  0.00    -0.262 OA
BRANCH  38  40
HETATM   40  O   UNK N   1      32.672  17.595   5.059  0.00  0.00    -0.320 OA
BRANCH  40  41
HETATM   41  C   UNK N   1      32.993  16.834   3.964  0.00  0.00     0.174 C 
HETATM   42  C   UNK N   1      31.751  16.095   3.515  0.00  0.00     0.034 C 
ENDBRANCH  40  41
ENDBRANCH  38  40
ENDBRANCH  35  38
ENDBRANCH  33  35
ENDBRANCH   1  33
TORSDOF 15
ENDMDL
MODEL 7
REMARK VINA RESULT:      -6.1      4.909     10.068
REMARK  15 active torsions:
REMARK  status: ('A' for Active; 'I' for Inactive)
REMARK    1  A    between atoms: C_2  and  O_3 
REMARK    2  A    between atoms: O_3  and  C_4 
REMARK    3  A    between atoms: C_4  and  C_6 
REMARK    4  A    between atoms: C_6  and  N_9 
REMARK    5  A    between atoms: N_9  and  P_10 
REMARK    6  A    between atoms: P_10  and  C_12 
REMARK    7  A    between atoms: P_10  and  N_30 
REMARK    8  A    between atoms: C_15  and  C_17 
REMARK    9  A    between atoms: C_18  and  C_24 
REMARK   10  A    between atoms: C_20  and  N_23 
REMARK   11  A    between atoms: C_24  and  C_26 
REMARK   12  A    between atoms: N_30  and  C_31 
REMARK   13  A    between atoms: C_31  and  C_34 
REMARK   14  A    between atoms: C_34  and  O_36 
REMARK   15  A    between atoms: O_36  and  C_37 
ROOT
HETATM    1  P   UNK N   1      27.915  17.495   4.422  0.00  0.00     0.305 P 
HETATM    2  O   UNK N   1      28.927  16.931   3.397  0.00  0.00    -0.268 OA
ENDROOT
BRANCH   1   3
HETATM    3  N   UNK N   1      27.572  19.178   3.820  0.00  0.00    -0.333 N 
HETATM    4  H   UNK N   1      28.150  19.614   3.102  0.00  0.00     0.164 HD
BRANCH   3   5
HETATM    5  C   UNK N   1      26.424  19.882   4.412  0.00  0.00     0.114 C 
HETATM    6  C   UNK N   1      26.972  20.986   5.298  0.00  0.00     0.049 C 
HETATM    7  C   UNK N   1      25.662  18.929   5.323  0.00  0.00     0.049 C 
BRANCH   5   8
HETATM    8  C   UNK N   1      25.510  20.538   3.379  0.00  0.00     0.286 C 
HETATM    9  O   UNK N   1      25.969  20.877   2.299  0.00  0.00    -0.262 OA
BRANCH   8  10
HETATM   10  O   UNK N   1      24.192  20.785   3.627  0.00  0.00    -0.320 OA
BRANCH  10  11
HETATM   11  C   UNK N   1      23.164  20.347   2.821  0.00  0.00     0.174 C 
HETATM   12  C   UNK N   1      22.343  19.303   3.542  0.00  0.00     0.034 C 
ENDBRANCH  10  11
ENDBRANCH   8  10
ENDBRANCH   5   8
ENDBRANCH   3   5
ENDBRANCH   1   3
BRANCH   1  13
HETATM   13  C   UNK N   1      28.900  17.581   5.953  0.00  0.00     0.154 A 
HETATM   14  C   UNK N   1      28.653  18.337   7.076  0.00  0.00     0.047 A 
HETATM   15  C   UNK N   1      29.690  18.055   7.940  0.00  0.00     0.043 A 
HETATM   16  C   UNK N   1      30.501  17.147   7.278  0.00  0.00     0.104 A 
HETATM   17  O   UNK N   1      29.986  16.874   6.114  0.00  0.00    -0.301 OA
BRANCH  16  18
HETATM   18  C   UNK N   1      31.724  16.504   7.787  0.00  0.00     0.089 A 
HETATM   19  C   UNK N   1      32.957  16.381   7.091  0.00  0.00     0.084 A 
HETATM   20  S   UNK N   1      34.010  15.679   8.171  0.00  0.00    -0.048 SA
HETATM   21  C   UNK N   1      32.952  15.507   9.419  0.00  0.00     0.143 A 
HETATM   22  N   UNK N   1      31.738  15.995   9.077  0.00  0.00    -0.333 N 
ATOM     23  HN  UNK N   1      30.927  15.989   9.695  1.00  0.00     0.168 HD
BRANCH  19  24
HETATM   24  C   UNK N   1      33.266  16.722   5.665  0.00  0.00     0.176 C 
HETATM   25  O   UNK N   1      33.514  17.877   5.367  0.00  0.00    -0.291 OA
BRANCH  24  26
HETATM   26  C   UNK N   1      33.241  15.682   4.562  0.00  0.00     0.015 C 
HETATM   27  C   UNK N   1      33.043  16.367   3.224  0.00  0.00     0.023 C 
HETATM   28  C   UNK N   1      34.529  14.881   4.541  0.00  0.00     0.023 C 
HETATM   29  C   UNK N   1      32.093  14.700   4.755  0.00  0.00     0.023 C 
ENDBRANCH  24  26
ENDBRANCH  19  24
BRANCH  21  30
HETATM   30  N   UNK N   1      33.245  14.940  10.677  0.00  0.00    -0.380 N 
HETATM   31  H   UNK N   1      34.157  14.997  11.041  0.00  0.00     0.158 HD
HETATM   32  H   UNK N   1      32.536  14.488  11.189  0.00  0.00     0.158 HD
ENDBRANCH  21  30
ENDBRANCH  16  18
ENDBRANCH   1  13
BRANCH   1  33
HETATM   33  N   UNK N   1      26.462  16.439   4.154  0.00  0.00    -0.333 N 
HETATM   34  H   UNK N   1      25.798  16.657   3.411  0.00  0.00     0.164 HD
BRANCH  33  35
HETATM   35  C   UNK N   1      26.251  15.262   5.018  0.00  0.00     0.114 C 
HETATM   36  C   UNK N   1      27.373  14.277   4.736  0.00  0.00     0.049 C 
HETATM   37  C   UNK N   1      26.215  15.549   6.508  0.00  0.00     0.049 C 
BRANCH  35  38
HETATM   38  C   UNK N   1      24.951  14.595   4.669  0.00  0.00     0.286 C 
HETATM   39  O   UNK N   1      24.480  13.729   5.396  0.00  0.00    -0.262 OA
BRANCH  38  40
HETATM   40  O   UNK N   1      24.295  14.983   3.547  0.00  0.00    -0.320 OA
BRANCH  40  41
HETATM   41  C   UNK N   1      24.026  14.117   2.518  0.00  0.00     0.174 C 
HETATM   42  C   UNK N   1      24.782  14.581   1.292  0.00  0.00     0.034 C 
ENDBRANCH  40  41
ENDBRANCH  38  40
ENDBRANCH  35  38
ENDBRANCH  33  35
ENDBRANCH   1  33
TORSDOF 15
ENDMDL
MODEL 8
REMARK VINA RESULT:      -6.1      6.161     10.658
REMARK  15 active torsions:
REMARK  status: ('A' for Active; 'I' for Inactive)
REMARK    1  A    between atoms: C_2  and  O_3 
REMARK    2  A    between atoms: O_3  and  C_4 
REMARK    3  A    between atoms: C_4  and  C_6 
REMARK    4  A    between atoms: C_6  and  N_9 
REMARK    5  A    between atoms: N_9  and  P_10 
REMARK    6  A    between atoms: P_10  and  C_12 
REMARK    7  A    between atoms: P_10  and  N_30 
REMARK    8  A    between atoms: C_15  and  C_17 
REMARK    9  A    between atoms: C_18  and  C_24 
REMARK   10  A    between atoms: C_20  and  N_23 
REMARK   11  A    between atoms: C_24  and  C_26 
REMARK   12  A    between atoms: N_30  and  C_31 
REMARK   13  A    between atoms: C_31  and  C_34 
REMARK   14  A    between atoms: C_34  and  O_36 
REMARK   15  A    between atoms: O_36  and  C_37 
ROOT
HETATM    1  P   UNK N   1      27.080  15.898   6.110  0.00  0.00     0.305 P 
HETATM    2  O   UNK N   1      28.353  15.054   5.860  0.00  0.00    -0.268 OA
ENDROOT
BRANCH   1   3
HETATM    3  N   UNK N   1      27.470  16.848   7.611  0.00  0.00    -0.333 N 
HETATM    4  H   UNK N   1      27.041  16.625   8.509  0.00  0.00     0.164 HD
BRANCH   3   5
HETATM    5  C   UNK N   1      28.433  17.953   7.476  0.00  0.00     0.114 C 
HETATM    6  C   UNK N   1      28.769  18.441   8.873  0.00  0.00     0.049 C 
HETATM    7  C   UNK N   1      27.765  19.117   6.755  0.00  0.00     0.049 C 
BRANCH   5   8
HETATM    8  C   UNK N   1      29.744  17.543   6.807  0.00  0.00     0.286 C 
HETATM    9  O   UNK N   1      29.935  17.828   5.635  0.00  0.00    -0.262 OA
BRANCH   8  10
HETATM   10  O   UNK N   1      30.708  16.844   7.470  0.00  0.00    -0.320 OA
BRANCH  10  11
HETATM   11  C   UNK N   1      32.057  16.961   7.209  0.00  0.00     0.174 C 
HETATM   12  C   UNK N   1      32.695  17.923   8.185  0.00  0.00     0.034 C 
ENDBRANCH  10  11
ENDBRANCH   8  10
ENDBRANCH   5   8
ENDBRANCH   3   5
ENDBRANCH   1   3
BRANCH   1  13
HETATM   13  C   UNK N   1      25.829  14.629   6.495  0.00  0.00     0.154 A 
HETATM   14  C   UNK N   1      25.433  13.567   5.714  0.00  0.00     0.047 A 
HETATM   15  C   UNK N   1      24.463  12.918   6.447  0.00  0.00     0.043 A 
HETATM   16  C   UNK N   1      24.331  13.635   7.625  0.00  0.00     0.104 A 
HETATM   17  O   UNK N   1      25.174  14.627   7.625  0.00  0.00    -0.301 OA
BRANCH  16  18
HETATM   18  C   UNK N   1      23.447  13.332   8.763  0.00  0.00     0.089 A 
HETATM   19  C   UNK N   1      22.026  13.361   8.751  0.00  0.00     0.084 A 
HETATM   20  S   UNK N   1      21.558  12.829  10.256  0.00  0.00    -0.048 SA
HETATM   21  C   UNK N   1      23.063  12.619  10.886  0.00  0.00     0.143 A 
HETATM   22  N   UNK N   1      24.005  12.932   9.968  0.00  0.00    -0.333 N 
ATOM     23  HN  UNK N   1      25.009  12.881  10.141  1.00  0.00     0.168 HD
BRANCH  19  24
HETATM   24  C   UNK N   1      21.108  13.839   7.668  0.00  0.00     0.176 C 
HETATM   25  O   UNK N   1      20.593  13.025   6.921  0.00  0.00    -0.291 OA
BRANCH  24  26
HETATM   26  C   UNK N   1      20.827  15.310   7.437  0.00  0.00     0.015 C 
HETATM   27  C   UNK N   1      20.531  15.983   8.764  0.00  0.00     0.023 C 
HETATM   28  C   UNK N   1      22.006  15.991   6.770  0.00  0.00     0.023 C 
HETATM   29  C   UNK N   1      19.614  15.506   6.537  0.00  0.00     0.023 C 
ENDBRANCH  24  26
ENDBRANCH  19  24
BRANCH  21  30
HETATM   30  N   UNK N   1      23.356  12.174  12.192  0.00  0.00    -0.380 N 
HETATM   31  H   UNK N   1      22.671  12.231  12.896  0.00  0.00     0.158 HD
HETATM   32  H   UNK N   1      24.246  11.805  12.398  0.00  0.00     0.158 HD
ENDBRANCH  21  30
ENDBRANCH  16  18
ENDBRANCH   1  13
BRANCH   1  33
HETATM   33  N   UNK N   1      27.060  17.004   4.670  0.00  0.00    -0.333 N 
HETATM   34  H   UNK N   1      27.933  17.372   4.292  0.00  0.00     0.164 HD
BRANCH  33  35
HETATM   35  C   UNK N   1      25.771  17.367   4.051  0.00  0.00     0.114 C 
HETATM   36  C   UNK N   1      24.746  17.496   5.165  0.00  0.00     0.049 C 
HETATM   37  C   UNK N   1      25.778  18.652   3.243  0.00  0.00     0.049 C 
BRANCH  35  38
HETATM   38  C   UNK N   1      25.318  16.272   3.129  0.00  0.00     0.286 C 
HETATM   39  O   UNK N   1      24.215  15.756   3.269  0.00  0.00    -0.262 OA
BRANCH  38  40
HETATM   40  O   UNK N   1      26.139  15.879   2.124  0.00  0.00    -0.320 OA
BRANCH  40  41
HETATM   41  C   UNK N   1      26.679  14.619   2.068  0.00  0.00     0.174 C 
HETATM   42  C   UNK N   1      28.186  14.745   2.029  0.00  0.00     0.034 C 
ENDBRANCH  40  41
ENDBRANCH  38  40
ENDBRANCH  35  38
ENDBRANCH  33  35
ENDBRANCH   1  33
TORSDOF 15
ENDMDL
MODEL 9
REMARK VINA RESULT:      -6.0      9.539     12.954
REMARK  15 active torsions:
REMARK  status: ('A' for Active; 'I' for Inactive)
REMARK    1  A    between atoms: C_2  and  O_3 
REMARK    2  A    between atoms: O_3  and  C_4 
REMARK    3  A    between atoms: C_4  and  C_6 
REMARK    4  A    between atoms: C_6  and  N_9 
REMARK    5  A    between atoms: N_9  and  P_10 
REMARK    6  A    between atoms: P_10  and  C_12 
REMARK    7  A    between atoms: P_10  and  N_30 
REMARK    8  A    between atoms: C_15  and  C_17 
REMARK    9  A    between atoms: C_18  and  C_24 
REMARK   10  A    between atoms: C_20  and  N_23 
REMARK   11  A    between atoms: C_24  and  C_26 
REMARK   12  A    between atoms: N_30  and  C_31 
REMARK   13  A    between atoms: C_31  and  C_34 
REMARK   14  A    between atoms: C_34  and  O_36 
REMARK   15  A    between atoms: O_36  and  C_37 
ROOT
HETATM    1  P   UNK N   1      22.001  17.335   5.780  0.00  0.00     0.305 P 
HETATM    2  O   UNK N   1      21.357  18.674   6.211  0.00  0.00    -0.268 OA
ENDROOT
BRANCH   1   3
HETATM    3  N   UNK N   1      23.768  17.734   5.604  0.00  0.00    -0.333 N 
HETATM    4  H   UNK N   1      24.136  18.648   5.869  0.00  0.00     0.164 HD
BRANCH   3   5
HETATM    5  C   UNK N   1      24.644  16.683   5.065  0.00  0.00     0.114 C 
HETATM    6  C   UNK N   1      24.492  16.691   3.554  0.00  0.00     0.049 C 
HETATM    7  C   UNK N   1      24.155  15.323   5.547  0.00  0.00     0.049 C 
BRANCH   5   8
HETATM    8  C   UNK N   1      26.124  16.901   5.375  0.00  0.00     0.286 C 
HETATM    9  O   UNK N   1      26.826  15.942   5.658  0.00  0.00    -0.262 OA
BRANCH   8  10
HETATM   10  O   UNK N   1      26.691  18.140   5.371  0.00  0.00    -0.320 OA
BRANCH  10  11
HETATM   11  C   UNK N   1      27.506  18.609   4.363  0.00  0.00     0.174 C 
HETATM   12  C   UNK N   1      26.946  19.892   3.794  0.00  0.00     0.034 C 
ENDBRANCH  10  11
ENDBRANCH   8  10
ENDBRANCH   5   8
ENDBRANCH   3   5
ENDBRANCH   1   3
BRANCH   1  13
HETATM   13  C   UNK N   1      21.270  17.050   4.135  0.00  0.00     0.154 A 
HETATM   14  C   UNK N   1      20.883  17.991   3.208  0.00  0.00     0.047 A 
HETATM   15  C   UNK N   1      20.388  17.269   2.143  0.00  0.00     0.043 A 
HETATM   16  C   UNK N   1      20.503  15.935   2.499  0.00  0.00     0.104 A 
HETATM   17  O   UNK N   1      21.052  15.848   3.676  0.00  0.00    -0.301 OA
BRANCH  16  18
HETATM   18  C   UNK N   1      20.146  14.759   1.689  0.00  0.00     0.089 A 
HETATM   19  C   UNK N   1      21.044  13.765   1.213  0.00  0.00     0.084 A 
HETATM   20  S   UNK N   1      20.092  12.628   0.462  0.00  0.00    -0.048 SA
HETATM   21  C   UNK N   1      18.644  13.375   0.692  0.00  0.00     0.143 A 
HETATM   22  N   UNK N   1      18.815  14.531   1.373  0.00  0.00    -0.333 N 
ATOM     23  HN  UNK N   1      18.054  15.162   1.624  1.00  0.00     0.168 HD
BRANCH  19  24
HETATM   24  C   UNK N   1      22.541  13.746   1.280  0.00  0.00     0.176 C 
HETATM   25  O   UNK N   1      23.180  14.507   0.574  0.00  0.00    -0.291 OA
BRANCH  24  26
HETATM   26  C   UNK N   1      23.297  12.779   2.169  0.00  0.00     0.015 C 
HETATM   27  C   UNK N   1      24.703  13.297   2.400  0.00  0.00     0.023 C 
HETATM   28  C   UNK N   1      22.593  12.600   3.500  0.00  0.00     0.023 C 
HETATM   29  C   UNK N   1      23.409  11.405   1.521  0.00  0.00     0.023 C 
ENDBRANCH  24  26
ENDBRANCH  19  24
BRANCH  21  30
HETATM   30  N   UNK N   1      17.391  12.898   0.256  0.00  0.00    -0.380 N 
HETATM   31  H   UNK N   1      17.096  11.992   0.504  0.00  0.00     0.158 HD
HETATM   32  H   UNK N   1      16.811  13.472  -0.296  0.00  0.00     0.158 HD
ENDBRANCH  21  30
ENDBRANCH  16  18
ENDBRANCH   1  13
BRANCH   1  33
HETATM   33  N   UNK N   1      21.750  16.294   7.247  0.00  0.00    -0.333 N 
HETATM   34  H   UNK N   1      22.427  16.308   8.009  0.00  0.00     0.164 HD
BRANCH  33  35
HETATM   35  C   UNK N   1      20.558  15.429   7.328  0.00  0.00     0.114 C 
HETATM   36  C   UNK N   1      19.364  16.247   6.866  0.00  0.00     0.049 C 
HETATM   37  C   UNK N   1      20.625  14.154   6.506  0.00  0.00     0.049 C 
BRANCH  35  38
HETATM   38  C   UNK N   1      20.316  15.020   8.752  0.00  0.00     0.286 C 
HETATM   39  O   UNK N   1      19.192  15.080   9.235  0.00  0.00    -0.262 OA
BRANCH  38  40
HETATM   40  O   UNK N   1      21.358  14.562   9.489  0.00  0.00    -0.320 OA
BRANCH  40  41
HETATM   41  C   UNK N   1      21.325  13.352  10.135  0.00  0.00     0.174 C 
HETATM   42  C   UNK N   1      22.203  12.381   9.375  0.00  0.00     0.034 C 
ENDBRANCH  40  41
ENDBRANCH  38  40
ENDBRANCH  35  38
ENDBRANCH  33  35
ENDBRANCH   1  33
TORSDOF 15
ENDMDL
