MODEL 1
REMARK VINA RESULT:      -7.4      0.000      0.000
REMARK  14 active torsions:
REMARK  status: ('A' for Active; 'I' for Inactive)
REMARK    1  A    between atoms: C_6  and  C_8 
REMARK    2  A    between atoms: C_13  and  O_15 
REMARK    3  A    between atoms: C_14  and  O_31 
REMARK    4  A    between atoms: C_23  and  C_17 
REMARK    5  A    between atoms: C_17  and  C_18 
REMARK    6  A    between atoms: C_18  and  C_19 
REMARK    7  A    between atoms: C_19  and  C_22 
REMARK    8  A    between atoms: C_22  and  C_27 
REMARK    9  A    between atoms: C_27  and  O_28 
REMARK   10  A    between atoms: C_29  and  O_30 
REMARK   11  A    between atoms: O_31  and  C_32 
REMARK   12  A    between atoms: C_32  and  C_33 
REMARK   13  A    between atoms: C_33  and  C_34 
REMARK   14  A    between atoms: C_34  and  O_35 
ROOT
HETATM    1  C   UNK N   1      27.981  17.512   4.199  0.00  0.00     0.010 C 
HETATM    2  C   UNK N   1      29.994  16.494   6.111  0.00  0.00    -0.075 C 
HETATM    3  C   UNK N   1      28.973  18.192   7.766  0.00  0.00     0.010 C 
HETATM    4  C   UNK N   1      27.821  19.204   7.640  0.00  0.00     0.006 C 
HETATM    5  C   UNK N   1      28.878  16.279   3.875  0.00  0.00     0.005 C 
HETATM    6  C   UNK N   1      31.113  16.264   6.801  0.00  0.00     0.004 C 
HETATM    7  C   UNK N   1      29.432  15.516   5.107  0.00  0.00     0.034 C 
HETATM    8  C   UNK N   1      27.280  19.110   6.198  0.00  0.00    -0.002 C 
HETATM    9  C   UNK N   1      29.269  17.790   6.332  0.00  0.00     0.023 C 
HETATM   10  C   UNK N   1      27.877  17.775   5.706  0.00  0.00    -0.033 C 
HETATM   11  C   UNK N   1      27.008  16.646   6.311  0.00  0.00     0.016 C 
ENDROOT
BRANCH   6  12
HETATM   12  C   UNK N   1      31.903  15.025   6.751  0.00  0.00     0.008 C 
HETATM   13  C   UNK N   1      32.923  14.801   7.605  0.00  0.00    -0.048 C 
HETATM   14  C   UNK N   1      33.341  15.751   8.698  0.00  0.00    -0.030 C 
HETATM   15  C   UNK N   1      33.643  13.482   7.514  0.00  0.00     0.073 C 
HETATM   16  C   UNK N   1      33.816  15.169   9.996  0.00  0.00     0.182 C 
HETATM   17  C   UNK N   1      32.979  17.039   8.711  0.00  0.00     0.022 C 
HETATM   18  C   UNK N   1      34.625  13.882   9.809  0.00  0.00     0.183 C 
HETATM   19  C   UNK N   1      33.916  12.874   8.890  0.00  0.00     0.154 C 
BRANCH  16  20
HETATM   20  O   UNK N   1      32.719  14.934  10.827  0.00  0.00    -0.388 OA
HETATM   21  H   UNK N   1      32.070  14.522  11.418  0.00  0.00     0.210 HD
ENDBRANCH  16  20
BRANCH  18  22
HETATM   22  O   UNK N   1      35.897  14.213   9.323  0.00  0.00    -0.380 OA
BRANCH  22  23
HETATM   23  C   UNK N   1      36.622  14.705  10.424  0.00  0.00     0.170 C 
BRANCH  23  24
HETATM   24  C   UNK N   1      36.926  13.611  11.453  0.00  0.00     0.052 C 
BRANCH  24  25
HETATM   25  C   UNK N   1      36.219  13.868  12.772  0.00  0.00     0.166 C 
BRANCH  25  26
HETATM   26  O   UNK N   1      36.610  15.109  13.272  0.00  0.00    -0.401 OA
HETATM   27  H   UNK N   1      37.398  15.608  13.003  0.00  0.00     0.209 HD
ENDBRANCH  25  26
ENDBRANCH  24  25
ENDBRANCH  23  24
ENDBRANCH  22  23
ENDBRANCH  18  22
BRANCH  19  28
HETATM   28  O   UNK N   1      32.722  12.437   9.467  0.00  0.00    -0.393 OA
HETATM   29  H   UNK N   1      32.149  12.091  10.170  0.00  0.00     0.210 HD
ENDBRANCH  19  28
ENDBRANCH   6  12
BRANCH   8  30
HETATM   30  C   UNK N   1      27.603  20.380   5.360  0.00  0.00    -0.014 C 
HETATM   31  C   UNK N   1      27.615  21.723   6.077  0.00  0.00     0.010 C 
BRANCH  30  32
HETATM   32  C   UNK N   1      26.809  20.469   4.046  0.00  0.00     0.005 C 
BRANCH  32  33
HETATM   33  C   UNK N   1      25.303  20.278   4.216  0.00  0.00     0.003 C 
BRANCH  33  34
HETATM   34  C   UNK N   1      24.799  19.081   3.416  0.00  0.00     0.037 C 
BRANCH  34  35
HETATM   35  C   UNK N   1      23.810  18.216   4.201  0.00  0.00     0.051 C 
HETATM   36  C   UNK N   1      24.058  16.743   3.931  0.00  0.00     0.045 C 
HETATM   37  C   UNK N   1      22.377  18.561   3.829  0.00  0.00     0.045 C 
BRANCH  35  38
HETATM   38  O   UNK N   1      23.987  18.459   5.561  0.00  0.00    -0.391 OA
HETATM   39  H   UNK N   1      24.642  18.870   6.146  0.00  0.00     0.210 HD
ENDBRANCH  35  38
ENDBRANCH  34  35
ENDBRANCH  33  34
ENDBRANCH  32  33
ENDBRANCH  30  32
ENDBRANCH   8  30
TORSDOF 14
ENDMDL
MODEL 2
REMARK VINA RESULT:      -7.2      7.815     13.897
REMARK  14 active torsions:
REMARK  status: ('A' for Active; 'I' for Inactive)
REMARK    1  A    between atoms: C_6  and  C_8 
REMARK    2  A    between atoms: C_13  and  O_15 
REMARK    3  A    between atoms: C_14  and  O_31 
REMARK    4  A    between atoms: C_23  and  C_17 
REMARK    5  A    between atoms: C_17  and  C_18 
REMARK    6  A    between atoms: C_18  and  C_19 
REMARK    7  A    between atoms: C_19  and  C_22 
REMARK    8  A    between atoms: C_22  and  C_27 
REMARK    9  A    between atoms: C_27  and  O_28 
REMARK   10  A    between atoms: C_29  and  O_30 
REMARK   11  A    between atoms: O_31  and  C_32 
REMARK   12  A    between atoms: C_32  and  C_33 
REMARK   13  A    between atoms: C_33  and  C_34 
REMARK   14  A    between atoms: C_34  and  O_35 
ROOT
HETATM    1  C   UNK N   1      35.320  11.459  18.187  0.00  0.00     0.010 C 
HETATM    2  C   UNK N   1      36.082  12.399  15.488  0.00  0.00    -0.075 C 
HETATM    3  C   UNK N   1      36.738   9.941  15.048  0.00  0.00     0.010 C 
HETATM    4  C   UNK N   1      36.683   8.676  15.923  0.00  0.00     0.006 C 
HETATM    5  C   UNK N   1      35.011  12.907  17.698  0.00  0.00     0.005 C 
HETATM    6  C   UNK N   1      36.725  12.918  14.440  0.00  0.00     0.004 C 
HETATM    7  C   UNK N   1      34.917  13.086  16.160  0.00  0.00     0.034 C 
HETATM    8  C   UNK N   1      36.145   9.096  17.306  0.00  0.00    -0.002 C 
HETATM    9  C   UNK N   1      36.548  11.080  16.034  0.00  0.00     0.023 C 
HETATM   10  C   UNK N   1      35.545  10.489  17.021  0.00  0.00    -0.033 C 
HETATM   11  C   UNK N   1      34.173  10.255  16.346  0.00  0.00     0.016 C 
ENDROOT
BRANCH   6  12
HETATM   12  C   UNK N   1      36.356  14.161  13.747  0.00  0.00     0.008 C 
HETATM   13  C   UNK N   1      36.177  14.200  12.410  0.00  0.00    -0.048 C 
HETATM   14  C   UNK N   1      36.298  13.004  11.501  0.00  0.00    -0.030 C 
HETATM   15  C   UNK N   1      35.750  15.506  11.793  0.00  0.00     0.073 C 
HETATM   16  C   UNK N   1      35.360  12.906  10.335  0.00  0.00     0.182 C 
HETATM   17  C   UNK N   1      36.924  11.880  11.868  0.00  0.00     0.022 C 
HETATM   18  C   UNK N   1      35.056  14.267   9.702  0.00  0.00     0.183 C 
HETATM   19  C   UNK N   1      34.652  15.320  10.746  0.00  0.00     0.154 C 
BRANCH  16  20
HETATM   20  O   UNK N   1      34.177  12.286  10.743  0.00  0.00    -0.388 OA
HETATM   21  H   UNK N   1      33.514  11.781  11.237  0.00  0.00     0.210 HD
ENDBRANCH  16  20
BRANCH  18  22
HETATM   22  O   UNK N   1      36.169  14.681   8.960  0.00  0.00    -0.380 OA
BRANCH  22  23
HETATM   23  C   UNK N   1      36.546  13.579   8.169  0.00  0.00     0.170 C 
BRANCH  23  24
HETATM   24  C   UNK N   1      38.045  13.575   7.856  0.00  0.00     0.052 C 
BRANCH  24  25
HETATM   25  C   UNK N   1      38.884  13.569   9.121  0.00  0.00     0.166 C 
BRANCH  25  26
HETATM   26  O   UNK N   1      38.747  14.794   9.771  0.00  0.00    -0.401 OA
HETATM   27  H   UNK N   1      38.298  14.941  10.619  0.00  0.00     0.209 HD
ENDBRANCH  25  26
ENDBRANCH  24  25
ENDBRANCH  23  24
ENDBRANCH  22  23
ENDBRANCH  18  22
BRANCH  19  28
HETATM   28  O   UNK N   1      33.453  14.964  11.366  0.00  0.00    -0.393 OA
HETATM   29  H   UNK N   1      32.784  14.360  11.727  0.00  0.00     0.210 HD
ENDBRANCH  19  28
ENDBRANCH   6  12
BRANCH   8  30
HETATM   30  C   UNK N   1      37.233   9.009  18.415  0.00  0.00    -0.014 C 
HETATM   31  C   UNK N   1      38.256   7.884  18.324  0.00  0.00     0.010 C 
BRANCH  30  32
HETATM   32  C   UNK N   1      36.669   9.120  19.842  0.00  0.00     0.005 C 
BRANCH  32  33
HETATM   33  C   UNK N   1      35.473   8.208  20.110  0.00  0.00     0.003 C 
BRANCH  33  34
HETATM   34  C   UNK N   1      34.718   8.632  21.365  0.00  0.00     0.037 C 
BRANCH  34  35
HETATM   35  C   UNK N   1      33.208   8.736  21.142  0.00  0.00     0.051 C 
HETATM   36  C   UNK N   1      32.885   8.725  19.659  0.00  0.00     0.045 C 
HETATM   37  C   UNK N   1      32.654  10.006  21.768  0.00  0.00     0.045 C 
BRANCH  35  38
HETATM   38  O   UNK N   1      32.592   7.640  21.743  0.00  0.00    -0.391 OA
HETATM   39  H   UNK N   1      32.728   7.061  22.508  0.00  0.00     0.210 HD
ENDBRANCH  35  38
ENDBRANCH  34  35
ENDBRANCH  33  34
ENDBRANCH  32  33
ENDBRANCH  30  32
ENDBRANCH   8  30
TORSDOF 14
ENDMDL
MODEL 3
REMARK VINA RESULT:      -7.1      2.960      5.574
REMARK  14 active torsions:
REMARK  status: ('A' for Active; 'I' for Inactive)
REMARK    1  A    between atoms: C_6  and  C_8 
REMARK    2  A    between atoms: C_13  and  O_15 
REMARK    3  A    between atoms: C_14  and  O_31 
REMARK    4  A    between atoms: C_23  and  C_17 
REMARK    5  A    between atoms: C_17  and  C_18 
REMARK    6  A    between atoms: C_18  and  C_19 
REMARK    7  A    between atoms: C_19  and  C_22 
REMARK    8  A    between atoms: C_22  and  C_27 
REMARK    9  A    between atoms: C_27  and  O_28 
REMARK   10  A    between atoms: C_29  and  O_30 
REMARK   11  A    between atoms: O_31  and  C_32 
REMARK   12  A    between atoms: C_32  and  C_33 
REMARK   13  A    between atoms: C_33  and  C_34 
REMARK   14  A    between atoms: C_34  and  O_35 
ROOT
HETATM    1  C   UNK N   1      32.402  14.047   7.131  0.00  0.00     0.010 C 
HETATM    2  C   UNK N   1      34.920  14.436   8.632  0.00  0.00    -0.075 C 
HETATM    3  C   UNK N   1      34.235  16.924   8.722  0.00  0.00     0.010 C 
HETATM    4  C   UNK N   1      33.014  17.687   8.181  0.00  0.00     0.006 C 
HETATM    5  C   UNK N   1      33.279  12.846   7.599  0.00  0.00     0.005 C 
HETATM    6  C   UNK N   1      36.195  14.617   8.981  0.00  0.00     0.004 C 
HETATM    7  C   UNK N   1      34.194  13.125   8.820  0.00  0.00     0.034 C 
HETATM    8  C   UNK N   1      32.124  16.667   7.441  0.00  0.00    -0.002 C 
HETATM    9  C   UNK N   1      34.177  15.583   8.011  0.00  0.00     0.023 C 
HETATM   10  C   UNK N   1      32.675  15.317   7.945  0.00  0.00    -0.033 C 
HETATM   11  C   UNK N   1      32.088  15.093   9.359  0.00  0.00     0.016 C 
ENDROOT
BRANCH   6  12
HETATM   12  C   UNK N   1      37.040  13.622   9.657  0.00  0.00     0.008 C 
HETATM   13  C   UNK N   1      36.992  13.443  10.995  0.00  0.00    -0.048 C 
HETATM   14  C   UNK N   1      36.071  14.197  11.920  0.00  0.00    -0.030 C 
HETATM   15  C   UNK N   1      37.856  12.366  11.594  0.00  0.00     0.073 C 
HETATM   16  C   UNK N   1      35.489  13.461  13.090  0.00  0.00     0.182 C 
HETATM   17  C   UNK N   1      35.472  15.340  11.567  0.00  0.00     0.022 C 
HETATM   18  C   UNK N   1      36.467  12.455  13.705  0.00  0.00     0.183 C 
HETATM   19  C   UNK N   1      37.111  11.545  12.647  0.00  0.00     0.154 C 
BRANCH  16  20
HETATM   20  O   UNK N   1      34.316  12.816  12.694  0.00  0.00    -0.388 OA
HETATM   21  H   UNK N   1      33.647  12.327  12.190  0.00  0.00     0.210 HD
ENDBRANCH  16  20
BRANCH  18  22
HETATM   22  O   UNK N   1      37.435  13.155  14.438  0.00  0.00    -0.380 OA
BRANCH  22  23
HETATM   23  C   UNK N   1      36.756  13.746  15.520  0.00  0.00     0.170 C 
BRANCH  23  24
HETATM   24  C   UNK N   1      36.094  12.705  16.428  0.00  0.00     0.052 C 
BRANCH  24  25
HETATM   25  C   UNK N   1      34.846  13.255  17.097  0.00  0.00     0.166 C 
BRANCH  25  26
HETATM   26  O   UNK N   1      33.805  13.293  16.171  0.00  0.00    -0.401 OA
HETATM   27  H   UNK N   1      33.656  12.654  15.456  0.00  0.00     0.209 HD
ENDBRANCH  25  26
ENDBRANCH  24  25
ENDBRANCH  23  24
ENDBRANCH  22  23
ENDBRANCH  18  22
BRANCH  19  28
HETATM   28  O   UNK N   1      36.147  10.742  12.035  0.00  0.00    -0.393 OA
HETATM   29  H   UNK N   1      35.256  10.488  11.744  0.00  0.00     0.210 HD
ENDBRANCH  19  28
ENDBRANCH   6  12
BRANCH   8  30
HETATM   30  C   UNK N   1      32.113  16.897   5.902  0.00  0.00    -0.014 C 
HETATM   31  C   UNK N   1      33.257  17.697   5.293  0.00  0.00     0.010 C 
BRANCH  30  32
HETATM   32  C   UNK N   1      30.758  17.381   5.361  0.00  0.00     0.005 C 
BRANCH  32  33
HETATM   33  C   UNK N   1      29.571  17.034   6.258  0.00  0.00     0.003 C 
BRANCH  33  34
HETATM   34  C   UNK N   1      28.769  18.277   6.627  0.00  0.00     0.037 C 
BRANCH  34  35
HETATM   35  C   UNK N   1      28.432  18.345   8.119  0.00  0.00     0.051 C 
HETATM   36  C   UNK N   1      29.661  18.724   8.926  0.00  0.00     0.045 C 
HETATM   37  C   UNK N   1      27.897  17.011   8.614  0.00  0.00     0.045 C 
BRANCH  35  38
HETATM   38  O   UNK N   1      27.453  19.316   8.311  0.00  0.00    -0.391 OA
HETATM   39  H   UNK N   1      26.516  19.363   8.557  0.00  0.00     0.210 HD
ENDBRANCH  35  38
ENDBRANCH  34  35
ENDBRANCH  33  34
ENDBRANCH  32  33
ENDBRANCH  30  32
ENDBRANCH   8  30
TORSDOF 14
ENDMDL
MODEL 4
REMARK VINA RESULT:      -7.1     11.574     14.271
REMARK  14 active torsions:
REMARK  status: ('A' for Active; 'I' for Inactive)
REMARK    1  A    between atoms: C_6  and  C_8 
REMARK    2  A    between atoms: C_13  and  O_15 
REMARK    3  A    between atoms: C_14  and  O_31 
REMARK    4  A    between atoms: C_23  and  C_17 
REMARK    5  A    between atoms: C_17  and  C_18 
REMARK    6  A    between atoms: C_18  and  C_19 
REMARK    7  A    between atoms: C_19  and  C_22 
REMARK    8  A    between atoms: C_22  and  C_27 
REMARK    9  A    between atoms: C_27  and  O_28 
REMARK   10  A    between atoms: C_29  and  O_30 
REMARK   11  A    between atoms: O_31  and  C_32 
REMARK   12  A    between atoms: C_32  and  C_33 
REMARK   13  A    between atoms: C_33  and  C_34 
REMARK   14  A    between atoms: C_34  and  O_35 
ROOT
HETATM    1  C   UNK N   1      27.752  24.137  -3.026  0.00  0.00     0.010 C 
HETATM    2  C   UNK N   1      29.914  22.492  -4.194  0.00  0.00    -0.075 C 
HETATM    3  C   UNK N   1      29.487  23.842  -6.353  0.00  0.00     0.010 C 
HETATM    4  C   UNK N   1      28.501  24.972  -6.696  0.00  0.00     0.006 C 
HETATM    5  C   UNK N   1      28.612  23.168  -2.160  0.00  0.00     0.005 C 
HETATM    6  C   UNK N   1      30.625  21.516  -4.764  0.00  0.00     0.004 C 
HETATM    7  C   UNK N   1      30.018  22.836  -2.727  0.00  0.00     0.034 C 
HETATM    8  C   UNK N   1      27.644  25.233  -5.440  0.00  0.00    -0.002 C 
HETATM    9  C   UNK N   1      28.958  23.275  -5.047  0.00  0.00     0.023 C 
HETATM   10  C   UNK N   1      28.453  24.526  -4.333  0.00  0.00    -0.033 C 
HETATM   11  C   UNK N   1      29.625  25.466  -3.964  0.00  0.00     0.016 C 
ENDROOT
BRANCH   6  12
HETATM   12  C   UNK N   1      31.646  20.704  -4.088  0.00  0.00     0.008 C 
HETATM   13  C   UNK N   1      32.564  19.999  -4.782  0.00  0.00    -0.048 C 
HETATM   14  C   UNK N   1      32.667  19.988  -6.286  0.00  0.00    -0.030 C 
HETATM   15  C   UNK N   1      33.604  19.236  -4.006  0.00  0.00     0.073 C 
HETATM   16  C   UNK N   1      34.034  19.927  -6.899  0.00  0.00     0.182 C 
HETATM   17  C   UNK N   1      31.666  20.385  -7.080  0.00  0.00     0.022 C 
HETATM   18  C   UNK N   1      35.004  19.050  -6.102  0.00  0.00     0.183 C 
HETATM   19  C   UNK N   1      35.003  19.391  -4.603  0.00  0.00     0.154 C 
BRANCH  16  20
HETATM   20  O   UNK N   1      34.543  21.221  -7.026  0.00  0.00    -0.388 OA
HETATM   21  H   UNK N   1      35.069  21.993  -7.286  0.00  0.00     0.210 HD
ENDBRANCH  16  20
BRANCH  18  22
HETATM   22  O   UNK N   1      34.685  17.704  -6.323  0.00  0.00    -0.380 OA
BRANCH  22  23
HETATM   23  C   UNK N   1      35.822  16.964  -5.951  0.00  0.00     0.170 C 
BRANCH  23  24
HETATM   24  C   UNK N   1      35.463  15.716  -5.139  0.00  0.00     0.052 C 
BRANCH  24  25
HETATM   25  C   UNK N   1      35.608  15.953  -3.647  0.00  0.00     0.166 C 
BRANCH  25  26
HETATM   26  O   UNK N   1      34.358  15.855  -3.040  0.00  0.00    -0.401 OA
HETATM   27  H   UNK N   1      33.926  15.034  -2.755  0.00  0.00     0.209 HD
ENDBRANCH  25  26
ENDBRANCH  24  25
ENDBRANCH  23  24
ENDBRANCH  22  23
ENDBRANCH  18  22
BRANCH  19  28
HETATM   28  O   UNK N   1      35.474  20.688  -4.393  0.00  0.00    -0.393 OA
HETATM   29  H   UNK N   1      35.537  21.550  -3.951  0.00  0.00     0.210 HD
ENDBRANCH  19  28
ENDBRANCH   6  12
BRANCH   8  30
HETATM   30  C   UNK N   1      26.165  24.789  -5.628  0.00  0.00    -0.014 C 
HETATM   31  C   UNK N   1      25.845  23.850  -6.784  0.00  0.00     0.010 C 
BRANCH  30  32
HETATM   32  C   UNK N   1      25.161  25.952  -5.574  0.00  0.00     0.005 C 
BRANCH  32  33
HETATM   33  C   UNK N   1      25.810  27.335  -5.587  0.00  0.00     0.003 C 
BRANCH  33  34
HETATM   34  C   UNK N   1      25.585  28.068  -4.270  0.00  0.00     0.037 C 
BRANCH  34  35
HETATM   35  C   UNK N   1      26.634  29.150  -4.005  0.00  0.00     0.051 C 
HETATM   36  C   UNK N   1      27.456  29.413  -5.255  0.00  0.00     0.045 C 
HETATM   37  C   UNK N   1      27.560  28.741  -2.871  0.00  0.00     0.045 C 
BRANCH  35  38
HETATM   38  O   UNK N   1      25.982  30.327  -3.643  0.00  0.00    -0.391 OA
HETATM   39  H   UNK N   1      25.195  30.830  -3.904  0.00  0.00     0.210 HD
ENDBRANCH  35  38
ENDBRANCH  34  35
ENDBRANCH  33  34
ENDBRANCH  32  33
ENDBRANCH  30  32
ENDBRANCH   8  30
TORSDOF 14
ENDMDL
MODEL 5
REMARK VINA RESULT:      -7.1      6.852     14.008
REMARK  14 active torsions:
REMARK  status: ('A' for Active; 'I' for Inactive)
REMARK    1  A    between atoms: C_6  and  C_8 
REMARK    2  A    between atoms: C_13  and  O_15 
REMARK    3  A    between atoms: C_14  and  O_31 
REMARK    4  A    between atoms: C_23  and  C_17 
REMARK    5  A    between atoms: C_17  and  C_18 
REMARK    6  A    between atoms: C_18  and  C_19 
REMARK    7  A    between atoms: C_19  and  C_22 
REMARK    8  A    between atoms: C_22  and  C_27 
REMARK    9  A    between atoms: C_27  and  O_28 
REMARK   10  A    between atoms: C_29  and  O_30 
REMARK   11  A    between atoms: O_31  and  C_32 
REMARK   12  A    between atoms: C_32  and  C_33 
REMARK   13  A    between atoms: C_33  and  C_34 
REMARK   14  A    between atoms: C_34  and  O_35 
ROOT
HETATM    1  C   UNK N   1      35.347  11.413  18.205  0.00  0.00     0.010 C 
HETATM    2  C   UNK N   1      36.123  12.320  15.498  0.00  0.00    -0.075 C 
HETATM    3  C   UNK N   1      36.719   9.845  15.069  0.00  0.00     0.010 C 
HETATM    4  C   UNK N   1      36.636   8.586  15.951  0.00  0.00     0.006 C 
HETATM    5  C   UNK N   1      35.071  12.865  17.709  0.00  0.00     0.005 C 
HETATM    6  C   UNK N   1      36.774  12.817  14.445  0.00  0.00     0.004 C 
HETATM    7  C   UNK N   1      34.976  13.037  16.170  0.00  0.00     0.034 C 
HETATM    8  C   UNK N   1      36.114   9.027  17.334  0.00  0.00    -0.002 C 
HETATM    9  C   UNK N   1      36.558  10.993  16.050  0.00  0.00     0.023 C 
HETATM   10  C   UNK N   1      35.545  10.431  17.043  0.00  0.00    -0.033 C 
HETATM   11  C   UNK N   1      34.165  10.226  16.374  0.00  0.00     0.016 C 
ENDROOT
BRANCH   6  12
HETATM   12  C   UNK N   1      36.432  14.065  13.747  0.00  0.00     0.008 C 
HETATM   13  C   UNK N   1      36.239  14.099  12.411  0.00  0.00    -0.048 C 
HETATM   14  C   UNK N   1      36.317  12.894  11.510  0.00  0.00    -0.030 C 
HETATM   15  C   UNK N   1      35.843  15.412  11.789  0.00  0.00     0.073 C 
HETATM   16  C   UNK N   1      35.364  12.814  10.355  0.00  0.00     0.182 C 
HETATM   17  C   UNK N   1      36.916  11.755  11.879  0.00  0.00     0.022 C 
HETATM   18  C   UNK N   1      35.091  14.178   9.715  0.00  0.00     0.183 C 
HETATM   19  C   UNK N   1      34.728  15.249  10.755  0.00  0.00     0.154 C 
BRANCH  16  20
HETATM   20  O   UNK N   1      34.169  12.230  10.780  0.00  0.00    -0.388 OA
HETATM   21  H   UNK N   1      33.298  12.076  11.176  0.00  0.00     0.210 HD
ENDBRANCH  16  20
BRANCH  18  22
HETATM   22  O   UNK N   1      36.208  14.555   8.958  0.00  0.00    -0.380 OA
BRANCH  22  23
HETATM   23  C   UNK N   1      36.031  13.981   7.685  0.00  0.00     0.170 C 
BRANCH  23  24
HETATM   24  C   UNK N   1      34.727  14.433   7.020  0.00  0.00     0.052 C 
BRANCH  24  25
HETATM   25  C   UNK N   1      34.981  15.431   5.905  0.00  0.00     0.166 C 
BRANCH  25  26
HETATM   26  O   UNK N   1      34.700  16.717   6.363  0.00  0.00    -0.401 OA
HETATM   27  H   UNK N   1      35.328  17.317   6.794  0.00  0.00     0.209 HD
ENDBRANCH  25  26
ENDBRANCH  24  25
ENDBRANCH  23  24
ENDBRANCH  22  23
ENDBRANCH  18  22
BRANCH  19  28
HETATM   28  O   UNK N   1      33.526  14.931  11.391  0.00  0.00    -0.393 OA
HETATM   29  H   UNK N   1      32.653  14.519  11.485  0.00  0.00     0.210 HD
ENDBRANCH  19  28
ENDBRANCH   6  12
BRANCH   8  30
HETATM   30  C   UNK N   1      37.203   8.919  18.440  0.00  0.00    -0.014 C 
HETATM   31  C   UNK N   1      38.332   7.919  18.234  0.00  0.00     0.010 C 
BRANCH  30  32
HETATM   32  C   UNK N   1      36.627   8.810  19.863  0.00  0.00     0.005 C 
BRANCH  32  33
HETATM   33  C   UNK N   1      35.410   7.894  19.971  0.00  0.00     0.003 C 
BRANCH  33  34
HETATM   34  C   UNK N   1      34.670   8.105  21.288  0.00  0.00     0.037 C 
BRANCH  34  35
HETATM   35  C   UNK N   1      33.337   8.836  21.109  0.00  0.00     0.051 C 
HETATM   36  C   UNK N   1      32.886   8.777  19.660  0.00  0.00     0.045 C 
HETATM   37  C   UNK N   1      33.454  10.288  21.542  0.00  0.00     0.045 C 
BRANCH  35  38
HETATM   38  O   UNK N   1      32.376   8.212  21.902  0.00  0.00    -0.391 OA
HETATM   39  H   UNK N   1      31.459   7.907  21.826  0.00  0.00     0.210 HD
ENDBRANCH  35  38
ENDBRANCH  34  35
ENDBRANCH  33  34
ENDBRANCH  32  33
ENDBRANCH  30  32
ENDBRANCH   8  30
TORSDOF 14
ENDMDL
MODEL 6
REMARK VINA RESULT:      -7.0      7.627     15.461
REMARK  14 active torsions:
REMARK  status: ('A' for Active; 'I' for Inactive)
REMARK    1  A    between atoms: C_6  and  C_8 
REMARK    2  A    between atoms: C_13  and  O_15 
REMARK    3  A    between atoms: C_14  and  O_31 
REMARK    4  A    between atoms: C_23  and  C_17 
REMARK    5  A    between atoms: C_17  and  C_18 
REMARK    6  A    between atoms: C_18  and  C_19 
REMARK    7  A    between atoms: C_19  and  C_22 
REMARK    8  A    between atoms: C_22  and  C_27 
REMARK    9  A    between atoms: C_27  and  O_28 
REMARK   10  A    between atoms: C_29  and  O_30 
REMARK   11  A    between atoms: O_31  and  C_32 
REMARK   12  A    between atoms: C_32  and  C_33 
REMARK   13  A    between atoms: C_33  and  C_34 
REMARK   14  A    between atoms: C_34  and  O_35 
ROOT
HETATM    1  C   UNK N   1      35.385   7.057  18.362  0.00  0.00     0.010 C 
HETATM    2  C   UNK N   1      35.016   9.465  16.686  0.00  0.00    -0.075 C 
HETATM    3  C   UNK N   1      34.889  10.746  18.925  0.00  0.00     0.010 C 
HETATM    4  C   UNK N   1      34.987  10.290  20.391  0.00  0.00     0.006 C 
HETATM    5  C   UNK N   1      35.532   7.014  16.811  0.00  0.00     0.005 C 
HETATM    6  C   UNK N   1      34.512  10.440  15.926  0.00  0.00     0.004 C 
HETATM    7  C   UNK N   1      35.893   8.365  16.138  0.00  0.00     0.034 C 
HETATM    8  C   UNK N   1      35.164   8.757  20.387  0.00  0.00    -0.002 C 
HETATM    9  C   UNK N   1      34.685   9.455  18.151  0.00  0.00     0.023 C 
HETATM   10  C   UNK N   1      35.562   8.473  18.924  0.00  0.00    -0.033 C 
HETATM   11  C   UNK N   1      37.059   8.838  18.787  0.00  0.00     0.016 C 
ENDROOT
BRANCH   6  12
HETATM   12  C   UNK N   1      34.791  10.631  14.496  0.00  0.00     0.008 C 
HETATM   13  C   UNK N   1      35.119  11.840  13.994  0.00  0.00    -0.048 C 
HETATM   14  C   UNK N   1      35.265  13.092  14.821  0.00  0.00    -0.030 C 
HETATM   15  C   UNK N   1      35.437  11.933  12.525  0.00  0.00     0.073 C 
HETATM   16  C   UNK N   1      36.339  14.068  14.439  0.00  0.00     0.182 C 
HETATM   17  C   UNK N   1      34.756  13.206  16.053  0.00  0.00     0.022 C 
HETATM   18  C   UNK N   1      36.531  14.176  12.924  0.00  0.00     0.183 C 
HETATM   19  C   UNK N   1      36.667  12.800  12.252  0.00  0.00     0.154 C 
BRANCH  16  20
HETATM   20  O   UNK N   1      37.537  13.703  15.056  0.00  0.00    -0.388 OA
HETATM   21  H   UNK N   1      38.460  13.456  15.224  0.00  0.00     0.210 HD
ENDBRANCH  16  20
BRANCH  18  22
HETATM   22  O   UNK N   1      35.467  14.910  12.383  0.00  0.00    -0.380 OA
BRANCH  22  23
HETATM   23  C   UNK N   1      36.009  15.669  11.329  0.00  0.00     0.170 C 
BRANCH  23  24
HETATM   24  C   UNK N   1      35.091  15.699  10.104  0.00  0.00     0.052 C 
BRANCH  24  25
HETATM   25  C   UNK N   1      34.022  14.624  10.176  0.00  0.00     0.166 C 
BRANCH  25  26
HETATM   26  O   UNK N   1      33.004  15.041  11.031  0.00  0.00    -0.401 OA
HETATM   27  H   UNK N   1      32.513  15.876  10.967  0.00  0.00     0.209 HD
ENDBRANCH  25  26
ENDBRANCH  24  25
ENDBRANCH  23  24
ENDBRANCH  22  23
ENDBRANCH  18  22
BRANCH  19  28
HETATM   28  O   UNK N   1      37.821  12.149  12.691  0.00  0.00    -0.393 OA
HETATM   29  H   UNK N   1      38.345  11.419  13.057  0.00  0.00     0.210 HD
ENDBRANCH  19  28
ENDBRANCH   6  12
BRANCH   8  30
HETATM   30  C   UNK N   1      33.912   8.015  20.937  0.00  0.00    -0.014 C 
HETATM   31  C   UNK N   1      32.573   8.737  20.878  0.00  0.00     0.010 C 
BRANCH  30  32
HETATM   32  C   UNK N   1      34.131   7.379  22.320  0.00  0.00     0.005 C 
BRANCH  32  33
HETATM   33  C   UNK N   1      34.927   8.254  23.286  0.00  0.00     0.003 C 
BRANCH  33  34
HETATM   34  C   UNK N   1      34.175   8.466  24.595  0.00  0.00     0.037 C 
BRANCH  34  35
HETATM   35  C   UNK N   1      33.415   9.794  24.635  0.00  0.00     0.051 C 
HETATM   36  C   UNK N   1      33.697  10.532  25.932  0.00  0.00     0.045 C 
HETATM   37  C   UNK N   1      31.919   9.566  24.501  0.00  0.00     0.045 C 
BRANCH  35  38
HETATM   38  O   UNK N   1      33.842  10.584  23.569  0.00  0.00    -0.391 OA
HETATM   39  H   UNK N   1      33.906  11.525  23.343  0.00  0.00     0.210 HD
ENDBRANCH  35  38
ENDBRANCH  34  35
ENDBRANCH  33  34
ENDBRANCH  32  33
ENDBRANCH  30  32
ENDBRANCH   8  30
TORSDOF 14
ENDMDL
MODEL 7
REMARK VINA RESULT:      -6.9      3.893     12.181
REMARK  14 active torsions:
REMARK  status: ('A' for Active; 'I' for Inactive)
REMARK    1  A    between atoms: C_6  and  C_8 
REMARK    2  A    between atoms: C_13  and  O_15 
REMARK    3  A    between atoms: C_14  and  O_31 
REMARK    4  A    between atoms: C_23  and  C_17 
REMARK    5  A    between atoms: C_17  and  C_18 
REMARK    6  A    between atoms: C_18  and  C_19 
REMARK    7  A    between atoms: C_19  and  C_22 
REMARK    8  A    between atoms: C_22  and  C_27 
REMARK    9  A    between atoms: C_27  and  O_28 
REMARK   10  A    between atoms: C_29  and  O_30 
REMARK   11  A    between atoms: O_31  and  C_32 
REMARK   12  A    between atoms: C_32  and  C_33 
REMARK   13  A    between atoms: C_33  and  C_34 
REMARK   14  A    between atoms: C_34  and  O_35 
ROOT
HETATM    1  C   UNK N   1      35.178  10.937  12.292  0.00  0.00     0.010 C 
HETATM    2  C   UNK N   1      35.585  13.515  10.902  0.00  0.00    -0.075 C 
HETATM    3  C   UNK N   1      36.357  14.394  13.204  0.00  0.00     0.010 C 
HETATM    4  C   UNK N   1      36.487  13.724  14.583  0.00  0.00     0.006 C 
HETATM    5  C   UNK N   1      35.047  11.071  10.744  0.00  0.00     0.005 C 
HETATM    6  C   UNK N   1      35.419  14.710  10.332  0.00  0.00     0.004 C 
HETATM    7  C   UNK N   1      35.827  12.252  10.109  0.00  0.00     0.034 C 
HETATM    8  C   UNK N   1      36.007  12.265  14.434  0.00  0.00    -0.002 C 
HETATM    9  C   UNK N   1      35.515  13.419  12.399  0.00  0.00     0.023 C 
HETATM   10  C   UNK N   1      36.014  12.067  12.904  0.00  0.00    -0.033 C 
HETATM   11  C   UNK N   1      37.485  11.827  12.490  0.00  0.00     0.016 C 
ENDROOT
BRANCH   6  12
HETATM   12  C   UNK N   1      35.523  14.986   8.892  0.00  0.00     0.008 C 
HETATM   13  C   UNK N   1      34.448  15.351   8.162  0.00  0.00    -0.048 C 
HETATM   14  C   UNK N   1      33.063  15.543   8.725  0.00  0.00    -0.030 C 
HETATM   15  C   UNK N   1      34.658  15.663   6.704  0.00  0.00     0.073 C 
HETATM   16  C   UNK N   1      32.218  16.645   8.159  0.00  0.00     0.182 C 
HETATM   17  C   UNK N   1      32.691  15.045   9.910  0.00  0.00     0.022 C 
HETATM   18  C   UNK N   1      32.417  16.832   6.652  0.00  0.00     0.183 C 
HETATM   19  C   UNK N   1      33.903  16.918   6.265  0.00  0.00     0.154 C 
BRANCH  16  20
HETATM   20  O   UNK N   1      32.494  17.835   8.835  0.00  0.00    -0.388 OA
HETATM   21  H   UNK N   1      32.455  18.594   9.437  0.00  0.00     0.210 HD
ENDBRANCH  16  20
BRANCH  18  22
HETATM   22  O   UNK N   1      31.770  15.789   5.977  0.00  0.00    -0.380 OA
BRANCH  22  23
HETATM   23  C   UNK N   1      30.420  16.171   5.867  0.00  0.00     0.170 C 
BRANCH  23  24
HETATM   24  C   UNK N   1      30.240  17.431   5.014  0.00  0.00     0.052 C 
BRANCH  24  25
HETATM   25  C   UNK N   1      28.777  17.703   4.715  0.00  0.00     0.166 C 
BRANCH  25  26
HETATM   26  O   UNK N   1      28.642  18.996   4.214  0.00  0.00    -0.401 OA
HETATM   27  H   UNK N   1      27.818  19.507   4.171  0.00  0.00     0.209 HD
ENDBRANCH  25  26
ENDBRANCH  24  25
ENDBRANCH  23  24
ENDBRANCH  22  23
ENDBRANCH  18  22
BRANCH  19  28
HETATM   28  O   UNK N   1      34.492  18.053   6.824  0.00  0.00    -0.393 OA
HETATM   29  H   UNK N   1      34.626  19.003   6.973  0.00  0.00     0.210 HD
ENDBRANCH  19  28
ENDBRANCH   6  12
BRANCH   8  30
HETATM   30  C   UNK N   1      34.663  12.005  15.175  0.00  0.00    -0.014 C 
HETATM   31  C   UNK N   1      34.189  13.048  16.178  0.00  0.00     0.010 C 
BRANCH  30  32
HETATM   32  C   UNK N   1      34.547  10.589  15.762  0.00  0.00     0.005 C 
BRANCH  32  33
HETATM   33  C   UNK N   1      35.517  10.311  16.910  0.00  0.00     0.003 C 
BRANCH  33  34
HETATM   34  C   UNK N   1      34.779   9.855  18.164  0.00  0.00     0.037 C 
BRANCH  34  35
HETATM   35  C   UNK N   1      35.382  10.428  19.449  0.00  0.00     0.051 C 
HETATM   36  C   UNK N   1      35.395  11.946  19.402  0.00  0.00     0.045 C 
HETATM   37  C   UNK N   1      36.799   9.919  19.656  0.00  0.00     0.045 C 
BRANCH  35  38
HETATM   38  O   UNK N   1      34.602  10.020  20.529  0.00  0.00    -0.391 OA
HETATM   39  H   UNK N   1      34.364  10.338  21.414  0.00  0.00     0.210 HD
ENDBRANCH  35  38
ENDBRANCH  34  35
ENDBRANCH  33  34
ENDBRANCH  32  33
ENDBRANCH  30  32
ENDBRANCH   8  30
TORSDOF 14
ENDMDL
MODEL 8
REMARK VINA RESULT:      -6.7      8.032     13.986
REMARK  14 active torsions:
REMARK  status: ('A' for Active; 'I' for Inactive)
REMARK    1  A    between atoms: C_6  and  C_8 
REMARK    2  A    between atoms: C_13  and  O_15 
REMARK    3  A    between atoms: C_14  and  O_31 
REMARK    4  A    between atoms: C_23  and  C_17 
REMARK    5  A    between atoms: C_17  and  C_18 
REMARK    6  A    between atoms: C_18  and  C_19 
REMARK    7  A    between atoms: C_19  and  C_22 
REMARK    8  A    between atoms: C_22  and  C_27 
REMARK    9  A    between atoms: C_27  and  O_28 
REMARK   10  A    between atoms: C_29  and  O_30 
REMARK   11  A    between atoms: O_31  and  C_32 
REMARK   12  A    between atoms: C_32  and  C_33 
REMARK   13  A    between atoms: C_33  and  C_34 
REMARK   14  A    between atoms: C_34  and  O_35 
ROOT
HETATM    1  C   UNK N   1      36.512  10.402  14.698  0.00  0.00     0.010 C 
HETATM    2  C   UNK N   1      36.104  10.051  17.606  0.00  0.00    -0.075 C 
HETATM    3  C   UNK N   1      35.007  12.387  17.520  0.00  0.00     0.010 C 
HETATM    4  C   UNK N   1      34.758  13.379  16.370  0.00  0.00     0.006 C 
HETATM    5  C   UNK N   1      36.817   9.054  15.418  0.00  0.00     0.005 C 
HETATM    6  C   UNK N   1      36.258  10.005  18.931  0.00  0.00     0.004 C 
HETATM    7  C   UNK N   1      36.043   8.815  16.741  0.00  0.00     0.034 C 
HETATM    8  C   UNK N   1      35.348  12.754  15.088  0.00  0.00    -0.002 C 
HETATM    9  C   UNK N   1      36.001  11.395  16.942  0.00  0.00     0.023 C 
HETATM   10  C   UNK N   1      35.536  11.278  15.493  0.00  0.00    -0.033 C 
HETATM   11  C   UNK N   1      34.144  10.609  15.408  0.00  0.00     0.016 C 
ENDROOT
BRANCH   6  12
HETATM   12  C   UNK N   1      36.308   8.777  19.737  0.00  0.00     0.008 C 
HETATM   13  C   UNK N   1      35.468   8.576  20.774  0.00  0.00    -0.048 C 
HETATM   14  C   UNK N   1      34.390   9.543  21.194  0.00  0.00    -0.030 C 
HETATM   15  C   UNK N   1      35.558   7.266  21.512  0.00  0.00     0.073 C 
HETATM   16  C   UNK N   1      33.095   8.979  21.698  0.00  0.00     0.182 C 
HETATM   17  C   UNK N   1      34.384  10.825  20.814  0.00  0.00     0.022 C 
HETATM   18  C   UNK N   1      33.282   7.703  22.523  0.00  0.00     0.183 C 
HETATM   19  C   UNK N   1      34.180   6.676  21.814  0.00  0.00     0.154 C 
BRANCH  16  20
HETATM   20  O   UNK N   1      32.244   8.737  20.617  0.00  0.00    -0.388 OA
HETATM   21  H   UNK N   1      31.721   8.828  19.806  0.00  0.00     0.210 HD
ENDBRANCH  16  20
BRANCH  18  22
HETATM   22  O   UNK N   1      33.791   8.048  23.782  0.00  0.00    -0.380 OA
BRANCH  22  23
HETATM   23  C   UNK N   1      32.785   8.798  24.420  0.00  0.00     0.170 C 
BRANCH  23  24
HETATM   24  C   UNK N   1      33.317  10.118  24.987  0.00  0.00     0.052 C 
BRANCH  24  25
HETATM   25  C   UNK N   1      34.721   9.966  25.543  0.00  0.00     0.166 C 
BRANCH  25  26
HETATM   26  O   UNK N   1      35.646  10.129  24.514  0.00  0.00    -0.401 OA
HETATM   27  H   UNK N   1      36.010  10.974  24.205  0.00  0.00     0.209 HD
ENDBRANCH  25  26
ENDBRANCH  24  25
ENDBRANCH  23  24
ENDBRANCH  22  23
ENDBRANCH  18  22
BRANCH  19  28
HETATM   28  O   UNK N   1      33.581   6.227  20.636  0.00  0.00    -0.393 OA
HETATM   29  H   UNK N   1      33.498   5.699  19.826  0.00  0.00     0.210 HD
ENDBRANCH  19  28
ENDBRANCH   6  12
BRANCH   8  30
HETATM   30  C   UNK N   1      36.608  13.516  14.584  0.00  0.00    -0.014 C 
HETATM   31  C   UNK N   1      37.012  14.788  15.316  0.00  0.00     0.010 C 
BRANCH  30  32
HETATM   32  C   UNK N   1      36.629  13.731  13.061  0.00  0.00     0.005 C 
BRANCH  32  33
HETATM   33  C   UNK N   1      35.246  13.918  12.441  0.00  0.00     0.003 C 
BRANCH  33  34
HETATM   34  C   UNK N   1      35.200  15.149  11.541  0.00  0.00     0.037 C 
BRANCH  34  35
HETATM   35  C   UNK N   1      34.146  15.039  10.438  0.00  0.00     0.051 C 
HETATM   36  C   UNK N   1      34.348  13.769   9.630  0.00  0.00     0.045 C 
HETATM   37  C   UNK N   1      34.207  16.241   9.509  0.00  0.00     0.045 C 
BRANCH  35  38
HETATM   38  O   UNK N   1      32.885  14.998  11.028  0.00  0.00    -0.391 OA
HETATM   39  H   UNK N   1      32.403  15.442  11.743  0.00  0.00     0.210 HD
ENDBRANCH  35  38
ENDBRANCH  34  35
ENDBRANCH  33  34
ENDBRANCH  32  33
ENDBRANCH  30  32
ENDBRANCH   8  30
TORSDOF 14
ENDMDL
MODEL 9
REMARK VINA RESULT:      -6.6      4.955     11.742
REMARK  14 active torsions:
REMARK  status: ('A' for Active; 'I' for Inactive)
REMARK    1  A    between atoms: C_6  and  C_8 
REMARK    2  A    between atoms: C_13  and  O_15 
REMARK    3  A    between atoms: C_14  and  O_31 
REMARK    4  A    between atoms: C_23  and  C_17 
REMARK    5  A    between atoms: C_17  and  C_18 
REMARK    6  A    between atoms: C_18  and  C_19 
REMARK    7  A    between atoms: C_19  and  C_22 
REMARK    8  A    between atoms: C_22  and  C_27 
REMARK    9  A    between atoms: C_27  and  O_28 
REMARK   10  A    between atoms: C_29  and  O_30 
REMARK   11  A    between atoms: O_31  and  C_32 
REMARK   12  A    between atoms: C_32  and  C_33 
REMARK   13  A    between atoms: C_33  and  C_34 
REMARK   14  A    between atoms: C_34  and  O_35 
ROOT
HETATM    1  C   UNK N   1      34.999  11.075  12.156  0.00  0.00     0.010 C 
HETATM    2  C   UNK N   1      35.550  13.660  10.829  0.00  0.00    -0.075 C 
HETATM    3  C   UNK N   1      36.377  14.435  13.149  0.00  0.00     0.010 C 
HETATM    4  C   UNK N   1      36.471  13.724  14.511  0.00  0.00     0.006 C 
HETATM    5  C   UNK N   1      34.872  11.255  10.613  0.00  0.00     0.005 C 
HETATM    6  C   UNK N   1      35.452  14.877  10.289  0.00  0.00     0.004 C 
HETATM    7  C   UNK N   1      35.717  12.406  10.004  0.00  0.00     0.034 C 
HETATM    8  C   UNK N   1      35.907  12.300  14.327  0.00  0.00    -0.002 C 
HETATM    9  C   UNK N   1      35.479  13.530  12.323  0.00  0.00     0.023 C 
HETATM   10  C   UNK N   1      35.900  12.140  12.793  0.00  0.00    -0.033 C 
HETATM   11  C   UNK N   1      37.354  11.827  12.368  0.00  0.00     0.016 C 
ENDROOT
BRANCH   6  12
HETATM   12  C   UNK N   1      35.568  15.182   8.856  0.00  0.00     0.008 C 
HETATM   13  C   UNK N   1      34.486  15.472   8.104  0.00  0.00    -0.048 C 
HETATM   14  C   UNK N   1      33.077  15.547   8.635  0.00  0.00    -0.030 C 
HETATM   15  C   UNK N   1      34.705  15.822   6.656  0.00  0.00     0.073 C 
HETATM   16  C   UNK N   1      32.162  16.588   8.063  0.00  0.00     0.182 C 
HETATM   17  C   UNK N   1      32.717  15.003   9.803  0.00  0.00     0.022 C 
HETATM   18  C   UNK N   1      32.381  16.813   6.564  0.00  0.00     0.183 C 
HETATM   19  C   UNK N   1      33.864  17.021   6.216  0.00  0.00     0.154 C 
BRANCH  16  20
HETATM   20  O   UNK N   1      32.327  17.785   8.762  0.00  0.00    -0.388 OA
HETATM   21  H   UNK N   1      32.581  18.452   9.418  0.00  0.00     0.210 HD
ENDBRANCH  16  20
BRANCH  18  22
HETATM   22  O   UNK N   1      31.834  15.733   5.859  0.00  0.00    -0.380 OA
BRANCH  22  23
HETATM   23  C   UNK N   1      31.956  16.053   4.494  0.00  0.00     0.170 C 
BRANCH  23  24
HETATM   24  C   UNK N   1      32.345  14.839   3.645  0.00  0.00     0.052 C 
BRANCH  24  25
HETATM   25  C   UNK N   1      33.735  14.988   3.053  0.00  0.00     0.166 C 
BRANCH  25  26
HETATM   26  O   UNK N   1      33.783  14.339   1.820  0.00  0.00    -0.401 OA
HETATM   27  H   UNK N   1      33.080  13.792   1.437  0.00  0.00     0.209 HD
ENDBRANCH  25  26
ENDBRANCH  24  25
ENDBRANCH  23  24
ENDBRANCH  22  23
ENDBRANCH  18  22
BRANCH  19  28
HETATM   28  O   UNK N   1      34.349  18.190   6.804  0.00  0.00    -0.393 OA
HETATM   29  H   UNK N   1      34.322  18.976   7.373  0.00  0.00     0.210 HD
ENDBRANCH  19  28
ENDBRANCH   6  12
BRANCH   8  30
HETATM   30  C   UNK N   1      34.553  12.099  15.066  0.00  0.00    -0.014 C 
HETATM   31  C   UNK N   1      34.249  13.000  16.256  0.00  0.00     0.010 C 
BRANCH  30  32
HETATM   32  C   UNK N   1      34.245  10.630  15.400  0.00  0.00     0.005 C 
BRANCH  32  33
HETATM   33  C   UNK N   1      35.471   9.817  15.812  0.00  0.00     0.003 C 
BRANCH  33  34
HETATM   34  C   UNK N   1      35.650   8.590  14.924  0.00  0.00     0.037 C 
BRANCH  34  35
HETATM   35  C   UNK N   1      37.109   8.347  14.534  0.00  0.00     0.051 C 
HETATM   36  C   UNK N   1      37.554   6.962  14.970  0.00  0.00     0.045 C 
HETATM   37  C   UNK N   1      38.019   9.388  15.164  0.00  0.00     0.045 C 
BRANCH  35  38
HETATM   38  O   UNK N   1      37.222   8.438  13.149  0.00  0.00    -0.391 OA
HETATM   39  H   UNK N   1      36.705   8.208  12.361  0.00  0.00     0.210 HD
ENDBRANCH  35  38
ENDBRANCH  34  35
ENDBRANCH  33  34
ENDBRANCH  32  33
ENDBRANCH  30  32
ENDBRANCH   8  30
TORSDOF 14
ENDMDL
