MODEL 1
REMARK VINA RESULT:      -7.8      0.000      0.000
REMARK  5 active torsions:
REMARK  status: ('A' for Active; 'I' for Inactive)
REMARK    1  A    between atoms: C_9  and  O_1 
REMARK    2  A    between atoms: O_3  and  C_25 
REMARK    3  A    between atoms: O_3  and  C_27 
REMARK    4  A    between atoms: C_9  and  C_20 
REMARK    5  A    between atoms: C_20  and  C_25 
ROOT
HETATM    1  O   UNK N   1      31.981  17.191   2.592  0.00  0.00    -0.293 OA
HETATM    2  C   UNK N   1      35.709  14.315   9.565  0.00  0.00     0.002 C 
HETATM    3  C   UNK N   1      35.131  15.717   9.423  0.00  0.00     0.006 C 
HETATM    4  C   UNK N   1      33.975  15.738   8.416  0.00  0.00     0.020 C 
HETATM    5  C   UNK N   1      36.660  14.508  10.775  0.00  0.00     0.128 C 
HETATM    6  C   UNK N   1      34.787  16.117  10.843  0.00  0.00     0.009 C 
HETATM    7  C   UNK N   1      35.905  15.493  11.682  0.00  0.00     0.047 C 
HETATM    8  C   UNK N   1      36.380  13.939   8.230  0.00  0.00     0.040 C 
HETATM    9  C   UNK N   1      34.427  15.114   7.089  0.00  0.00    -0.067 C 
HETATM   10  C   UNK N   1      33.612  15.457   5.855  0.00  0.00     0.003 C 
HETATM   11  C   UNK N   1      33.427  17.171   8.236  0.00  0.00     0.014 C 
HETATM   12  C   UNK N   1      34.603  13.290   9.869  0.00  0.00     0.019 C 
HETATM   13  C   UNK N   1      35.534  14.325   7.017  0.00  0.00    -0.022 C 
HETATM   14  C   UNK N   1      33.902  17.825   6.942  0.00  0.00     0.036 C 
HETATM   15  C   UNK N   1      33.466  16.971   5.783  0.00  0.00    -0.064 C 
HETATM   16  C   UNK N   1      34.203  14.972   4.521  0.00  0.00     0.026 C 
HETATM   17  C   UNK N   1      32.232  14.823   6.032  0.00  0.00     0.025 C 
HETATM   18  C   UNK N   1      33.279  15.353   3.340  0.00  0.00     0.084 C 
HETATM   19  C   UNK N   1      32.946  17.548   4.691  0.00  0.00     0.054 C 
HETATM   20  C   UNK N   1      32.669  16.733   3.489  0.00  0.00     0.149 C 
ENDROOT
BRANCH   5  21
HETATM   21  O   UNK N   1      37.825  15.155  10.339  0.00  0.00    -0.381 OA
HETATM   22  H   UNK N   1      38.522  15.783  10.093  0.00  0.00     0.211 HD
ENDBRANCH   5  21
BRANCH   5  23
HETATM   23  C   UNK N   1      37.042  13.251  11.553  0.00  0.00     0.185 C 
HETATM   24  O   UNK N   1      37.813  12.441  11.061  0.00  0.00    -0.292 OA
BRANCH  23  25
HETATM   25  C   UNK N   1      36.538  12.998  12.955  0.00  0.00     0.260 C 
BRANCH  25  26
HETATM   26  O   UNK N   1      35.254  12.484  12.950  0.00  0.00    -0.314 OA
BRANCH  26  27
HETATM   27  C   UNK N   1      34.566  12.131  14.068  0.00  0.00     0.255 C 
HETATM   28  O   UNK N   1      34.376  12.961  14.941  0.00  0.00    -0.266 OA
HETATM   29  C   UNK N   1      34.042  10.743  14.259  0.00  0.00     0.126 C 
ENDBRANCH  26  27
ENDBRANCH  25  26
ENDBRANCH  23  25
ENDBRANCH   5  23
TORSDOF 5
ENDMDL
MODEL 2
REMARK VINA RESULT:      -7.8      2.446      9.020
REMARK  5 active torsions:
REMARK  status: ('A' for Active; 'I' for Inactive)
REMARK    1  A    between atoms: C_9  and  O_1 
REMARK    2  A    between atoms: O_3  and  C_25 
REMARK    3  A    between atoms: O_3  and  C_27 
REMARK    4  A    between atoms: C_9  and  C_20 
REMARK    5  A    between atoms: C_20  and  C_25 
ROOT
HETATM    1  O   UNK N   1      36.421   9.210  18.077  0.00  0.00    -0.293 OA
HETATM    2  C   UNK N   1      35.754  14.306  11.416  0.00  0.00     0.002 C 
HETATM    3  C   UNK N   1      36.569  13.019  11.427  0.00  0.00     0.006 C 
HETATM    4  C   UNK N   1      35.988  12.006  12.421  0.00  0.00     0.020 C 
HETATM    5  C   UNK N   1      36.377  15.040  10.199  0.00  0.00     0.128 C 
HETATM    6  C   UNK N   1      36.597  12.590   9.975  0.00  0.00     0.009 C 
HETATM    7  C   UNK N   1      36.678  13.908   9.202  0.00  0.00     0.047 C 
HETATM    8  C   UNK N   1      35.930  14.993  12.783  0.00  0.00     0.040 C 
HETATM    9  C   UNK N   1      35.834  12.659  13.801  0.00  0.00    -0.067 C 
HETATM   10  C   UNK N   1      35.727  11.725  14.994  0.00  0.00     0.003 C 
HETATM   11  C   UNK N   1      36.848  10.724  12.468  0.00  0.00     0.014 C 
HETATM   12  C   UNK N   1      34.260  14.011  11.198  0.00  0.00     0.019 C 
HETATM   13  C   UNK N   1      35.839  14.011  13.951  0.00  0.00    -0.022 C 
HETATM   14  C   UNK N   1      37.745  10.661  13.701  0.00  0.00     0.036 C 
HETATM   15  C   UNK N   1      36.879  10.731  14.929  0.00  0.00    -0.064 C 
HETATM   16  C   UNK N   1      35.768  12.410  16.370  0.00  0.00     0.026 C 
HETATM   17  C   UNK N   1      34.402  10.975  14.866  0.00  0.00     0.025 C 
HETATM   18  C   UNK N   1      35.626  11.370  17.506  0.00  0.00     0.084 C 
HETATM   19  C   UNK N   1      37.123   9.912  15.962  0.00  0.00     0.054 C 
HETATM   20  C   UNK N   1      36.384  10.087  17.230  0.00  0.00     0.149 C 
ENDROOT
BRANCH   5  21
HETATM   21  O   UNK N   1      37.607  15.593  10.583  0.00  0.00    -0.381 OA
HETATM   22  H   UNK N   1      38.338  16.069  11.006  0.00  0.00     0.211 HD
ENDBRANCH   5  21
BRANCH   5  23
HETATM   23  C   UNK N   1      35.522  16.120   9.540  0.00  0.00     0.185 C 
HETATM   24  O   UNK N   1      35.384  17.204  10.085  0.00  0.00    -0.292 OA
BRANCH  23  25
HETATM   25  C   UNK N   1      34.878  15.910   8.189  0.00  0.00     0.260 C 
BRANCH  25  26
HETATM   26  O   UNK N   1      34.830  17.084   7.459  0.00  0.00    -0.314 OA
BRANCH  26  27
HETATM   27  C   UNK N   1      33.683  17.663   7.013  0.00  0.00     0.255 C 
HETATM   28  O   UNK N   1      33.550  17.886   5.822  0.00  0.00    -0.266 OA
HETATM   29  C   UNK N   1      32.582  18.042   7.952  0.00  0.00     0.126 C 
ENDBRANCH  26  27
ENDBRANCH  25  26
ENDBRANCH  23  25
ENDBRANCH   5  23
TORSDOF 5
ENDMDL
MODEL 3
REMARK VINA RESULT:      -7.7      2.878      9.455
REMARK  5 active torsions:
REMARK  status: ('A' for Active; 'I' for Inactive)
REMARK    1  A    between atoms: C_9  and  O_1 
REMARK    2  A    between atoms: O_3  and  C_25 
REMARK    3  A    between atoms: O_3  and  C_27 
REMARK    4  A    between atoms: C_9  and  C_20 
REMARK    5  A    between atoms: C_20  and  C_25 
ROOT
HETATM    1  O   UNK N   1      35.342   9.915  20.067  0.00  0.00    -0.293 OA
HETATM    2  C   UNK N   1      35.407  12.924  12.210  0.00  0.00     0.002 C 
HETATM    3  C   UNK N   1      35.597  13.782  13.454  0.00  0.00     0.006 C 
HETATM    4  C   UNK N   1      36.215  12.969  14.597  0.00  0.00     0.020 C 
HETATM    5  C   UNK N   1      35.015  14.000  11.165  0.00  0.00     0.128 C 
HETATM    6  C   UNK N   1      36.406  14.964  12.963  0.00  0.00     0.009 C 
HETATM    7  C   UNK N   1      35.870  15.218  11.552  0.00  0.00     0.047 C 
HETATM    8  C   UNK N   1      34.336  11.862  12.524  0.00  0.00     0.040 C 
HETATM    9  C   UNK N   1      35.390  11.697  14.838  0.00  0.00    -0.067 C 
HETATM   10  C   UNK N   1      35.549  11.020  16.187  0.00  0.00     0.003 C 
HETATM   11  C   UNK N   1      36.356  13.828  15.872  0.00  0.00     0.014 C 
HETATM   12  C   UNK N   1      36.716  12.210  11.827  0.00  0.00     0.019 C 
HETATM   13  C   UNK N   1      34.523  11.226  13.900  0.00  0.00    -0.022 C 
HETATM   14  C   UNK N   1      35.279  13.526  16.910  0.00  0.00     0.036 C 
HETATM   15  C   UNK N   1      35.359  12.069  17.276  0.00  0.00    -0.064 C 
HETATM   16  C   UNK N   1      34.571   9.866  16.464  0.00  0.00     0.026 C 
HETATM   17  C   UNK N   1      36.974  10.472  16.255  0.00  0.00     0.025 C 
HETATM   18  C   UNK N   1      34.841   9.237  17.851  0.00  0.00     0.084 C 
HETATM   19  C   UNK N   1      35.268  11.700  18.561  0.00  0.00     0.054 C 
HETATM   20  C   UNK N   1      35.181  10.266  18.910  0.00  0.00     0.149 C 
ENDROOT
BRANCH   5  21
HETATM   21  O   UNK N   1      33.673  14.356  11.361  0.00  0.00    -0.381 OA
HETATM   22  H   UNK N   1      32.707  14.396  11.437  0.00  0.00     0.211 HD
ENDBRANCH   5  21
BRANCH   5  23
HETATM   23  C   UNK N   1      35.232  13.640   9.697  0.00  0.00     0.185 C 
HETATM   24  O   UNK N   1      34.869  12.551   9.276  0.00  0.00    -0.292 OA
BRANCH  23  25
HETATM   25  C   UNK N   1      35.836  14.620   8.718  0.00  0.00     0.260 C 
BRANCH  25  26
HETATM   26  O   UNK N   1      34.879  15.159   7.878  0.00  0.00    -0.314 OA
BRANCH  26  27
HETATM   27  C   UNK N   1      34.575  16.483   7.812  0.00  0.00     0.255 C 
HETATM   28  O   UNK N   1      34.692  17.070   6.750  0.00  0.00    -0.266 OA
HETATM   29  C   UNK N   1      34.108  17.240   9.015  0.00  0.00     0.126 C 
ENDBRANCH  26  27
ENDBRANCH  25  26
ENDBRANCH  23  25
ENDBRANCH   5  23
TORSDOF 5
ENDMDL
MODEL 4
REMARK VINA RESULT:      -7.6     10.797     14.974
REMARK  5 active torsions:
REMARK  status: ('A' for Active; 'I' for Inactive)
REMARK    1  A    between atoms: C_9  and  O_1 
REMARK    2  A    between atoms: O_3  and  C_25 
REMARK    3  A    between atoms: O_3  and  C_27 
REMARK    4  A    between atoms: C_9  and  C_20 
REMARK    5  A    between atoms: C_20  and  C_25 
ROOT
HETATM    1  O   UNK N   1      23.444  11.256  11.880  0.00  0.00    -0.293 OA
HETATM    2  C   UNK N   1      21.931  16.150   5.206  0.00  0.00     0.002 C 
HETATM    3  C   UNK N   1      23.296  15.563   5.541  0.00  0.00     0.006 C 
HETATM    4  C   UNK N   1      23.156  14.247   6.314  0.00  0.00     0.020 C 
HETATM    5  C   UNK N   1      22.332  17.302   4.248  0.00  0.00     0.128 C 
HETATM    6  C   UNK N   1      23.999  15.480   4.202  0.00  0.00     0.009 C 
HETATM    7  C   UNK N   1      23.517  16.726   3.454  0.00  0.00     0.047 C 
HETATM    8  C   UNK N   1      21.256  16.570   6.525  0.00  0.00     0.040 C 
HETATM    9  C   UNK N   1      22.249  14.452   7.535  0.00  0.00    -0.067 C 
HETATM   10  C   UNK N   1      22.362  13.432   8.654  0.00  0.00     0.003 C 
HETATM   11  C   UNK N   1      24.542  13.683   6.698  0.00  0.00     0.014 C 
HETATM   12  C   UNK N   1      21.041  15.110   4.503  0.00  0.00     0.019 C 
HETATM   13  C   UNK N   1      21.416  15.524   7.627  0.00  0.00    -0.022 C 
HETATM   14  C   UNK N   1      24.890  13.923   8.164  0.00  0.00     0.036 C 
HETATM   15  C   UNK N   1      23.832  13.284   9.022  0.00  0.00    -0.064 C 
HETATM   16  C   UNK N   1      21.584  13.773   9.935  0.00  0.00     0.026 C 
HETATM   17  C   UNK N   1      21.839  12.102   8.110  0.00  0.00     0.025 C 
HETATM   18  C   UNK N   1      21.749  12.656  10.993  0.00  0.00     0.084 C 
HETATM   19  C   UNK N   1      24.190  12.580  10.105  0.00  0.00     0.054 C 
HETATM   20  C   UNK N   1      23.154  12.090  11.039  0.00  0.00     0.149 C 
ENDROOT
BRANCH   5  21
HETATM   21  O   UNK N   1      22.822  18.374   5.006  0.00  0.00    -0.381 OA
HETATM   22  H   UNK N   1      22.987  19.076   5.655  0.00  0.00     0.211 HD
ENDBRANCH   5  21
BRANCH   5  23
HETATM   23  C   UNK N   1      21.250  17.810   3.297  0.00  0.00     0.185 C 
HETATM   24  O   UNK N   1      21.117  17.298   2.196  0.00  0.00    -0.292 OA
BRANCH  23  25
HETATM   25  C   UNK N   1      20.286  18.902   3.700  0.00  0.00     0.260 C 
BRANCH  25  26
HETATM   26  O   UNK N   1      20.902  20.139   3.737  0.00  0.00    -0.314 OA
BRANCH  26  27
HETATM   27  C   UNK N   1      21.470  20.745   2.660  0.00  0.00     0.255 C 
HETATM   28  O   UNK N   1      22.592  21.210   2.759  0.00  0.00    -0.266 OA
HETATM   29  C   UNK N   1      20.746  20.863   1.356  0.00  0.00     0.126 C 
ENDBRANCH  26  27
ENDBRANCH  25  26
ENDBRANCH  23  25
ENDBRANCH   5  23
TORSDOF 5
ENDMDL
MODEL 5
REMARK VINA RESULT:      -7.5      4.159      5.907
REMARK  5 active torsions:
REMARK  status: ('A' for Active; 'I' for Inactive)
REMARK    1  A    between atoms: C_9  and  O_1 
REMARK    2  A    between atoms: O_3  and  C_25 
REMARK    3  A    between atoms: O_3  and  C_27 
REMARK    4  A    between atoms: C_9  and  C_20 
REMARK    5  A    between atoms: C_20  and  C_25 
ROOT
HETATM    1  O   UNK N   1      24.329  19.140   4.418  0.00  0.00    -0.293 OA
HETATM    2  C   UNK N   1      32.082  16.620   6.498  0.00  0.00     0.002 C 
HETATM    3  C   UNK N   1      31.273  17.636   7.294  0.00  0.00     0.006 C 
HETATM    4  C   UNK N   1      29.768  17.392   7.132  0.00  0.00     0.020 C 
HETATM    5  C   UNK N   1      33.516  16.919   7.008  0.00  0.00     0.128 C 
HETATM    6  C   UNK N   1      31.820  17.519   8.701  0.00  0.00     0.009 C 
HETATM    7  C   UNK N   1      33.314  17.256   8.495  0.00  0.00     0.047 C 
HETATM    8  C   UNK N   1      31.829  16.878   5.001  0.00  0.00     0.040 C 
HETATM    9  C   UNK N   1      29.406  17.337   5.641  0.00  0.00    -0.067 C 
HETATM   10  C   UNK N   1      27.950  17.572   5.279  0.00  0.00     0.003 C 
HETATM   11  C   UNK N   1      28.951  18.456   7.897  0.00  0.00     0.014 C 
HETATM   12  C   UNK N   1      31.647  15.183   6.834  0.00  0.00     0.019 C 
HETATM   13  C   UNK N   1      30.355  17.132   4.688  0.00  0.00    -0.022 C 
HETATM   14  C   UNK N   1      28.367  19.525   6.978  0.00  0.00     0.036 C 
HETATM   15  C   UNK N   1      27.487  18.854   5.958  0.00  0.00    -0.064 C 
HETATM   16  C   UNK N   1      27.659  17.699   3.775  0.00  0.00     0.026 C 
HETATM   17  C   UNK N   1      27.150  16.390   5.827  0.00  0.00     0.025 C 
HETATM   18  C   UNK N   1      26.147  17.909   3.523  0.00  0.00     0.084 C 
HETATM   19  C   UNK N   1      26.295  19.386   5.656  0.00  0.00     0.054 C 
HETATM   20  C   UNK N   1      25.501  18.826   4.542  0.00  0.00     0.149 C 
ENDROOT
BRANCH   5  21
HETATM   21  O   UNK N   1      33.990  18.079   6.380  0.00  0.00    -0.381 OA
HETATM   22  H   UNK N   1      34.112  18.898   5.875  0.00  0.00     0.211 HD
ENDBRANCH   5  21
BRANCH   5  23
HETATM   23  C   UNK N   1      34.546  15.803   6.849  0.00  0.00     0.185 C 
HETATM   24  O   UNK N   1      35.275  15.782   5.869  0.00  0.00    -0.292 OA
BRANCH  23  25
HETATM   25  C   UNK N   1      34.736  14.739   7.905  0.00  0.00     0.260 C 
BRANCH  25  26
HETATM   26  O   UNK N   1      35.849  14.988   8.687  0.00  0.00    -0.314 OA
BRANCH  26  27
HETATM   27  C   UNK N   1      35.803  15.295  10.010  0.00  0.00     0.255 C 
HETATM   28  O   UNK N   1      36.723  15.919  10.512  0.00  0.00    -0.266 OA
HETATM   29  C   UNK N   1      34.653  14.878  10.872  0.00  0.00     0.126 C 
ENDBRANCH  26  27
ENDBRANCH  25  26
ENDBRANCH  23  25
ENDBRANCH   5  23
TORSDOF 5
ENDMDL
MODEL 6
REMARK VINA RESULT:      -7.5      3.027      9.055
REMARK  5 active torsions:
REMARK  status: ('A' for Active; 'I' for Inactive)
REMARK    1  A    between atoms: C_9  and  O_1 
REMARK    2  A    between atoms: O_3  and  C_25 
REMARK    3  A    between atoms: O_3  and  C_27 
REMARK    4  A    between atoms: C_9  and  C_20 
REMARK    5  A    between atoms: C_20  and  C_25 
ROOT
HETATM    1  O   UNK N   1      36.673   8.755  18.325  0.00  0.00    -0.293 OA
HETATM    2  C   UNK N   1      35.357  13.504  11.506  0.00  0.00     0.002 C 
HETATM    3  C   UNK N   1      35.584  14.064  12.904  0.00  0.00     0.006 C 
HETATM    4  C   UNK N   1      36.442  13.113  13.747  0.00  0.00     0.020 C 
HETATM    5  C   UNK N   1      34.697  14.720  10.804  0.00  0.00     0.128 C 
HETATM    6  C   UNK N   1      36.161  15.442  12.658  0.00  0.00     0.009 C 
HETATM    7  C   UNK N   1      35.424  15.932  11.409  0.00  0.00     0.047 C 
HETATM    8  C   UNK N   1      34.485  12.241  11.635  0.00  0.00     0.040 C 
HETATM    9  C   UNK N   1      35.831  11.705  13.731  0.00  0.00    -0.067 C 
HETATM   10  C   UNK N   1      36.246  10.763  14.847  0.00  0.00     0.003 C 
HETATM   11  C   UNK N   1      36.626  13.658  15.180  0.00  0.00     0.014 C 
HETATM   12  C   UNK N   1      36.691  13.119  10.842  0.00  0.00     0.019 C 
HETATM   13  C   UNK N   1      34.925  11.336  12.785  0.00  0.00    -0.022 C 
HETATM   14  C   UNK N   1      35.737  12.951  16.198  0.00  0.00     0.036 C 
HETATM   15  C   UNK N   1      36.055  11.481  16.176  0.00  0.00    -0.064 C 
HETATM   16  C   UNK N   1      35.472   9.436  14.908  0.00  0.00     0.026 C 
HETATM   17  C   UNK N   1      37.728  10.449  14.648  0.00  0.00     0.025 C 
HETATM   18  C   UNK N   1      35.995   8.548  16.063  0.00  0.00     0.084 C 
HETATM   19  C   UNK N   1      36.175  10.810  17.330  0.00  0.00     0.054 C 
HETATM   20  C   UNK N   1      36.324   9.339  17.313  0.00  0.00     0.149 C 
ENDROOT
BRANCH   5  21
HETATM   21  O   UNK N   1      33.355  14.800  11.201  0.00  0.00    -0.381 OA
HETATM   22  H   UNK N   1      32.414  14.657  11.386  0.00  0.00     0.211 HD
ENDBRANCH   5  21
BRANCH   5  23
HETATM   23  C   UNK N   1      34.775  14.756   9.280  0.00  0.00     0.185 C 
HETATM   24  O   UNK N   1      34.269  13.859   8.622  0.00  0.00    -0.292 OA
BRANCH  23  25
HETATM   25  C   UNK N   1      35.417  15.909   8.543  0.00  0.00     0.260 C 
BRANCH  25  26
HETATM   26  O   UNK N   1      34.483  16.648   7.840  0.00  0.00    -0.314 OA
BRANCH  26  27
HETATM   27  C   UNK N   1      34.115  17.918   8.156  0.00  0.00     0.255 C 
HETATM   28  O   UNK N   1      34.975  18.765   8.327  0.00  0.00    -0.266 OA
HETATM   29  C   UNK N   1      32.677  18.301   8.309  0.00  0.00     0.126 C 
ENDBRANCH  26  27
ENDBRANCH  25  26
ENDBRANCH  23  25
ENDBRANCH   5  23
TORSDOF 5
ENDMDL
MODEL 7
REMARK VINA RESULT:      -7.5     14.164     17.064
REMARK  5 active torsions:
REMARK  status: ('A' for Active; 'I' for Inactive)
REMARK    1  A    between atoms: C_9  and  O_1 
REMARK    2  A    between atoms: O_3  and  C_25 
REMARK    3  A    between atoms: O_3  and  C_27 
REMARK    4  A    between atoms: C_9  and  C_20 
REMARK    5  A    between atoms: C_20  and  C_25 
ROOT
HETATM    1  O   UNK N   1      24.256  27.356  -5.690  0.00  0.00    -0.293 OA
HETATM    2  C   UNK N   1      30.950  22.516  -4.093  0.00  0.00     0.002 C 
HETATM    3  C   UNK N   1      30.002  22.300  -5.265  0.00  0.00     0.006 C 
HETATM    4  C   UNK N   1      29.361  23.621  -5.706  0.00  0.00     0.020 C 
HETATM    5  C   UNK N   1      31.629  21.125  -4.002  0.00  0.00     0.128 C 
HETATM    6  C   UNK N   1      30.853  21.594  -6.300  0.00  0.00     0.009 C 
HETATM    7  C   UNK N   1      31.762  20.684  -5.470  0.00  0.00     0.047 C 
HETATM    8  C   UNK N   1      30.110  22.940  -2.873  0.00  0.00     0.040 C 
HETATM    9  C   UNK N   1      28.713  24.315  -4.501  0.00  0.00    -0.067 C 
HETATM   10  C   UNK N   1      27.653  25.361  -4.798  0.00  0.00     0.003 C 
HETATM   11  C   UNK N   1      28.360  23.391  -6.860  0.00  0.00     0.014 C 
HETATM   12  C   UNK N   1      31.969  23.627  -4.403  0.00  0.00     0.019 C 
HETATM   13  C   UNK N   1      29.042  23.975  -3.225  0.00  0.00    -0.022 C 
HETATM   14  C   UNK N   1      26.907  23.421  -6.396  0.00  0.00     0.036 C 
HETATM   15  C   UNK N   1      26.635  24.754  -5.754  0.00  0.00    -0.064 C 
HETATM   16  C   UNK N   1      26.894  25.894  -3.571  0.00  0.00     0.026 C 
HETATM   17  C   UNK N   1      28.353  26.536  -5.480  0.00  0.00     0.025 C 
HETATM   18  C   UNK N   1      25.861  26.969  -3.988  0.00  0.00     0.084 C 
HETATM   19  C   UNK N   1      25.498  25.406  -6.033  0.00  0.00     0.054 C 
HETATM   20  C   UNK N   1      25.150  26.633  -5.284  0.00  0.00     0.149 C 
ENDROOT
BRANCH   5  21
HETATM   21  O   UNK N   1      30.750  20.229  -3.378  0.00  0.00    -0.381 OA
HETATM   22  H   UNK N   1      30.231  19.688  -2.763  0.00  0.00     0.211 HD
ENDBRANCH   5  21
BRANCH   5  23
HETATM   23  C   UNK N   1      32.986  21.069  -3.303  0.00  0.00     0.185 C 
HETATM   24  O   UNK N   1      33.062  21.283  -2.102  0.00  0.00    -0.292 OA
BRANCH  23  25
HETATM   25  C   UNK N   1      34.249  20.697  -4.045  0.00  0.00     0.260 C 
BRANCH  25  26
HETATM   26  O   UNK N   1      34.623  19.390  -3.793  0.00  0.00    -0.314 OA
BRANCH  26  27
HETATM   27  C   UNK N   1      34.788  18.441  -4.752  0.00  0.00     0.255 C 
HETATM   28  O   UNK N   1      34.877  17.270  -4.425  0.00  0.00    -0.266 OA
HETATM   29  C   UNK N   1      34.873  18.800  -6.202  0.00  0.00     0.126 C 
ENDBRANCH  26  27
ENDBRANCH  25  26
ENDBRANCH  23  25
ENDBRANCH   5  23
TORSDOF 5
ENDMDL
MODEL 8
REMARK VINA RESULT:      -7.5     14.840     18.933
REMARK  5 active torsions:
REMARK  status: ('A' for Active; 'I' for Inactive)
REMARK    1  A    between atoms: C_9  and  O_1 
REMARK    2  A    between atoms: O_3  and  C_25 
REMARK    3  A    between atoms: O_3  and  C_27 
REMARK    4  A    between atoms: C_9  and  C_20 
REMARK    5  A    between atoms: C_20  and  C_25 
ROOT
HETATM    1  O   UNK N   1      34.963  20.234  -4.546  0.00  0.00    -0.293 OA
HETATM    2  C   UNK N   1      27.827  24.544  -5.678  0.00  0.00     0.002 C 
HETATM    3  C   UNK N   1      28.104  23.654  -4.474  0.00  0.00     0.006 C 
HETATM    4  C   UNK N   1      29.606  23.576  -4.178  0.00  0.00     0.020 C 
HETATM    5  C   UNK N   1      26.281  24.651  -5.618  0.00  0.00     0.128 C 
HETATM    6  C   UNK N   1      27.238  24.240  -3.378  0.00  0.00     0.009 C 
HETATM    7  C   UNK N   1      25.974  24.696  -4.112  0.00  0.00     0.047 C 
HETATM    8  C   UNK N   1      28.410  23.853  -6.925  0.00  0.00     0.040 C 
HETATM    9  C   UNK N   1      30.366  23.164  -5.446  0.00  0.00    -0.067 C 
HETATM   10  C   UNK N   1      31.759  22.588  -5.255  0.00  0.00     0.003 C 
HETATM   11  C   UNK N   1      29.886  22.631  -2.990  0.00  0.00     0.014 C 
HETATM   12  C   UNK N   1      28.499  25.919  -5.514  0.00  0.00     0.019 C 
HETATM   13  C   UNK N   1      29.800  23.269  -6.679  0.00  0.00    -0.022 C 
HETATM   14  C   UNK N   1      30.414  21.269  -3.432  0.00  0.00     0.036 C 
HETATM   15  C   UNK N   1      31.679  21.475  -4.219  0.00  0.00    -0.064 C 
HETATM   16  C   UNK N   1      32.411  22.011  -6.523  0.00  0.00     0.026 C 
HETATM   17  C   UNK N   1      32.646  23.713  -4.724  0.00  0.00     0.025 C 
HETATM   18  C   UNK N   1      33.831  21.478  -6.217  0.00  0.00     0.084 C 
HETATM   19  C   UNK N   1      32.735  20.679  -3.999  0.00  0.00     0.054 C 
HETATM   20  C   UNK N   1      33.920  20.770  -4.880  0.00  0.00     0.149 C 
ENDROOT
BRANCH   5  21
HETATM   21  O   UNK N   1      25.723  23.468  -6.120  0.00  0.00    -0.381 OA
HETATM   22  H   UNK N   1      25.453  22.699  -6.647  0.00  0.00     0.211 HD
ENDBRANCH   5  21
BRANCH   5  23
HETATM   23  C   UNK N   1      25.649  25.847  -6.327  0.00  0.00     0.185 C 
HETATM   24  O   UNK N   1      25.702  25.931  -7.545  0.00  0.00    -0.292 OA
BRANCH  23  25
HETATM   25  C   UNK N   1      24.899  26.918  -5.568  0.00  0.00     0.260 C 
BRANCH  25  26
HETATM   26  O   UNK N   1      25.715  27.992  -5.262  0.00  0.00    -0.314 OA
BRANCH  26  27
HETATM   27  C   UNK N   1      25.861  28.512  -4.014  0.00  0.00     0.255 C 
HETATM   28  O   UNK N   1      25.438  27.890  -3.054  0.00  0.00    -0.266 OA
HETATM   29  C   UNK N   1      26.521  29.835  -3.790  0.00  0.00     0.126 C 
ENDBRANCH  26  27
ENDBRANCH  25  26
ENDBRANCH  23  25
ENDBRANCH   5  23
TORSDOF 5
ENDMDL
MODEL 9
REMARK VINA RESULT:      -7.4      6.070     10.501
REMARK  5 active torsions:
REMARK  status: ('A' for Active; 'I' for Inactive)
REMARK    1  A    between atoms: C_9  and  O_1 
REMARK    2  A    between atoms: O_3  and  C_25 
REMARK    3  A    between atoms: O_3  and  C_27 
REMARK    4  A    between atoms: C_9  and  C_20 
REMARK    5  A    between atoms: C_20  and  C_25 
ROOT
HETATM    1  O   UNK N   1      34.841  17.743   7.371  0.00  0.00    -0.293 OA
HETATM    2  C   UNK N   1      26.971  16.196   4.830  0.00  0.00     0.002 C 
HETATM    3  C   UNK N   1      28.153  16.373   3.885  0.00  0.00     0.006 C 
HETATM    4  C   UNK N   1      29.465  15.955   4.559  0.00  0.00     0.020 C 
HETATM    5  C   UNK N   1      25.782  16.444   3.865  0.00  0.00     0.128 C 
HETATM    6  C   UNK N   1      27.757  15.590   2.651  0.00  0.00     0.009 C 
HETATM    7  C   UNK N   1      26.247  15.817   2.540  0.00  0.00     0.047 C 
HETATM    8  C   UNK N   1      27.128  17.204   5.984  0.00  0.00     0.040 C 
HETATM    9  C   UNK N   1      29.622  16.688   5.898  0.00  0.00    -0.067 C 
HETATM   10  C   UNK N   1      31.024  16.773   6.475  0.00  0.00     0.003 C 
HETATM   11  C   UNK N   1      30.667  16.186   3.617  0.00  0.00     0.014 C 
HETATM   12  C   UNK N   1      26.941  14.773   5.416  0.00  0.00     0.019 C 
HETATM   13  C   UNK N   1      28.559  17.273   6.515  0.00  0.00    -0.022 C 
HETATM   14  C   UNK N   1      31.466  17.435   3.977  0.00  0.00     0.036 C 
HETATM   15  C   UNK N   1      31.956  17.302   5.392  0.00  0.00    -0.064 C 
HETATM   16  C   UNK N   1      31.172  17.675   7.711  0.00  0.00     0.026 C 
HETATM   17  C   UNK N   1      31.444  15.355   6.858  0.00  0.00     0.025 C 
HETATM   18  C   UNK N   1      32.631  17.666   8.227  0.00  0.00     0.084 C 
HETATM   19  C   UNK N   1      33.216  17.645   5.695  0.00  0.00     0.054 C 
HETATM   20  C   UNK N   1      33.652  17.672   7.107  0.00  0.00     0.149 C 
ENDROOT
BRANCH   5  21
HETATM   21  O   UNK N   1      25.651  17.823   3.649  0.00  0.00    -0.381 OA
HETATM   22  H   UNK N   1      25.529  18.782   3.715  0.00  0.00     0.211 HD
ENDBRANCH   5  21
BRANCH   5  23
HETATM   23  C   UNK N   1      24.430  15.869   4.283  0.00  0.00     0.185 C 
HETATM   24  O   UNK N   1      23.924  14.967   3.632  0.00  0.00    -0.292 OA
BRANCH  23  25
HETATM   25  C   UNK N   1      23.713  16.344   5.525  0.00  0.00     0.260 C 
BRANCH  25  26
HETATM   26  O   UNK N   1      23.286  17.653   5.398  0.00  0.00    -0.314 OA
BRANCH  26  27
HETATM   27  C   UNK N   1      21.994  18.055   5.535  0.00  0.00     0.255 C 
HETATM   28  O   UNK N   1      21.623  18.522   6.599  0.00  0.00    -0.266 OA
HETATM   29  C   UNK N   1      21.012  17.930   4.414  0.00  0.00     0.126 C 
ENDBRANCH  26  27
ENDBRANCH  25  26
ENDBRANCH  23  25
ENDBRANCH   5  23
TORSDOF 5
ENDMDL
