MODEL 1
REMARK VINA RESULT:      -6.0      0.000      0.000
REMARK  18 active torsions:
REMARK  status: ('A' for Active; 'I' for Inactive)
REMARK    1  A    between atoms: S_1  and  C_14 
REMARK    2  A    between atoms: S_1  and  C_22 
REMARK    3  A    between atoms: O_4  and  C_20 
REMARK    4  A    between atoms: O_4  and  C_31 
REMARK    5  A    between atoms: O_5  and  C_21 
REMARK    6  A    between atoms: O_5  and  C_32 
REMARK    7  A    between atoms: C_11  and  N_8 
REMARK       I    between atoms: N_8  and  C_18 
REMARK       I    between atoms: N_9  and  C_15 
REMARK    8  A    between atoms: C_16  and  N_9 
REMARK    9  A    between atoms: C_17  and  N_10 
REMARK   10  A    between atoms: C_11  and  C_14 
REMARK   11  A    between atoms: C_11  and  C_15 
REMARK   12  A    between atoms: C_12  and  C_13 
REMARK   13  A    between atoms: C_12  and  C_17 
REMARK   14  A    between atoms: C_13  and  C_18 
REMARK   15  A    between atoms: C_16  and  C_19 
REMARK   16  A    between atoms: C_16  and  C_20 
REMARK   17  A    between atoms: C_17  and  C_21 
REMARK   18  A    between atoms: C_22  and  C_25 
ROOT
HETATM    1  C   UNK N   1      21.293  17.744   4.578  0.00  0.00     0.185 C 
ENDROOT
BRANCH   1   2
HETATM    2  N   UNK N   1      22.602  18.254   4.257  0.00  0.00    -0.347 N 
HETATM    3  C   UNK N   1      22.783  19.459   3.675  0.00  0.00     0.218 C 
HETATM    4  O   UNK N   1      21.824  20.140   3.337  0.00  0.00    -0.274 OA
HETATM    5  H   UNK N   1      23.392  17.706   4.469  0.00  0.00     0.163 HD
BRANCH   3   6
HETATM    6  C   UNK N   1      24.167  19.934   3.403  0.00  0.00     0.105 C 
BRANCH   6   7
HETATM    7  C   UNK N   1      25.145  19.351   4.412  0.00  0.00     0.044 C 
BRANCH   7   8
HETATM    8  C   UNK N   1      26.412  20.194   4.519  0.00  0.00     0.175 C 
BRANCH   8   9
HETATM    9  N   UNK N   1      27.458  19.563   3.732  0.00  0.00    -0.418 N 
HETATM   10  H   UNK N   1      28.306  20.008   3.382  0.00  0.00     0.150 HD
HETATM   11  H   UNK N   1      27.330  18.576   3.507  0.00  0.00     0.150 HD
ENDBRANCH   8   9
BRANCH   8  12
HETATM   12  C   UNK N   1      26.852  20.357   5.954  0.00  0.00     0.281 C 
HETATM   13  O   UNK N   1      26.145  20.982   6.734  0.00  0.00    -0.263 OA
BRANCH  12  14
HETATM   14  O   UNK N   1      28.028  19.829   6.375  0.00  0.00    -0.320 OA
BRANCH  14  15
HETATM   15  C   UNK N   1      28.088  18.913   7.401  0.00  0.00     0.174 C 
HETATM   16  C   UNK N   1      27.905  17.516   6.849  0.00  0.00     0.034 C 
ENDBRANCH  14  15
ENDBRANCH  12  14
ENDBRANCH   8  12
ENDBRANCH   7   8
ENDBRANCH   6   7
ENDBRANCH   3   6
ENDBRANCH   1   2
BRANCH   1  17
HETATM   17  C   UNK N   1      21.173  16.328   4.041  0.00  0.00     0.109 C 
BRANCH  17  18
HETATM   18  S   UNK N   1      22.683  15.809   3.187  0.00  0.00    -0.162 SA
BRANCH  18  19
HETATM   19  C   UNK N   1      22.611  14.194   4.019  0.00  0.00     0.112 C 
BRANCH  19  20
HETATM   20  C   UNK N   1      23.648  14.091   5.082  0.00  0.00    -0.049 A 
HETATM   21  C   UNK N   1      23.986  15.205   5.862  0.00  0.00     0.008 A 
HETATM   22  C   UNK N   1      24.958  15.094   6.858  0.00  0.00     0.001 A 
HETATM   23  C   UNK N   1      25.589  13.866   7.085  0.00  0.00     0.000 A 
HETATM   24  C   UNK N   1      25.246  12.751   6.313  0.00  0.00     0.001 A 
HETATM   25  C   UNK N   1      24.277  12.864   5.313  0.00  0.00     0.008 A 
ENDBRANCH  19  20
ENDBRANCH  18  19
ENDBRANCH  17  18
ENDBRANCH   1  17
BRANCH   1  26
HETATM   26  C   UNK N   1      21.127  17.639   6.061  0.00  0.00     0.242 C 
HETATM   27  O   UNK N   1      21.642  18.467   6.805  0.00  0.00    -0.271 OA
HETATM   28  N   UNK N   1      20.491  16.561   6.572  0.00  0.00    -0.342 N 
HETATM   29  H   UNK N   1      19.951  15.998   5.971  0.00  0.00     0.163 HD
BRANCH  28  30
HETATM   30  C   UNK N   1      20.577  16.209   7.968  0.00  0.00     0.217 C 
BRANCH  30  31
HETATM   31  C   UNK N   1      21.117  14.799   8.063  0.00  0.00    -0.026 A 
HETATM   32  C   UNK N   1      20.682  13.857   7.115  0.00  0.00     0.010 A 
HETATM   33  C   UNK N   1      21.124  12.534   7.171  0.00  0.00     0.001 A 
HETATM   34  C   UNK N   1      22.014  12.139   8.171  0.00  0.00     0.000 A 
HETATM   35  C   UNK N   1      22.461  13.068   9.114  0.00  0.00     0.001 A 
HETATM   36  C   UNK N   1      22.010  14.391   9.065  0.00  0.00     0.010 A 
ENDBRANCH  30  31
BRANCH  30  37
HETATM   37  C   UNK N   1      19.315  16.598   8.707  0.00  0.00     0.286 C 
HETATM   38  O   UNK N   1      18.621  15.758   9.263  0.00  0.00    -0.263 OA
BRANCH  37  39
HETATM   39  O   UNK N   1      18.981  17.911   8.764  0.00  0.00    -0.320 OA
BRANCH  39  40
HETATM   40  C   UNK N   1      19.622  18.811   9.582  0.00  0.00     0.174 C 
HETATM   41  C   UNK N   1      18.697  19.201  10.716  0.00  0.00     0.034 C 
ENDBRANCH  39  40
ENDBRANCH  37  39
ENDBRANCH  30  37
ENDBRANCH  28  30
ENDBRANCH   1  26
TORSDOF 18
ENDMDL
MODEL 2
REMARK VINA RESULT:      -5.9      2.694      6.901
REMARK  18 active torsions:
REMARK  status: ('A' for Active; 'I' for Inactive)
REMARK    1  A    between atoms: S_1  and  C_14 
REMARK    2  A    between atoms: S_1  and  C_22 
REMARK    3  A    between atoms: O_4  and  C_20 
REMARK    4  A    between atoms: O_4  and  C_31 
REMARK    5  A    between atoms: O_5  and  C_21 
REMARK    6  A    between atoms: O_5  and  C_32 
REMARK    7  A    between atoms: C_11  and  N_8 
REMARK       I    between atoms: N_8  and  C_18 
REMARK       I    between atoms: N_9  and  C_15 
REMARK    8  A    between atoms: C_16  and  N_9 
REMARK    9  A    between atoms: C_17  and  N_10 
REMARK   10  A    between atoms: C_11  and  C_14 
REMARK   11  A    between atoms: C_11  and  C_15 
REMARK   12  A    between atoms: C_12  and  C_13 
REMARK   13  A    between atoms: C_12  and  C_17 
REMARK   14  A    between atoms: C_13  and  C_18 
REMARK   15  A    between atoms: C_16  and  C_19 
REMARK   16  A    between atoms: C_16  and  C_20 
REMARK   17  A    between atoms: C_17  and  C_21 
REMARK   18  A    between atoms: C_22  and  C_25 
ROOT
HETATM    1  C   UNK N   1      24.218  15.454   6.232  0.00  0.00     0.185 C 
ENDROOT
BRANCH   1   2
HETATM    2  N   UNK N   1      23.123  15.468   5.294  0.00  0.00    -0.347 N 
HETATM    3  C   UNK N   1      22.154  16.407   5.331  0.00  0.00     0.218 C 
HETATM    4  O   UNK N   1      22.138  17.253   6.215  0.00  0.00    -0.274 OA
HETATM    5  H   UNK N   1      23.080  14.767   4.603  0.00  0.00     0.163 HD
BRANCH   3   6
HETATM    6  C   UNK N   1      21.073  16.376   4.309  0.00  0.00     0.105 C 
BRANCH   6   7
HETATM    7  C   UNK N   1      21.429  17.257   3.121  0.00  0.00     0.044 C 
BRANCH   7   8
HETATM    8  C   UNK N   1      20.463  18.429   2.981  0.00  0.00     0.175 C 
BRANCH   8   9
HETATM    9  N   UNK N   1      20.112  18.577   1.578  0.00  0.00    -0.418 N 
HETATM   10  H   UNK N   1      19.364  19.157   1.197  0.00  0.00     0.150 HD
HETATM   11  H   UNK N   1      20.670  18.048   0.908  0.00  0.00     0.150 HD
ENDBRANCH   8   9
BRANCH   8  12
HETATM   12  C   UNK N   1      21.059  19.709   3.517  0.00  0.00     0.281 C 
HETATM   13  O   UNK N   1      20.317  20.607   3.892  0.00  0.00    -0.263 OA
BRANCH  12  14
HETATM   14  O   UNK N   1      22.404  19.870   3.569  0.00  0.00    -0.320 OA
BRANCH  14  15
HETATM   15  C   UNK N   1      23.074  20.674   2.674  0.00  0.00     0.174 C 
HETATM   16  C   UNK N   1      24.566  20.558   2.901  0.00  0.00     0.034 C 
ENDBRANCH  14  15
ENDBRANCH  12  14
ENDBRANCH   8  12
ENDBRANCH   7   8
ENDBRANCH   6   7
ENDBRANCH   3   6
ENDBRANCH   1   2
BRANCH   1  17
HETATM   17  C   UNK N   1      24.460  14.024   6.682  0.00  0.00     0.109 C 
BRANCH  17  18
HETATM   18  S   UNK N   1      22.907  13.112   6.873  0.00  0.00    -0.162 SA
BRANCH  18  19
HETATM   19  C   UNK N   1      22.505  14.086   8.355  0.00  0.00     0.112 C 
BRANCH  19  20
HETATM   20  C   UNK N   1      22.669  13.273   9.591  0.00  0.00    -0.049 A 
HETATM   21  C   UNK N   1      23.944  12.910  10.045  0.00  0.00     0.008 A 
HETATM   22  C   UNK N   1      24.083  12.150  11.209  0.00  0.00     0.001 A 
HETATM   23  C   UNK N   1      22.949  11.761  11.929  0.00  0.00     0.000 A 
HETATM   24  C   UNK N   1      21.676  12.131  11.482  0.00  0.00     0.001 A 
HETATM   25  C   UNK N   1      21.536  12.886  10.315  0.00  0.00     0.008 A 
ENDBRANCH  19  20
ENDBRANCH  18  19
ENDBRANCH  17  18
ENDBRANCH   1  17
BRANCH   1  26
HETATM   26  C   UNK N   1      25.480  15.896   5.562  0.00  0.00     0.242 C 
HETATM   27  O   UNK N   1      25.807  15.424   4.478  0.00  0.00    -0.271 OA
HETATM   28  N   UNK N   1      26.305  16.743   6.216  0.00  0.00    -0.342 N 
HETATM   29  H   UNK N   1      25.961  17.232   6.998  0.00  0.00     0.163 HD
BRANCH  28  30
HETATM   30  C   UNK N   1      27.671  16.954   5.806  0.00  0.00     0.217 C 
BRANCH  30  31
HETATM   31  C   UNK N   1      28.484  17.290   7.038  0.00  0.00    -0.026 A 
HETATM   32  C   UNK N   1      27.796  17.542   8.238  0.00  0.00     0.010 A 
HETATM   33  C   UNK N   1      28.492  17.884   9.399  0.00  0.00     0.001 A 
HETATM   34  C   UNK N   1      29.885  17.967   9.376  0.00  0.00     0.000 A 
HETATM   35  C   UNK N   1      30.581  17.710   8.193  0.00  0.00     0.001 A 
HETATM   36  C   UNK N   1      29.884  17.378   7.027  0.00  0.00     0.010 A 
ENDBRANCH  30  31
BRANCH  30  37
HETATM   37  C   UNK N   1      27.742  17.837   4.579  0.00  0.00     0.286 C 
HETATM   38  O   UNK N   1      28.304  17.463   3.560  0.00  0.00    -0.263 OA
BRANCH  37  39
HETATM   39  O   UNK N   1      27.141  19.051   4.624  0.00  0.00    -0.320 OA
BRANCH  39  40
HETATM   40  C   UNK N   1      27.828  20.218   4.861  0.00  0.00     0.174 C 
HETATM   41  C   UNK N   1      27.303  20.857   6.130  0.00  0.00     0.034 C 
ENDBRANCH  39  40
ENDBRANCH  37  39
ENDBRANCH  30  37
ENDBRANCH  28  30
ENDBRANCH   1  26
TORSDOF 18
ENDMDL
MODEL 3
REMARK VINA RESULT:      -5.8      2.470      5.166
REMARK  18 active torsions:
REMARK  status: ('A' for Active; 'I' for Inactive)
REMARK    1  A    between atoms: S_1  and  C_14 
REMARK    2  A    between atoms: S_1  and  C_22 
REMARK    3  A    between atoms: O_4  and  C_20 
REMARK    4  A    between atoms: O_4  and  C_31 
REMARK    5  A    between atoms: O_5  and  C_21 
REMARK    6  A    between atoms: O_5  and  C_32 
REMARK    7  A    between atoms: C_11  and  N_8 
REMARK       I    between atoms: N_8  and  C_18 
REMARK       I    between atoms: N_9  and  C_15 
REMARK    8  A    between atoms: C_16  and  N_9 
REMARK    9  A    between atoms: C_17  and  N_10 
REMARK   10  A    between atoms: C_11  and  C_14 
REMARK   11  A    between atoms: C_11  and  C_15 
REMARK   12  A    between atoms: C_12  and  C_13 
REMARK   13  A    between atoms: C_12  and  C_17 
REMARK   14  A    between atoms: C_13  and  C_18 
REMARK   15  A    between atoms: C_16  and  C_19 
REMARK   16  A    between atoms: C_16  and  C_20 
REMARK   17  A    between atoms: C_17  and  C_21 
REMARK   18  A    between atoms: C_22  and  C_25 
ROOT
HETATM    1  C   UNK N   1      24.954  14.871   5.536  0.00  0.00     0.185 C 
ENDROOT
BRANCH   1   2
HETATM    2  N   UNK N   1      25.976  15.833   5.207  0.00  0.00    -0.347 N 
HETATM    3  C   UNK N   1      26.412  16.016   3.942  0.00  0.00     0.218 C 
HETATM    4  O   UNK N   1      25.993  15.317   3.030  0.00  0.00    -0.274 OA
HETATM    5  H   UNK N   1      26.370  16.374   5.929  0.00  0.00     0.163 HD
BRANCH   3   6
HETATM    6  C   UNK N   1      27.447  17.051   3.674  0.00  0.00     0.105 C 
BRANCH   6   7
HETATM    7  C   UNK N   1      28.766  16.678   4.333  0.00  0.00     0.044 C 
BRANCH   7   8
HETATM    8  C   UNK N   1      29.288  17.803   5.221  0.00  0.00     0.175 C 
BRANCH   8   9
HETATM    9  N   UNK N   1      30.618  17.448   5.687  0.00  0.00    -0.418 N 
HETATM   10  H   UNK N   1      31.502  17.826   5.345  0.00  0.00     0.150 HD
HETATM   11  H   UNK N   1      30.673  16.752   6.431  0.00  0.00     0.150 HD
ENDBRANCH   8   9
BRANCH   8  12
HETATM   12  C   UNK N   1      28.368  18.061   6.391  0.00  0.00     0.281 C 
HETATM   13  O   UNK N   1      28.054  17.134   7.125  0.00  0.00    -0.263 OA
BRANCH  12  14
HETATM   14  O   UNK N   1      27.880  19.306   6.617  0.00  0.00    -0.320 OA
BRANCH  14  15
HETATM   15  C   UNK N   1      27.682  20.206   5.594  0.00  0.00     0.174 C 
HETATM   16  C   UNK N   1      26.902  21.397   6.106  0.00  0.00     0.034 C 
ENDBRANCH  14  15
ENDBRANCH  12  14
ENDBRANCH   8  12
ENDBRANCH   7   8
ENDBRANCH   6   7
ENDBRANCH   3   6
ENDBRANCH   1   2
BRANCH   1  17
HETATM   17  C   UNK N   1      25.025  14.569   7.023  0.00  0.00     0.109 C 
BRANCH  17  18
HETATM   18  S   UNK N   1      24.590  12.848   7.377  0.00  0.00    -0.162 SA
BRANCH  18  19
HETATM   19  C   UNK N   1      23.083  13.394   8.234  0.00  0.00     0.112 C 
BRANCH  19  20
HETATM   20  C   UNK N   1      23.035  12.864   9.625  0.00  0.00    -0.049 A 
HETATM   21  C   UNK N   1      21.810  12.707  10.289  0.00  0.00     0.008 A 
HETATM   22  C   UNK N   1      21.780  12.205  11.591  0.00  0.00     0.001 A 
HETATM   23  C   UNK N   1      22.971  11.848  12.231  0.00  0.00     0.000 A 
HETATM   24  C   UNK N   1      24.193  11.994  11.566  0.00  0.00     0.001 A 
HETATM   25  C   UNK N   1      24.225  12.503  10.265  0.00  0.00     0.008 A 
ENDBRANCH  19  20
ENDBRANCH  18  19
ENDBRANCH  17  18
ENDBRANCH   1  17
BRANCH   1  26
HETATM   26  C   UNK N   1      23.597  15.455   5.298  0.00  0.00     0.242 C 
HETATM   27  O   UNK N   1      22.780  14.866   4.599  0.00  0.00    -0.271 OA
HETATM   28  N   UNK N   1      23.324  16.688   5.779  0.00  0.00    -0.342 N 
HETATM   29  H   UNK N   1      23.917  17.075   6.462  0.00  0.00     0.163 HD
BRANCH  28  30
HETATM   30  C   UNK N   1      22.192  17.456   5.322  0.00  0.00     0.217 C 
BRANCH  30  31
HETATM   31  C   UNK N   1      22.709  18.584   4.455  0.00  0.00    -0.026 A 
HETATM   32  C   UNK N   1      21.789  19.273   3.646  0.00  0.00     0.010 A 
HETATM   33  C   UNK N   1      22.214  20.303   2.804  0.00  0.00     0.001 A 
HETATM   34  C   UNK N   1      23.562  20.662   2.770  0.00  0.00     0.000 A 
HETATM   35  C   UNK N   1      24.484  19.991   3.577  0.00  0.00     0.001 A 
HETATM   36  C   UNK N   1      24.061  18.953   4.412  0.00  0.00     0.010 A 
ENDBRANCH  30  31
BRANCH  30  37
HETATM   37  C   UNK N   1      21.233  17.742   6.458  0.00  0.00     0.286 C 
HETATM   38  O   UNK N   1      21.172  18.849   6.973  0.00  0.00    -0.263 OA
BRANCH  37  39
HETATM   39  O   UNK N   1      20.417  16.744   6.878  0.00  0.00    -0.320 OA
BRANCH  39  40
HETATM   40  C   UNK N   1      19.702  16.807   8.051  0.00  0.00     0.174 C 
HETATM   41  C   UNK N   1      20.062  15.619   8.918  0.00  0.00     0.034 C 
ENDBRANCH  39  40
ENDBRANCH  37  39
ENDBRANCH  30  37
ENDBRANCH  28  30
ENDBRANCH   1  26
TORSDOF 18
ENDMDL
MODEL 4
REMARK VINA RESULT:      -5.8      2.848      7.300
REMARK  18 active torsions:
REMARK  status: ('A' for Active; 'I' for Inactive)
REMARK    1  A    between atoms: S_1  and  C_14 
REMARK    2  A    between atoms: S_1  and  C_22 
REMARK    3  A    between atoms: O_4  and  C_20 
REMARK    4  A    between atoms: O_4  and  C_31 
REMARK    5  A    between atoms: O_5  and  C_21 
REMARK    6  A    between atoms: O_5  and  C_32 
REMARK    7  A    between atoms: C_11  and  N_8 
REMARK       I    between atoms: N_8  and  C_18 
REMARK       I    between atoms: N_9  and  C_15 
REMARK    8  A    between atoms: C_16  and  N_9 
REMARK    9  A    between atoms: C_17  and  N_10 
REMARK   10  A    between atoms: C_11  and  C_14 
REMARK   11  A    between atoms: C_11  and  C_15 
REMARK   12  A    between atoms: C_12  and  C_13 
REMARK   13  A    between atoms: C_12  and  C_17 
REMARK   14  A    between atoms: C_13  and  C_18 
REMARK   15  A    between atoms: C_16  and  C_19 
REMARK   16  A    between atoms: C_16  and  C_20 
REMARK   17  A    between atoms: C_17  and  C_21 
REMARK   18  A    between atoms: C_22  and  C_25 
ROOT
HETATM    1  C   UNK N   1      22.584  15.807   6.052  0.00  0.00     0.185 C 
ENDROOT
BRANCH   1   2
HETATM    2  N   UNK N   1      21.997  16.698   5.083  0.00  0.00    -0.347 N 
HETATM    3  C   UNK N   1      21.464  17.890   5.429  0.00  0.00     0.218 C 
HETATM    4  O   UNK N   1      21.405  18.229   6.603  0.00  0.00    -0.274 OA
HETATM    5  H   UNK N   1      21.982  16.428   4.136  0.00  0.00     0.163 HD
BRANCH   3   6
HETATM    6  C   UNK N   1      20.906  18.771   4.368  0.00  0.00     0.105 C 
BRANCH   6   7
HETATM    7  C   UNK N   1      21.424  18.360   2.998  0.00  0.00     0.044 C 
BRANCH   7   8
HETATM    8  C   UNK N   1      20.322  18.407   1.944  0.00  0.00     0.175 C 
BRANCH   8   9
HETATM    9  N   UNK N   1      19.040  18.541   2.617  0.00  0.00    -0.418 N 
HETATM   10  H   UNK N   1      18.562  19.413   2.843  0.00  0.00     0.150 HD
HETATM   11  H   UNK N   1      18.573  17.676   2.891  0.00  0.00     0.150 HD
ENDBRANCH   8   9
BRANCH   8  12
HETATM   12  C   UNK N   1      20.336  17.175   1.070  0.00  0.00     0.281 C 
HETATM   13  O   UNK N   1      20.259  17.300  -0.146  0.00  0.00    -0.263 OA
BRANCH  12  14
HETATM   14  O   UNK N   1      20.417  15.941   1.625  0.00  0.00    -0.320 OA
BRANCH  14  15
HETATM   15  C   UNK N   1      21.238  14.964   1.107  0.00  0.00     0.174 C 
HETATM   16  C   UNK N   1      22.383  14.702   2.060  0.00  0.00     0.034 C 
ENDBRANCH  14  15
ENDBRANCH  12  14
ENDBRANCH   8  12
ENDBRANCH   7   8
ENDBRANCH   6   7
ENDBRANCH   3   6
ENDBRANCH   1   2
BRANCH   1  17
HETATM   17  C   UNK N   1      22.042  14.406   5.822  0.00  0.00     0.109 C 
BRANCH  17  18
HETATM   18  S   UNK N   1      20.566  14.089   6.822  0.00  0.00    -0.162 SA
BRANCH  18  19
HETATM   19  C   UNK N   1      21.353  14.884   8.255  0.00  0.00     0.112 C 
BRANCH  19  20
HETATM   20  C   UNK N   1      21.706  13.882   9.298  0.00  0.00    -0.049 A 
HETATM   21  C   UNK N   1      20.722  13.353  10.144  0.00  0.00     0.008 A 
HETATM   22  C   UNK N   1      21.067  12.410  11.115  0.00  0.00     0.001 A 
HETATM   23  C   UNK N   1      22.394  11.985  11.236  0.00  0.00     0.000 A 
HETATM   24  C   UNK N   1      23.376  12.505  10.386  0.00  0.00     0.001 A 
HETATM   25  C   UNK N   1      23.032  13.452   9.418  0.00  0.00     0.008 A 
ENDBRANCH  19  20
ENDBRANCH  18  19
ENDBRANCH  17  18
ENDBRANCH   1  17
BRANCH   1  26
HETATM   26  C   UNK N   1      24.063  15.717   5.845  0.00  0.00     0.242 C 
HETATM   27  O   UNK N   1      24.800  15.370   6.762  0.00  0.00    -0.271 OA
HETATM   28  N   UNK N   1      24.582  16.125   4.666  0.00  0.00    -0.342 N 
HETATM   29  H   UNK N   1      23.980  16.245   3.897  0.00  0.00     0.163 HD
BRANCH  28  30
HETATM   30  C   UNK N   1      25.990  16.389   4.498  0.00  0.00     0.217 C 
BRANCH  30  31
HETATM   31  C   UNK N   1      26.151  17.842   4.106  0.00  0.00    -0.026 A 
HETATM   32  C   UNK N   1      27.362  18.483   4.420  0.00  0.00     0.010 A 
HETATM   33  C   UNK N   1      27.555  19.830   4.108  0.00  0.00     0.001 A 
HETATM   34  C   UNK N   1      26.543  20.549   3.470  0.00  0.00     0.000 A 
HETATM   35  C   UNK N   1      25.339  19.921   3.144  0.00  0.00     0.001 A 
HETATM   36  C   UNK N   1      25.140  18.575   3.466  0.00  0.00     0.010 A 
ENDBRANCH  30  31
BRANCH  30  37
HETATM   37  C   UNK N   1      26.656  15.299   3.686  0.00  0.00     0.286 C 
HETATM   38  O   UNK N   1      26.052  14.705   2.805  0.00  0.00    -0.263 OA
BRANCH  37  39
HETATM   39  O   UNK N   1      27.957  15.013   3.939  0.00  0.00    -0.320 OA
BRANCH  39  40
HETATM   40  C   UNK N   1      28.413  14.640   5.181  0.00  0.00     0.174 C 
HETATM   41  C   UNK N   1      29.518  15.582   5.610  0.00  0.00     0.034 C 
ENDBRANCH  39  40
ENDBRANCH  37  39
ENDBRANCH  30  37
ENDBRANCH  28  30
ENDBRANCH   1  26
TORSDOF 18
ENDMDL
MODEL 5
REMARK VINA RESULT:      -5.7      2.925      7.307
REMARK  18 active torsions:
REMARK  status: ('A' for Active; 'I' for Inactive)
REMARK    1  A    between atoms: S_1  and  C_14 
REMARK    2  A    between atoms: S_1  and  C_22 
REMARK    3  A    between atoms: O_4  and  C_20 
REMARK    4  A    between atoms: O_4  and  C_31 
REMARK    5  A    between atoms: O_5  and  C_21 
REMARK    6  A    between atoms: O_5  and  C_32 
REMARK    7  A    between atoms: C_11  and  N_8 
REMARK       I    between atoms: N_8  and  C_18 
REMARK       I    between atoms: N_9  and  C_15 
REMARK    8  A    between atoms: C_16  and  N_9 
REMARK    9  A    between atoms: C_17  and  N_10 
REMARK   10  A    between atoms: C_11  and  C_14 
REMARK   11  A    between atoms: C_11  and  C_15 
REMARK   12  A    between atoms: C_12  and  C_13 
REMARK   13  A    between atoms: C_12  and  C_17 
REMARK   14  A    between atoms: C_13  and  C_18 
REMARK   15  A    between atoms: C_16  and  C_19 
REMARK   16  A    between atoms: C_16  and  C_20 
REMARK   17  A    between atoms: C_17  and  C_21 
REMARK   18  A    between atoms: C_22  and  C_25 
ROOT
HETATM    1  C   UNK N   1      22.725  16.266   6.177  0.00  0.00     0.185 C 
ENDROOT
BRANCH   1   2
HETATM    2  N   UNK N   1      22.025  17.021   5.167  0.00  0.00    -0.347 N 
HETATM    3  C   UNK N   1      21.417  18.196   5.439  0.00  0.00     0.218 C 
HETATM    4  O   UNK N   1      21.386  18.634   6.581  0.00  0.00    -0.274 OA
HETATM    5  H   UNK N   1      21.987  16.667   4.250  0.00  0.00     0.163 HD
BRANCH   3   6
HETATM    6  C   UNK N   1      20.741  18.935   4.338  0.00  0.00     0.105 C 
BRANCH   6   7
HETATM    7  C   UNK N   1      21.385  18.614   2.998  0.00  0.00     0.044 C 
BRANCH   7   8
HETATM    8  C   UNK N   1      20.361  18.100   1.991  0.00  0.00     0.175 C 
BRANCH   8   9
HETATM    9  N   UNK N   1      19.028  18.356   2.512  0.00  0.00    -0.418 N 
HETATM   10  H   UNK N   1      18.313  17.660   2.718  0.00  0.00     0.150 HD
HETATM   11  H   UNK N   1      18.785  19.332   2.688  0.00  0.00     0.150 HD
ENDBRANCH   8   9
BRANCH   8  12
HETATM   12  C   UNK N   1      20.547  16.628   1.710  0.00  0.00     0.281 C 
HETATM   13  O   UNK N   1      20.534  16.230   0.552  0.00  0.00    -0.263 OA
BRANCH  12  14
HETATM   14  O   UNK N   1      20.711  15.750   2.730  0.00  0.00    -0.320 OA
BRANCH  14  15
HETATM   15  C   UNK N   1      19.920  14.631   2.860  0.00  0.00     0.174 C 
HETATM   16  C   UNK N   1      19.142  14.704   4.155  0.00  0.00     0.034 C 
ENDBRANCH  14  15
ENDBRANCH  12  14
ENDBRANCH   8  12
ENDBRANCH   7   8
ENDBRANCH   6   7
ENDBRANCH   3   6
ENDBRANCH   1   2
BRANCH   1  17
HETATM   17  C   UNK N   1      22.040  14.921   6.347  0.00  0.00     0.109 C 
BRANCH  17  18
HETATM   18  S   UNK N   1      21.421  14.696   8.034  0.00  0.00    -0.162 SA
BRANCH  18  19
HETATM   19  C   UNK N   1      22.024  12.981   8.037  0.00  0.00     0.112 C 
BRANCH  19  20
HETATM   20  C   UNK N   1      22.655  12.636   9.340  0.00  0.00    -0.049 A 
HETATM   21  C   UNK N   1      21.868  12.399  10.475  0.00  0.00     0.008 A 
HETATM   22  C   UNK N   1      22.473  12.073  11.691  0.00  0.00     0.001 A 
HETATM   23  C   UNK N   1      23.866  11.972  11.773  0.00  0.00     0.000 A 
HETATM   24  C   UNK N   1      24.652  12.200  10.639  0.00  0.00     0.001 A 
HETATM   25  C   UNK N   1      24.047  12.532   9.424  0.00  0.00     0.008 A 
ENDBRANCH  19  20
ENDBRANCH  18  19
ENDBRANCH  17  18
ENDBRANCH   1  17
BRANCH   1  26
HETATM   26  C   UNK N   1      24.120  15.966   5.724  0.00  0.00     0.242 C 
HETATM   27  O   UNK N   1      24.847  15.238   6.392  0.00  0.00    -0.271 OA
HETATM   28  N   UNK N   1      24.599  16.592   4.627  0.00  0.00    -0.342 N 
HETATM   29  H   UNK N   1      23.966  17.039   4.020  0.00  0.00     0.163 HD
BRANCH  28  30
HETATM   30  C   UNK N   1      26.006  16.625   4.316  0.00  0.00     0.217 C 
BRANCH  30  31
HETATM   31  C   UNK N   1      26.511  18.028   4.580  0.00  0.00    -0.026 A 
HETATM   32  C   UNK N   1      27.246  18.257   5.756  0.00  0.00     0.010 A 
HETATM   33  C   UNK N   1      27.713  19.536   6.065  0.00  0.00     0.001 A 
HETATM   34  C   UNK N   1      27.458  20.599   5.197  0.00  0.00     0.000 A 
HETATM   35  C   UNK N   1      26.737  20.382   4.020  0.00  0.00     0.001 A 
HETATM   36  C   UNK N   1      26.260  19.103   3.715  0.00  0.00     0.010 A 
ENDBRANCH  30  31
BRANCH  30  37
HETATM   37  C   UNK N   1      26.289  15.947   2.993  0.00  0.00     0.286 C 
HETATM   38  O   UNK N   1      27.434  15.755   2.610  0.00  0.00    -0.263 OA
BRANCH  37  39
HETATM   39  O   UNK N   1      25.237  15.527   2.247  0.00  0.00    -0.320 OA
BRANCH  39  40
HETATM   40  C   UNK N   1      25.162  14.266   1.703  0.00  0.00     0.174 C 
HETATM   41  C   UNK N   1      23.980  14.201   0.758  0.00  0.00     0.034 C 
ENDBRANCH  39  40
ENDBRANCH  37  39
ENDBRANCH  30  37
ENDBRANCH  28  30
ENDBRANCH   1  26
TORSDOF 18
ENDMDL
MODEL 6
REMARK VINA RESULT:      -5.7      2.208      4.505
REMARK  18 active torsions:
REMARK  status: ('A' for Active; 'I' for Inactive)
REMARK    1  A    between atoms: S_1  and  C_14 
REMARK    2  A    between atoms: S_1  and  C_22 
REMARK    3  A    between atoms: O_4  and  C_20 
REMARK    4  A    between atoms: O_4  and  C_31 
REMARK    5  A    between atoms: O_5  and  C_21 
REMARK    6  A    between atoms: O_5  and  C_32 
REMARK    7  A    between atoms: C_11  and  N_8 
REMARK       I    between atoms: N_8  and  C_18 
REMARK       I    between atoms: N_9  and  C_15 
REMARK    8  A    between atoms: C_16  and  N_9 
REMARK    9  A    between atoms: C_17  and  N_10 
REMARK   10  A    between atoms: C_11  and  C_14 
REMARK   11  A    between atoms: C_11  and  C_15 
REMARK   12  A    between atoms: C_12  and  C_13 
REMARK   13  A    between atoms: C_12  and  C_17 
REMARK   14  A    between atoms: C_13  and  C_18 
REMARK   15  A    between atoms: C_16  and  C_19 
REMARK   16  A    between atoms: C_16  and  C_20 
REMARK   17  A    between atoms: C_17  and  C_21 
REMARK   18  A    between atoms: C_22  and  C_25 
ROOT
HETATM    1  C   UNK N   1      24.620  15.343   5.531  0.00  0.00     0.185 C 
ENDROOT
BRANCH   1   2
HETATM    2  N   UNK N   1      25.290  16.579   5.211  0.00  0.00    -0.347 N 
HETATM    3  C   UNK N   1      25.509  16.971   3.937  0.00  0.00     0.218 C 
HETATM    4  O   UNK N   1      25.198  16.249   3.000  0.00  0.00    -0.274 OA
HETATM    5  H   UNK N   1      25.599  17.157   5.945  0.00  0.00     0.163 HD
BRANCH   3   6
HETATM    6  C   UNK N   1      26.177  18.276   3.683  0.00  0.00     0.105 C 
BRANCH   6   7
HETATM    7  C   UNK N   1      26.208  19.121   4.948  0.00  0.00     0.044 C 
BRANCH   7   8
HETATM    8  C   UNK N   1      27.635  19.346   5.438  0.00  0.00     0.175 C 
BRANCH   8   9
HETATM    9  N   UNK N   1      28.555  18.993   4.369  0.00  0.00    -0.418 N 
HETATM   10  H   UNK N   1      29.289  18.286   4.409  0.00  0.00     0.150 HD
HETATM   11  H   UNK N   1      28.455  19.503   3.491  0.00  0.00     0.150 HD
ENDBRANCH   8   9
BRANCH   8  12
HETATM   12  C   UNK N   1      27.931  18.541   6.681  0.00  0.00     0.281 C 
HETATM   13  O   UNK N   1      27.917  17.319   6.623  0.00  0.00    -0.263 OA
BRANCH  12  14
HETATM   14  O   UNK N   1      28.195  19.165   7.855  0.00  0.00    -0.320 OA
BRANCH  14  15
HETATM   15  C   UNK N   1      28.548  18.464   8.987  0.00  0.00     0.174 C 
HETATM   16  C   UNK N   1      30.029  18.627   9.247  0.00  0.00     0.034 C 
ENDBRANCH  14  15
ENDBRANCH  12  14
ENDBRANCH   8  12
ENDBRANCH   7   8
ENDBRANCH   6   7
ENDBRANCH   3   6
ENDBRANCH   1   2
BRANCH   1  17
HETATM   17  C   UNK N   1      25.052  14.897   6.917  0.00  0.00     0.109 C 
BRANCH  17  18
HETATM   18  S   UNK N   1      24.904  13.103   7.117  0.00  0.00    -0.162 SA
BRANCH  18  19
HETATM   19  C   UNK N   1      23.283  13.315   7.911  0.00  0.00     0.112 C 
BRANCH  19  20
HETATM   20  C   UNK N   1      23.306  12.827   9.318  0.00  0.00    -0.049 A 
HETATM   21  C   UNK N   1      22.116  12.666  10.039  0.00  0.00     0.008 A 
HETATM   22  C   UNK N   1      22.152  12.204  11.356  0.00  0.00     0.001 A 
HETATM   23  C   UNK N   1      23.378  11.889  11.953  0.00  0.00     0.000 A 
HETATM   24  C   UNK N   1      24.566  12.039  11.230  0.00  0.00     0.001 A 
HETATM   25  C   UNK N   1      24.530  12.508   9.915  0.00  0.00     0.008 A 
ENDBRANCH  19  20
ENDBRANCH  18  19
ENDBRANCH  17  18
ENDBRANCH   1  17
BRANCH   1  26
HETATM   26  C   UNK N   1      23.142  15.560   5.608  0.00  0.00     0.242 C 
HETATM   27  O   UNK N   1      22.373  14.821   5.003  0.00  0.00    -0.271 OA
HETATM   28  N   UNK N   1      22.674  16.643   6.268  0.00  0.00    -0.342 N 
HETATM   29  H   UNK N   1      23.279  17.128   6.874  0.00  0.00     0.163 HD
BRANCH  28  30
HETATM   30  C   UNK N   1      21.319  17.110   6.113  0.00  0.00     0.217 C 
BRANCH  30  31
HETATM   31  C   UNK N   1      21.226  17.850   4.796  0.00  0.00    -0.026 A 
HETATM   32  C   UNK N   1      22.218  18.799   4.497  0.00  0.00     0.010 A 
HETATM   33  C   UNK N   1      22.168  19.532   3.310  0.00  0.00     0.001 A 
HETATM   34  C   UNK N   1      21.129  19.317   2.403  0.00  0.00     0.000 A 
HETATM   35  C   UNK N   1      20.142  18.369   2.683  0.00  0.00     0.001 A 
HETATM   36  C   UNK N   1      20.186  17.643   3.877  0.00  0.00     0.010 A 
ENDBRANCH  30  31
BRANCH  30  37
HETATM   37  C   UNK N   1      20.814  17.750   7.387  0.00  0.00     0.286 C 
HETATM   38  O   UNK N   1      20.626  18.955   7.461  0.00  0.00    -0.263 OA
BRANCH  37  39
HETATM   39  O   UNK N   1      20.544  16.948   8.447  0.00  0.00    -0.320 OA
BRANCH  39  40
HETATM   40  C   UNK N   1      19.442  16.127   8.502  0.00  0.00     0.174 C 
HETATM   41  C   UNK N   1      18.301  16.868   9.167  0.00  0.00     0.034 C 
ENDBRANCH  39  40
ENDBRANCH  37  39
ENDBRANCH  30  37
ENDBRANCH  28  30
ENDBRANCH   1  26
TORSDOF 18
ENDMDL
MODEL 7
REMARK VINA RESULT:      -5.7      2.924      6.042
REMARK  18 active torsions:
REMARK  status: ('A' for Active; 'I' for Inactive)
REMARK    1  A    between atoms: S_1  and  C_14 
REMARK    2  A    between atoms: S_1  and  C_22 
REMARK    3  A    between atoms: O_4  and  C_20 
REMARK    4  A    between atoms: O_4  and  C_31 
REMARK    5  A    between atoms: O_5  and  C_21 
REMARK    6  A    between atoms: O_5  and  C_32 
REMARK    7  A    between atoms: C_11  and  N_8 
REMARK       I    between atoms: N_8  and  C_18 
REMARK       I    between atoms: N_9  and  C_15 
REMARK    8  A    between atoms: C_16  and  N_9 
REMARK    9  A    between atoms: C_17  and  N_10 
REMARK   10  A    between atoms: C_11  and  C_14 
REMARK   11  A    between atoms: C_11  and  C_15 
REMARK   12  A    between atoms: C_12  and  C_13 
REMARK   13  A    between atoms: C_12  and  C_17 
REMARK   14  A    between atoms: C_13  and  C_18 
REMARK   15  A    between atoms: C_16  and  C_19 
REMARK   16  A    between atoms: C_16  and  C_20 
REMARK   17  A    between atoms: C_17  and  C_21 
REMARK   18  A    between atoms: C_22  and  C_25 
ROOT
HETATM    1  C   UNK N   1      25.996  15.465   5.515  0.00  0.00     0.185 C 
ENDROOT
BRANCH   1   2
HETATM    2  N   UNK N   1      25.299  16.717   5.674  0.00  0.00    -0.347 N 
HETATM    3  C   UNK N   1      25.001  17.514   4.625  0.00  0.00     0.218 C 
HETATM    4  O   UNK N   1      25.374  17.225   3.496  0.00  0.00    -0.274 OA
HETATM    5  H   UNK N   1      25.032  17.002   6.578  0.00  0.00     0.163 HD
BRANCH   3   6
HETATM    6  C   UNK N   1      24.249  18.776   4.863  0.00  0.00     0.105 C 
BRANCH   6   7
HETATM    7  C   UNK N   1      22.750  18.540   4.756  0.00  0.00     0.044 C 
BRANCH   7   8
HETATM    8  C   UNK N   1      22.194  19.050   3.430  0.00  0.00     0.175 C 
BRANCH   8   9
HETATM    9  N   UNK N   1      22.919  20.252   3.054  0.00  0.00    -0.418 N 
HETATM   10  H   UNK N   1      22.639  21.215   3.243  0.00  0.00     0.150 HD
HETATM   11  H   UNK N   1      23.796  20.120   2.550  0.00  0.00     0.150 HD
ENDBRANCH   8   9
BRANCH   8  12
HETATM   12  C   UNK N   1      20.713  19.330   3.519  0.00  0.00     0.281 C 
HETATM   13  O   UNK N   1      20.328  20.472   3.731  0.00  0.00    -0.263 OA
BRANCH  12  14
HETATM   14  O   UNK N   1      19.815  18.323   3.382  0.00  0.00    -0.320 OA
BRANCH  14  15
HETATM   15  C   UNK N   1      20.091  17.201   2.633  0.00  0.00     0.174 C 
HETATM   16  C   UNK N   1      20.054  17.550   1.161  0.00  0.00     0.034 C 
ENDBRANCH  14  15
ENDBRANCH  12  14
ENDBRANCH   8  12
ENDBRANCH   7   8
ENDBRANCH   6   7
ENDBRANCH   3   6
ENDBRANCH   1   2
BRANCH   1  17
HETATM   17  C   UNK N   1      27.246  15.487   6.378  0.00  0.00     0.109 C 
BRANCH  17  18
HETATM   18  S   UNK N   1      28.703  15.996   5.431  0.00  0.00    -0.162 SA
BRANCH  18  19
HETATM   19  C   UNK N   1      29.005  17.352   6.604  0.00  0.00     0.112 C 
BRANCH  19  20
HETATM   20  C   UNK N   1      28.359  18.613   6.144  0.00  0.00    -0.049 A 
HETATM   21  C   UNK N   1      28.305  18.932   4.780  0.00  0.00     0.008 A 
HETATM   22  C   UNK N   1      27.693  20.116   4.362  0.00  0.00     0.001 A 
HETATM   23  C   UNK N   1      27.124  20.978   5.305  0.00  0.00     0.000 A 
HETATM   24  C   UNK N   1      27.168  20.656   6.665  0.00  0.00     0.001 A 
HETATM   25  C   UNK N   1      27.786  19.475   7.084  0.00  0.00     0.008 A 
ENDBRANCH  19  20
ENDBRANCH  18  19
ENDBRANCH  17  18
ENDBRANCH   1  17
BRANCH   1  26
HETATM   26  C   UNK N   1      25.159  14.337   6.029  0.00  0.00     0.242 C 
HETATM   27  O   UNK N   1      25.005  13.321   5.359  0.00  0.00    -0.271 OA
HETATM   28  N   UNK N   1      24.491  14.497   7.193  0.00  0.00    -0.342 N 
HETATM   29  H   UNK N   1      24.746  15.238   7.789  0.00  0.00     0.163 HD
BRANCH  28  30
HETATM   30  C   UNK N   1      23.418  13.619   7.589  0.00  0.00     0.217 C 
BRANCH  30  31
HETATM   31  C   UNK N   1      22.204  14.471   7.895  0.00  0.00    -0.026 A 
HETATM   32  C   UNK N   1      22.004  15.637   7.137  0.00  0.00     0.010 A 
HETATM   33  C   UNK N   1      20.918  16.475   7.394  0.00  0.00     0.001 A 
HETATM   34  C   UNK N   1      20.013  16.152   8.406  0.00  0.00     0.000 A 
HETATM   35  C   UNK N   1      20.195  14.990   9.160  0.00  0.00     0.001 A 
HETATM   36  C   UNK N   1      21.290  14.156   8.911  0.00  0.00     0.010 A 
ENDBRANCH  30  31
BRANCH  30  37
HETATM   37  C   UNK N   1      23.898  12.586   8.584  0.00  0.00     0.286 C 
HETATM   38  O   UNK N   1      24.033  11.413   8.266  0.00  0.00    -0.263 OA
BRANCH  37  39
HETATM   39  O   UNK N   1      24.207  12.996   9.840  0.00  0.00    -0.320 OA
BRANCH  39  40
HETATM   40  C   UNK N   1      24.529  12.124  10.853  0.00  0.00     0.174 C 
HETATM   41  C   UNK N   1      23.328  11.946  11.758  0.00  0.00     0.034 C 
ENDBRANCH  39  40
ENDBRANCH  37  39
ENDBRANCH  30  37
ENDBRANCH  28  30
ENDBRANCH   1  26
TORSDOF 18
ENDMDL
MODEL 8
REMARK VINA RESULT:      -5.7      2.806      7.181
REMARK  18 active torsions:
REMARK  status: ('A' for Active; 'I' for Inactive)
REMARK    1  A    between atoms: S_1  and  C_14 
REMARK    2  A    between atoms: S_1  and  C_22 
REMARK    3  A    between atoms: O_4  and  C_20 
REMARK    4  A    between atoms: O_4  and  C_31 
REMARK    5  A    between atoms: O_5  and  C_21 
REMARK    6  A    between atoms: O_5  and  C_32 
REMARK    7  A    between atoms: C_11  and  N_8 
REMARK       I    between atoms: N_8  and  C_18 
REMARK       I    between atoms: N_9  and  C_15 
REMARK    8  A    between atoms: C_16  and  N_9 
REMARK    9  A    between atoms: C_17  and  N_10 
REMARK   10  A    between atoms: C_11  and  C_14 
REMARK   11  A    between atoms: C_11  and  C_15 
REMARK   12  A    between atoms: C_12  and  C_13 
REMARK   13  A    between atoms: C_12  and  C_17 
REMARK   14  A    between atoms: C_13  and  C_18 
REMARK   15  A    between atoms: C_16  and  C_19 
REMARK   16  A    between atoms: C_16  and  C_20 
REMARK   17  A    between atoms: C_17  and  C_21 
REMARK   18  A    between atoms: C_22  and  C_25 
ROOT
HETATM    1  C   UNK N   1      24.898  15.004   6.495  0.00  0.00     0.185 C 
ENDROOT
BRANCH   1   2
HETATM    2  N   UNK N   1      23.680  14.829   5.743  0.00  0.00    -0.347 N 
HETATM    3  C   UNK N   1      22.724  15.782   5.689  0.00  0.00     0.218 C 
HETATM    4  O   UNK N   1      22.834  16.814   6.336  0.00  0.00    -0.274 OA
HETATM    5  H   UNK N   1      23.539  13.986   5.255  0.00  0.00     0.163 HD
BRANCH   3   6
HETATM    6  C   UNK N   1      21.508  15.544   4.866  0.00  0.00     0.105 C 
BRANCH   6   7
HETATM    7  C   UNK N   1      21.459  16.503   3.686  0.00  0.00     0.044 C 
BRANCH   7   8
HETATM    8  C   UNK N   1      20.423  17.603   3.899  0.00  0.00     0.175 C 
BRANCH   8   9
HETATM    9  N   UNK N   1      19.477  17.571   2.797  0.00  0.00    -0.418 N 
HETATM   10  H   UNK N   1      19.141  18.371   2.261  0.00  0.00     0.150 HD
HETATM   11  H   UNK N   1      19.113  16.655   2.532  0.00  0.00     0.150 HD
ENDBRANCH   8   9
BRANCH   8  12
HETATM   12  C   UNK N   1      21.070  18.964   4.004  0.00  0.00     0.281 C 
HETATM   13  O   UNK N   1      21.049  19.560   5.073  0.00  0.00    -0.263 OA
BRANCH  12  14
HETATM   14  O   UNK N   1      21.657  19.529   2.920  0.00  0.00    -0.320 OA
BRANCH  14  15
HETATM   15  C   UNK N   1      21.302  20.782   2.473  0.00  0.00     0.174 C 
HETATM   16  C   UNK N   1      20.768  20.688   1.061  0.00  0.00     0.034 C 
ENDBRANCH  14  15
ENDBRANCH  12  14
ENDBRANCH   8  12
ENDBRANCH   7   8
ENDBRANCH   6   7
ENDBRANCH   3   6
ENDBRANCH   1   2
BRANCH   1  17
HETATM   17  C   UNK N   1      25.576  13.653   6.649  0.00  0.00     0.109 C 
BRANCH  17  18
HETATM   18  S   UNK N   1      24.448  12.415   7.337  0.00  0.00    -0.162 SA
BRANCH  18  19
HETATM   19  C   UNK N   1      24.568  13.200   8.973  0.00  0.00     0.112 C 
BRANCH  19  20
HETATM   20  C   UNK N   1      23.371  12.893   9.804  0.00  0.00    -0.049 A 
HETATM   21  C   UNK N   1      23.488  12.120  10.967  0.00  0.00     0.008 A 
HETATM   22  C   UNK N   1      22.358  11.843  11.739  0.00  0.00     0.001 A 
HETATM   23  C   UNK N   1      21.110  12.347  11.358  0.00  0.00     0.000 A 
HETATM   24  C   UNK N   1      20.994  13.127  10.202  0.00  0.00     0.001 A 
HETATM   25  C   UNK N   1      22.124  13.399   9.426  0.00  0.00     0.008 A 
ENDBRANCH  19  20
ENDBRANCH  18  19
ENDBRANCH  17  18
ENDBRANCH   1  17
BRANCH   1  26
HETATM   26  C   UNK N   1      25.857  15.863   5.733  0.00  0.00     0.242 C 
HETATM   27  O   UNK N   1      26.371  15.455   4.697  0.00  0.00    -0.271 OA
HETATM   28  N   UNK N   1      26.229  17.051   6.260  0.00  0.00    -0.342 N 
HETATM   29  H   UNK N   1      25.697  17.432   6.995  0.00  0.00     0.163 HD
BRANCH  28  30
HETATM   30  C   UNK N   1      27.377  17.779   5.779  0.00  0.00     0.217 C 
BRANCH  30  31
HETATM   31  C   UNK N   1      28.397  17.836   6.895  0.00  0.00    -0.026 A 
HETATM   32  C   UNK N   1      28.017  18.428   8.112  0.00  0.00     0.010 A 
HETATM   33  C   UNK N   1      28.924  18.534   9.167  0.00  0.00     0.001 A 
HETATM   34  C   UNK N   1      30.222  18.040   9.021  0.00  0.00     0.000 A 
HETATM   35  C   UNK N   1      30.610  17.440   7.820  0.00  0.00     0.001 A 
HETATM   36  C   UNK N   1      29.704  17.343   6.759  0.00  0.00     0.010 A 
ENDBRANCH  30  31
BRANCH  30  37
HETATM   37  C   UNK N   1      26.960  19.042   5.058  0.00  0.00     0.286 C 
HETATM   38  O   UNK N   1      27.622  20.066   5.138  0.00  0.00    -0.263 OA
BRANCH  37  39
HETATM   39  O   UNK N   1      25.842  19.007   4.292  0.00  0.00    -0.320 OA
BRANCH  39  40
HETATM   40  C   UNK N   1      25.072  20.118   4.041  0.00  0.00     0.174 C 
HETATM   41  C   UNK N   1      25.116  20.430   2.559  0.00  0.00     0.034 C 
ENDBRANCH  39  40
ENDBRANCH  37  39
ENDBRANCH  30  37
ENDBRANCH  28  30
ENDBRANCH   1  26
TORSDOF 18
ENDMDL
MODEL 9
REMARK VINA RESULT:      -5.6      2.731      6.940
REMARK  18 active torsions:
REMARK  status: ('A' for Active; 'I' for Inactive)
REMARK    1  A    between atoms: S_1  and  C_14 
REMARK    2  A    between atoms: S_1  and  C_22 
REMARK    3  A    between atoms: O_4  and  C_20 
REMARK    4  A    between atoms: O_4  and  C_31 
REMARK    5  A    between atoms: O_5  and  C_21 
REMARK    6  A    between atoms: O_5  and  C_32 
REMARK    7  A    between atoms: C_11  and  N_8 
REMARK       I    between atoms: N_8  and  C_18 
REMARK       I    between atoms: N_9  and  C_15 
REMARK    8  A    between atoms: C_16  and  N_9 
REMARK    9  A    between atoms: C_17  and  N_10 
REMARK   10  A    between atoms: C_11  and  C_14 
REMARK   11  A    between atoms: C_11  and  C_15 
REMARK   12  A    between atoms: C_12  and  C_13 
REMARK   13  A    between atoms: C_12  and  C_17 
REMARK   14  A    between atoms: C_13  and  C_18 
REMARK   15  A    between atoms: C_16  and  C_19 
REMARK   16  A    between atoms: C_16  and  C_20 
REMARK   17  A    between atoms: C_17  and  C_21 
REMARK   18  A    between atoms: C_22  and  C_25 
ROOT
HETATM    1  C   UNK N   1      22.926  15.587   6.338  0.00  0.00     0.185 C 
ENDROOT
BRANCH   1   2
HETATM    2  N   UNK N   1      22.516  16.781   5.640  0.00  0.00    -0.347 N 
HETATM    3  C   UNK N   1      21.663  17.676   6.184  0.00  0.00     0.218 C 
HETATM    4  O   UNK N   1      21.154  17.469   7.277  0.00  0.00    -0.274 OA
HETATM    5  H   UNK N   1      22.868  16.948   4.736  0.00  0.00     0.163 HD
BRANCH   3   6
HETATM    6  C   UNK N   1      21.311  18.901   5.417  0.00  0.00     0.105 C 
BRANCH   6   7
HETATM    7  C   UNK N   1      21.169  18.588   3.935  0.00  0.00     0.044 C 
BRANCH   7   8
HETATM    8  C   UNK N   1      20.665  19.796   3.152  0.00  0.00     0.175 C 
BRANCH   8   9
HETATM    9  N   UNK N   1      19.551  19.377   2.317  0.00  0.00    -0.418 N 
HETATM   10  H   UNK N   1      18.920  18.595   2.494  0.00  0.00     0.150 HD
HETATM   11  H   UNK N   1      19.384  19.919   1.469  0.00  0.00     0.150 HD
ENDBRANCH   8   9
BRANCH   8  12
HETATM   12  C   UNK N   1      21.758  20.409   2.309  0.00  0.00     0.281 C 
HETATM   13  O   UNK N   1      21.667  20.376   1.089  0.00  0.00    -0.263 OA
BRANCH  12  14
HETATM   14  O   UNK N   1      22.839  20.978   2.897  0.00  0.00    -0.320 OA
BRANCH  14  15
HETATM   15  C   UNK N   1      23.930  20.234   3.286  0.00  0.00     0.174 C 
HETATM   16  C   UNK N   1      25.140  20.638   2.472  0.00  0.00     0.034 C 
ENDBRANCH  14  15
ENDBRANCH  12  14
ENDBRANCH   8  12
ENDBRANCH   7   8
ENDBRANCH   6   7
ENDBRANCH   3   6
ENDBRANCH   1   2
BRANCH   1  17
HETATM   17  C   UNK N   1      22.113  14.413   5.820  0.00  0.00     0.109 C 
BRANCH  17  18
HETATM   18  S   UNK N   1      20.929  13.825   7.058  0.00  0.00    -0.162 SA
BRANCH  18  19
HETATM   19  C   UNK N   1      22.039  14.365   8.392  0.00  0.00     0.112 C 
BRANCH  19  20
HETATM   20  C   UNK N   1      21.903  13.490   9.589  0.00  0.00    -0.049 A 
HETATM   21  C   UNK N   1      23.035  12.931  10.198  0.00  0.00     0.008 A 
HETATM   22  C   UNK N   1      22.893  12.116  11.323  0.00  0.00     0.001 A 
HETATM   23  C   UNK N   1      21.622  11.866  11.850  0.00  0.00     0.000 A 
HETATM   24  C   UNK N   1      20.492  12.432  11.249  0.00  0.00     0.001 A 
HETATM   25  C   UNK N   1      20.633  13.243  10.120  0.00  0.00     0.008 A 
ENDBRANCH  19  20
ENDBRANCH  18  19
ENDBRANCH  17  18
ENDBRANCH   1  17
BRANCH   1  26
HETATM   26  C   UNK N   1      24.354  15.270   6.026  0.00  0.00     0.242 C 
HETATM   27  O   UNK N   1      24.983  14.480   6.722  0.00  0.00    -0.271 OA
HETATM   28  N   UNK N   1      24.971  15.945   5.030  0.00  0.00    -0.342 N 
HETATM   29  H   UNK N   1      24.422  16.448   4.386  0.00  0.00     0.163 HD
BRANCH  28  30
HETATM   30  C   UNK N   1      26.405  15.952   4.881  0.00  0.00     0.217 C 
BRANCH  30  31
HETATM   31  C   UNK N   1      26.948  17.152   5.627  0.00  0.00    -0.026 A 
HETATM   32  C   UNK N   1      26.669  18.432   5.117  0.00  0.00     0.010 A 
HETATM   33  C   UNK N   1      27.168  19.573   5.747  0.00  0.00     0.001 A 
HETATM   34  C   UNK N   1      27.943  19.449   6.901  0.00  0.00     0.000 A 
HETATM   35  C   UNK N   1      28.219  18.182   7.424  0.00  0.00     0.001 A 
HETATM   36  C   UNK N   1      27.729  17.038   6.786  0.00  0.00     0.010 A 
ENDBRANCH  30  31
BRANCH  30  37
HETATM   37  C   UNK N   1      26.805  15.700   3.443  0.00  0.00     0.286 C 
HETATM   38  O   UNK N   1      26.168  16.177   2.515  0.00  0.00    -0.263 OA
BRANCH  37  39
HETATM   39  O   UNK N   1      27.909  14.950   3.204  0.00  0.00    -0.320 OA
BRANCH  39  40
HETATM   40  C   UNK N   1      28.955  15.387   2.427  0.00  0.00     0.174 C 
HETATM   41  C   UNK N   1      29.689  16.494   3.155  0.00  0.00     0.034 C 
ENDBRANCH  39  40
ENDBRANCH  37  39
ENDBRANCH  30  37
ENDBRANCH  28  30
ENDBRANCH   1  26
TORSDOF 18
ENDMDL
