REMARK  15 active torsions:
REMARK  status: ('A' for Active; 'I' for Inactive)
REMARK    1  A    between atoms: C_2  and  O_3 
REMARK    2  A    between atoms: O_3  and  C_4 
REMARK    3  A    between atoms: C_4  and  C_6 
REMARK    4  A    between atoms: C_6  and  N_9 
REMARK    5  A    between atoms: N_9  and  P_10 
REMARK    6  A    between atoms: P_10  and  C_12 
REMARK    7  A    between atoms: P_10  and  N_30 
REMARK    8  A    between atoms: C_15  and  C_17 
REMARK    9  A    between atoms: C_18  and  C_24 
REMARK   10  A    between atoms: C_20  and  N_23 
REMARK   11  A    between atoms: C_24  and  C_26 
REMARK   12  A    between atoms: N_30  and  C_31 
REMARK   13  A    between atoms: C_31  and  C_34 
REMARK   14  A    between atoms: C_34  and  O_36 
REMARK   15  A    between atoms: O_36  and  C_37 
ROOT
HETATM    1  P   UNK N   1       1.070   0.848   0.430  0.00  0.00     0.305 P 
HETATM    2  O   UNK N   1       0.033   1.129   1.544  0.00  0.00    -0.268 OA
ENDROOT
BRANCH   1   3
HETATM    3  N   UNK N   1       0.194   1.282  -1.105  0.00  0.00    -0.333 N 
HETATM    4  H   UNK N   1       0.168   0.645  -1.901  0.00  0.00     0.164 HD
BRANCH   3   5
HETATM    5  C   UNK N   1      -0.476   2.591  -1.149  0.00  0.00     0.114 C 
HETATM    6  C   UNK N   1      -1.356   2.613  -2.386  0.00  0.00     0.049 C 
HETATM    7  C   UNK N   1       0.567   3.685  -1.335  0.00  0.00     0.049 C 
BRANCH   5   8
HETATM    8  C   UNK N   1      -1.376   2.858   0.056  0.00  0.00     0.286 C 
HETATM    9  O   UNK N   1      -1.221   3.880   0.707  0.00  0.00    -0.262 OA
BRANCH   8  10
HETATM   10  O   UNK N   1      -2.340   1.979   0.451  0.00  0.00    -0.320 OA
BRANCH  10  11
HETATM   11  C   UNK N   1      -2.471   0.704  -0.056  0.00  0.00     0.174 C 
HETATM   12  C   UNK N   1      -3.877   0.487  -0.565  0.00  0.00     0.034 C 
ENDBRANCH  10  11
ENDBRANCH   8  10
ENDBRANCH   5   8
ENDBRANCH   3   5
ENDBRANCH   1   3
BRANCH   1  13
HETATM   13  C   UNK N   1       1.280  -0.960   0.526  0.00  0.00     0.154 A 
HETATM   14  C   UNK N   1       2.408  -1.662   0.886  0.00  0.00     0.047 A 
HETATM   15  C   UNK N   1       2.055  -2.991   0.790  0.00  0.00     0.043 A 
HETATM   16  C   UNK N   1       0.734  -3.006   0.372  0.00  0.00     0.104 A 
HETATM   17  O   UNK N   1       0.305  -1.783   0.250  0.00  0.00    -0.301 OA
BRANCH  16  18
HETATM   18  C   UNK N   1      -0.122  -4.184   0.153  0.00  0.00     0.089 A 
HETATM   19  C   UNK N   1       0.324  -5.522  -0.023  0.00  0.00     0.084 A 
HETATM   20  S   UNK N   1      -1.058  -6.443  -0.115  0.00  0.00    -0.048 SA
HETATM   21  C   UNK N   1      -2.143  -5.213   0.017  0.00  0.00     0.143 A 
HETATM   22  N   UNK N   1      -1.500  -4.032   0.155  0.00  0.00    -0.333 N 
ATOM     23  HN  UNK N   1      -1.973  -3.133   0.249  1.00  0.00     0.168 HD
BRANCH  19  24
HETATM   24  C   UNK N   1       1.725  -6.030  -0.179  0.00  0.00     0.176 C 
HETATM   25  O   UNK N   1       2.626  -5.239  -0.397  0.00  0.00    -0.291 OA
BRANCH  24  26
HETATM   26  C   UNK N   1       2.060  -7.507  -0.117  0.00  0.00     0.015 C 
HETATM   27  C   UNK N   1       1.687  -8.054   1.247  0.00  0.00     0.023 C 
HETATM   28  C   UNK N   1       1.324  -8.277  -1.196  0.00  0.00     0.023 C 
HETATM   29  C   UNK N   1       3.551  -7.744  -0.320  0.00  0.00     0.023 C 
ENDBRANCH  24  26
ENDBRANCH  19  24
BRANCH  21  30
HETATM   30  N   UNK N   1      -3.547  -5.346  -0.003  0.00  0.00    -0.380 N 
HETATM   31  H   UNK N   1      -4.117  -4.544  -0.017  0.00  0.00     0.158 HD
HETATM   32  H   UNK N   1      -3.956  -6.242  -0.003  0.00  0.00     0.158 HD
ENDBRANCH  21  30
ENDBRANCH  16  18
ENDBRANCH   1  13
BRANCH   1  33
HETATM   33  N   UNK N   1       2.354   2.085   0.775  0.00  0.00    -0.333 N 
HETATM   34  H   UNK N   1       2.102   2.992   1.167  0.00  0.00     0.164 HD
BRANCH  33  35
HETATM   35  C   UNK N   1       3.765   1.767   0.484  0.00  0.00     0.114 C 
HETATM   36  C   UNK N   1       4.507   1.715   1.808  0.00  0.00     0.049 C 
HETATM   37  C   UNK N   1       3.996   0.463  -0.258  0.00  0.00     0.049 C 
BRANCH  35  38
HETATM   38  C   UNK N   1       4.376   2.858  -0.348  0.00  0.00     0.286 C 
HETATM   39  O   UNK N   1       3.698   3.805  -0.728  0.00  0.00    -0.262 OA
BRANCH  38  40
HETATM   40  O   UNK N   1       5.695   2.789  -0.654  0.00  0.00    -0.320 OA
BRANCH  40  41
HETATM   41  C   UNK N   1       6.355   3.809  -1.291  0.00  0.00     0.174 C 
HETATM   42  C   UNK N   1       7.267   4.487  -0.291  0.00  0.00     0.034 C 
ENDBRANCH  40  41
ENDBRANCH  38  40
ENDBRANCH  35  38
ENDBRANCH  33  35
ENDBRANCH   1  33
TORSDOF 15
