REMARK  6 active torsions:
REMARK  status: ('A' for Active; 'I' for Inactive)
REMARK    1  A    between atoms: O_2  and  C_3 
REMARK    2  A    between atoms: C_8  and  C_9 
REMARK       I    between atoms: C_17  and  N_28 
REMARK    3  A    between atoms: N_28  and  C_29 
REMARK    4  A    between atoms: C_32  and  C_37 
REMARK    5  A    between atoms: C_33  and  O_35 
REMARK    6  A    between atoms: C_37  and  O_39 
ROOT
HETATM    1  C   UNK N   1       2.459   2.416  -0.067  0.00  0.00     0.055 A 
HETATM    2  N   UNK N   1       3.617   2.944   0.162  0.00  0.00    -0.384 N 
ATOM      3  HN  UNK N   1       3.521   3.959   0.141  1.00  0.00     0.160 HD
HETATM    4  C   UNK N   1       4.997   2.619   0.436  0.00  0.00     0.162 A 
HETATM    5  C   UNK N   1       5.514   1.237   0.476  0.00  0.00     0.004 A 
HETATM    6  C   UNK N   1       6.914   1.102   0.674  0.00  0.00     0.117 A 
HETATM    7  N   UNK N   1       7.515  -0.129   0.746  0.00  0.00    -0.201 N 
ATOM      8  HN  UNK N   1       8.522  -0.208   0.886  1.00  0.00     0.183 HD
HETATM    9  C   UNK N   1       6.747  -1.234   0.629  0.00  0.00     0.683 A 
HETATM   10  N   UNK N   1       5.433  -1.089   0.420  0.00  0.00    -0.190 N 
ATOM     11  HN  UNK N   1       4.888  -1.944   0.305  1.00  0.00     0.184 HD
HETATM   12  C   UNK N   1       4.760   0.075   0.346  0.00  0.00     0.069 A 
HETATM   13  C   UNK N   1       3.297  -0.092   0.125  0.00  0.00     0.004 A 
HETATM   14  C   UNK N   1       2.280   0.897  -0.086  0.00  0.00     0.005 A 
HETATM   15  C   UNK N   1       1.004   0.397  -0.359  0.00  0.00     0.038 A 
HETATM   16  C   UNK N   1       0.664  -0.951  -0.380  0.00  0.00     0.035 A 
HETATM   17  C   UNK N   1       1.626  -1.890  -0.129  0.00  0.00     0.025 A 
HETATM   18  C   UNK N   1       2.910  -1.460   0.105  0.00  0.00     0.016 A 
HETATM   19 Cl   UNK N   1      -0.975  -1.460  -0.717  0.00  0.00    -0.084 Cl
HETATM   20  N   UNK N   1       7.271  -2.568   0.701  0.00  0.00    -0.192 N 
HETATM   21  H   UNK N   1       8.242  -2.730   0.715  0.00  0.00     0.184 HD
ENDROOT
BRANCH  20  22
HETATM   22  C   UNK N   1       6.337  -3.659   0.753  0.00  0.00     0.051 A 
HETATM   23  C   UNK N   1       5.106  -3.484   1.403  0.00  0.00     0.031 A 
HETATM   24  C   UNK N   1       4.056  -4.361   1.216  0.00  0.00     0.023 A 
HETATM   25  C   UNK N   1       4.201  -5.473   0.392  0.00  0.00     0.071 A 
HETATM   26  C   UNK N   1       5.466  -5.741  -0.191  0.00  0.00     0.087 A 
HETATM   27  C   UNK N   1       6.529  -4.814  -0.016  0.00  0.00     0.067 A 
BRANCH  25  28
HETATM   28  C   UNK N   1       2.998  -6.308   0.142  0.00  0.00     0.178 C 
HETATM   29  O   UNK N   1       1.911  -5.958   0.581  0.00  0.00    -0.646 OA
BRANCH  28  30
HETATM   30  O   UNK N   1       3.069  -7.417  -0.617  0.00  0.00    -0.773 OA
HETATM   31  H   UNK N   1       2.426  -7.847  -1.145  0.00  0.00     0.167 HD
ENDBRANCH  28  30
ENDBRANCH  25  28
BRANCH  26  32
HETATM   32  O   UNK N   1       5.632  -6.857  -0.942  0.00  0.00    -0.355 OA
HETATM   33  C   UNK N   1       6.839  -7.234  -1.485  0.00  0.00     0.210 C 
ENDBRANCH  26  32
ENDBRANCH  20  22
BRANCH   1  34
HETATM   34  C   UNK N   1       1.326   3.489  -0.299  0.00  0.00     0.063 A 
HETATM   35  C   UNK N   1       1.763   4.858  -0.453  0.00  0.00     0.131 A 
HETATM   36  C   UNK N   1       0.867   5.904  -0.656  0.00  0.00     0.043 A 
HETATM   37  F   UNK N   1       3.071   5.216  -0.424  0.00  0.00    -0.205 F 
HETATM   38  C   UNK N   1      -0.488   5.678  -0.721  0.00  0.00     0.006 A 
HETATM   39  C   UNK N   1      -0.968   4.396  -0.578  0.00  0.00     0.038 A 
HETATM   40  C   UNK N   1      -0.119   3.295  -0.363  0.00  0.00     0.083 A 
BRANCH  40  41
HETATM   41  O   UNK N   1      -0.715   2.098  -0.197  0.00  0.00    -0.355 OA
HETATM   42  C   UNK N   1      -2.066   1.864  -0.351  0.00  0.00     0.210 C 
ENDBRANCH  40  41
ENDBRANCH   1  34
TORSDOF 6
