REMARK  9 active torsions:
REMARK  status: ('A' for Active; 'I' for Inactive)
REMARK    1  A    between atoms: O_4  and  C_19 
REMARK    2  A    between atoms: O_4  and  C_20 
REMARK    3  A    between atoms: N_6  and  C_13 
REMARK    4  A    between atoms: N_7  and  C_21 
REMARK       I    between atoms: N_7  and  C_29 
REMARK    5  A    between atoms: N_8  and  C_26 
REMARK    6  A    between atoms: N_8  and  C_27 
REMARK    7  A    between atoms: C_13  and  C_16 
REMARK    8  A    between atoms: C_16  and  C_19 
REMARK    9  A    between atoms: C_29  and  C_34 
ROOT
HETATM    1  N   UNK N   1       8.880   1.412   0.016  0.00  0.00    -0.351 N 
ATOM      2  HN  UNK N   1       8.932   2.431   0.024  1.00  0.00     0.166 HD
HETATM    3  N   UNK N   1       9.974  -0.686  -0.003  0.00  0.00    -0.338 N 
ATOM      4  HN  UNK N   1      10.839  -1.226  -0.008  1.00  0.00     0.168 HD
HETATM    5  C   UNK N   1       5.228   0.902   0.029  0.00  0.00     0.097 A 
HETATM    6  C   UNK N   1       5.166  -0.523   0.010  0.00  0.00     0.069 A 
HETATM    7  C   UNK N   1       7.597  -0.595   0.003  0.00  0.00     0.037 A 
HETATM    8  C   UNK N   1       6.489   1.543   0.030  0.00  0.00     0.069 A 
HETATM    9  C   UNK N   1       7.668   0.800   0.015  0.00  0.00     0.049 A 
HETATM   10  C   UNK N   1       6.362  -1.234  -0.000  0.00  0.00     0.050 A 
HETATM   11  C   UNK N   1       8.777  -1.333  -0.005  0.00  0.00     0.119 A 
HETATM   12  C   UNK N   1      10.028   0.677   0.006  0.00  0.00     0.182 A 
ENDROOT
BRANCH   5  13
HETATM   13  O   UNK N   1       4.105   1.643   0.042  0.00  0.00    -0.349 OA
BRANCH  13  14
HETATM   14  C   UNK N   1       4.083   3.014   0.117  0.00  0.00     0.177 C 
BRANCH  14  15
HETATM   15  C   UNK N   1       2.776   3.488  -0.463  0.00  0.00     0.057 C 
BRANCH  15  16
HETATM   16  C   UNK N   1       2.345   4.777   0.203  0.00  0.00     0.274 C 
BRANCH  16  17
HETATM   17  N   UNK N   1       1.044   5.173  -0.311  0.00  0.00     0.092 N 
HETATM   18  C   UNK N   1       0.025   4.281   0.253  0.00  0.00     0.298 C 
HETATM   19  C   UNK N   1      -1.357   4.785  -0.160  0.00  0.00     0.198 C 
HETATM   20  O   UNK N   1      -1.556   6.071   0.375  0.00  0.00    -0.388 OA
HETATM   21  C   UNK N   1      -0.643   6.929  -0.267  0.00  0.00     0.198 C 
HETATM   22  C   UNK N   1       0.785   6.543   0.130  0.00  0.00     0.298 C 
ENDBRANCH  16  17
ENDBRANCH  15  16
ENDBRANCH  14  15
ENDBRANCH  13  14
ENDBRANCH   5  13
BRANCH   6  23
HETATM   23  N   UNK N   1       3.978  -1.327   0.006  0.00  0.00    -0.321 N 
HETATM   24  C   UNK N   1       2.650  -1.036   0.001  0.00  0.00     0.245 C 
HETATM   25  O   UNK N   1       2.237   0.109  -0.003  0.00  0.00    -0.268 OA
HETATM   26  H   UNK N   1       4.164  -2.294   0.006  0.00  0.00     0.169 HD
BRANCH  24  27
HETATM   27  C   UNK N   1       1.694  -2.158   0.001  0.00  0.00     0.064 C 
HETATM   28  C   UNK N   1       0.376  -1.961  -0.002  0.00  0.00     0.017 C 
ENDBRANCH  24  27
ENDBRANCH   6  23
BRANCH  11  29
HETATM   29  N   UNK N   1       8.682  -2.751  -0.010  0.00  0.00    -0.342 N 
HETATM   30  H   UNK N   1       7.768  -3.117  -0.017  0.00  0.00     0.167 HD
BRANCH  29  31
HETATM   31  C   UNK N   1       9.723  -3.707  -0.007  0.00  0.00     0.035 A 
HETATM   32  C   UNK N   1       9.362  -5.055  -0.005  0.00  0.00     0.056 A 
HETATM   33  C   UNK N   1      10.334  -6.051  -0.002  0.00  0.00     0.074 A 
HETATM   34 Cl   UNK N   1       9.837  -7.732  -0.000  0.00  0.00    -0.081 Cl
HETATM   35  C   UNK N   1      11.689  -5.699   0.001  0.00  0.00     0.138 A 
HETATM   36  F   UNK N   1      12.644  -6.660   0.004  0.00  0.00    -0.204 F 
HETATM   37  C   UNK N   1      12.059  -4.348   0.000  0.00  0.00     0.046 A 
HETATM   38  C   UNK N   1      11.078  -3.350  -0.003  0.00  0.00     0.032 A 
ENDBRANCH  29  31
ENDBRANCH  11  29
TORSDOF 9
