REMARK  0 active torsions:
REMARK  status: ('A' for Active; 'I' for Inactive)
ROOT
HETATM    1 Ga   UNK N   1       4.556  -1.176   0.000  0.00  0.00     0.000 Ga
HETATM    2  H   UNK N   1       6.025  -1.176   0.000  0.00  0.00     0.000 HD
HETATM    3  H   UNK N   1       3.822   0.097   0.000  0.00  0.00     0.000 HD
HETATM    4  H   UNK N   1       3.822  -2.448   0.000  0.00  0.00     0.000 HD
ENDROOT
TORSDOF 0
