MODEL 1
REMARK VINA RESULT:      -7.4      0.000      0.000
REMARK  9 active torsions:
REMARK  status: ('A' for Active; 'I' for Inactive)
REMARK    1  A    between atoms: O_4  and  C_19 
REMARK    2  A    between atoms: O_4  and  C_20 
REMARK    3  A    between atoms: N_6  and  C_13 
REMARK    4  A    between atoms: N_7  and  C_21 
REMARK       I    between atoms: N_7  and  C_29 
REMARK    5  A    between atoms: N_8  and  C_26 
REMARK    6  A    between atoms: N_8  and  C_27 
REMARK    7  A    between atoms: C_13  and  C_16 
REMARK    8  A    between atoms: C_16  and  C_19 
REMARK    9  A    between atoms: C_29  and  C_34 
ROOT
HETATM    1  N   UNK N   1      25.297  20.569   2.813  0.00  0.00    -0.351 N 
ATOM      2  HN  UNK N   1      24.995  21.199   2.070  1.00  0.00     0.166 HD
HETATM    3  N   UNK N   1      27.041  19.627   4.105  0.00  0.00    -0.338 N 
ATOM      4  HN  UNK N   1      28.035  19.558   4.323  1.00  0.00     0.168 HD
HETATM    5  C   UNK N   1      22.060  19.188   3.912  0.00  0.00     0.097 A 
HETATM    6  C   UNK N   1      22.493  18.304   4.944  0.00  0.00     0.069 A 
HETATM    7  C   UNK N   1      24.789  18.979   4.512  0.00  0.00     0.037 A 
HETATM    8  C   UNK N   1      23.018  19.947   3.199  0.00  0.00     0.069 A 
HETATM    9  C   UNK N   1      24.375  19.842   3.495  0.00  0.00     0.049 A 
HETATM   10  C   UNK N   1      23.855  18.228   5.217  0.00  0.00     0.050 A 
HETATM   11  C   UNK N   1      26.146  18.883   4.809  0.00  0.00     0.119 A 
HETATM   12  C   UNK N   1      26.623  20.464   3.113  0.00  0.00     0.182 A 
ENDROOT
BRANCH   5  13
HETATM   13  O   UNK N   1      20.755  19.306   3.605  0.00  0.00    -0.349 OA
BRANCH  13  14
HETATM   14  C   UNK N   1      20.224  19.042   2.367  0.00  0.00     0.177 C 
BRANCH  14  15
HETATM   15  C   UNK N   1      19.572  17.685   2.423  0.00  0.00     0.057 C 
BRANCH  15  16
HETATM   16  C   UNK N   1      20.308  16.713   1.525  0.00  0.00     0.274 C 
BRANCH  16  17
HETATM   17  N   UNK N   1      20.657  15.524   2.285  0.00  0.00     0.092 N 
HETATM   18  C   UNK N   1      22.073  15.604   2.657  0.00  0.00     0.298 C 
HETATM   19  C   UNK N   1      22.407  14.436   3.584  0.00  0.00     0.198 C 
HETATM   20  O   UNK N   1      21.639  14.546   4.757  0.00  0.00    -0.388 OA
HETATM   21  C   UNK N   1      20.294  14.351   4.388  0.00  0.00     0.198 C 
HETATM   22  C   UNK N   1      19.838  15.509   3.496  0.00  0.00     0.298 C 
ENDBRANCH  16  17
ENDBRANCH  15  16
ENDBRANCH  14  15
ENDBRANCH  13  14
ENDBRANCH   5  13
BRANCH   6  23
HETATM   23  N   UNK N   1      21.660  17.467   5.759  0.00  0.00    -0.321 N 
HETATM   24  C   UNK N   1      20.915  17.689   6.874  0.00  0.00     0.245 C 
HETATM   25  O   UNK N   1      20.847  18.784   7.402  0.00  0.00    -0.268 OA
HETATM   26  H   UNK N   1      21.618  16.536   5.443  0.00  0.00     0.169 HD
BRANCH  24  27
HETATM   27  C   UNK N   1      20.172  16.553   7.450  0.00  0.00     0.064 C 
HETATM   28  C   UNK N   1      19.624  16.611   8.663  0.00  0.00     0.017 C 
ENDBRANCH  24  27
ENDBRANCH   6  23
BRANCH  11  29
HETATM   29  N   UNK N   1      26.544  18.004   5.852  0.00  0.00    -0.342 N 
HETATM   30  H   UNK N   1      25.820  17.486   6.273  0.00  0.00     0.167 HD
BRANCH  29  31
HETATM   31  C   UNK N   1      27.840  17.772   6.367  0.00  0.00     0.035 A 
HETATM   32  C   UNK N   1      28.143  18.307   7.619  0.00  0.00     0.056 A 
HETATM   33  C   UNK N   1      29.399  18.119   8.188  0.00  0.00     0.074 A 
HETATM   34 Cl   UNK N   1      29.738  18.807   9.764  0.00  0.00    -0.081 Cl
HETATM   35  C   UNK N   1      30.372  17.387   7.496  0.00  0.00     0.138 A 
HETATM   36  F   UNK N   1      31.598  17.197   8.039  0.00  0.00    -0.204 F 
HETATM   37  C   UNK N   1      30.075  16.848   6.237  0.00  0.00     0.046 A 
HETATM   38  C   UNK N   1      28.811  17.040   5.670  0.00  0.00     0.032 A 
ENDBRANCH  29  31
ENDBRANCH  11  29
TORSDOF 9
ENDMDL
MODEL 2
REMARK VINA RESULT:      -7.1      6.185     11.541
REMARK  9 active torsions:
REMARK  status: ('A' for Active; 'I' for Inactive)
REMARK    1  A    between atoms: O_4  and  C_19 
REMARK    2  A    between atoms: O_4  and  C_20 
REMARK    3  A    between atoms: N_6  and  C_13 
REMARK    4  A    between atoms: N_7  and  C_21 
REMARK       I    between atoms: N_7  and  C_29 
REMARK    5  A    between atoms: N_8  and  C_26 
REMARK    6  A    between atoms: N_8  and  C_27 
REMARK    7  A    between atoms: C_13  and  C_16 
REMARK    8  A    between atoms: C_16  and  C_19 
REMARK    9  A    between atoms: C_29  and  C_34 
ROOT
HETATM    1  N   UNK N   1      29.511  17.848   9.508  0.00  0.00    -0.351 N 
ATOM      2  HN  UNK N   1      29.936  17.983  10.426  1.00  0.00     0.166 HD
HETATM    3  N   UNK N   1      27.576  17.771   8.148  0.00  0.00    -0.338 N 
ATOM      4  HN  UNK N   1      26.564  17.850   8.054  1.00  0.00     0.168 HD
HETATM    5  C   UNK N   1      32.497  17.180   7.450  0.00  0.00     0.097 A 
HETATM    6  C   UNK N   1      31.892  16.985   6.173  0.00  0.00     0.069 A 
HETATM    7  C   UNK N   1      29.715  17.383   7.181  0.00  0.00     0.037 A 
HETATM    8  C   UNK N   1      31.681  17.470   8.569  0.00  0.00     0.069 A 
HETATM    9  C   UNK N   1      30.297  17.569   8.437  0.00  0.00     0.049 A 
HETATM   10  C   UNK N   1      30.508  17.096   6.076  0.00  0.00     0.050 A 
HETATM   11  C   UNK N   1      28.333  17.490   7.052  0.00  0.00     0.119 A 
HETATM   12  C   UNK N   1      28.158  17.948   9.369  0.00  0.00     0.182 A 
ENDROOT
BRANCH   5  13
HETATM   13  O   UNK N   1      33.830  17.088   7.605  0.00  0.00    -0.349 OA
BRANCH  13  14
HETATM   14  C   UNK N   1      34.488  17.307   8.790  0.00  0.00     0.177 C 
BRANCH  14  15
HETATM   15  C   UNK N   1      34.923  15.970   9.332  0.00  0.00     0.057 C 
BRANCH  15  16
HETATM   16  C   UNK N   1      35.848  16.160  10.514  0.00  0.00     0.274 C 
BRANCH  16  17
HETATM   17  N   UNK N   1      35.988  14.899  11.224  0.00  0.00     0.092 N 
HETATM   18  C   UNK N   1      35.948  15.165  12.666  0.00  0.00     0.298 C 
HETATM   19  C   UNK N   1      35.940  13.833  13.414  0.00  0.00     0.198 C 
HETATM   20  O   UNK N   1      34.779  13.118  13.068  0.00  0.00    -0.388 OA
HETATM   21  C   UNK N   1      34.897  12.776  11.707  0.00  0.00     0.198 C 
HETATM   22  C   UNK N   1      34.856  14.049  10.857  0.00  0.00     0.298 C 
ENDBRANCH  16  17
ENDBRANCH  15  16
ENDBRANCH  14  15
ENDBRANCH  13  14
ENDBRANCH   5  13
BRANCH   6  23
HETATM   23  N   UNK N   1      32.568  16.685   4.944  0.00  0.00    -0.321 N 
HETATM   24  C   UNK N   1      32.612  15.588   4.142  0.00  0.00     0.245 C 
HETATM   25  O   UNK N   1      31.993  14.572   4.399  0.00  0.00    -0.268 OA
HETATM   26  H   UNK N   1      33.115  17.433   4.610  0.00  0.00     0.169 HD
BRANCH  24  27
HETATM   27  C   UNK N   1      33.443  15.650   2.926  0.00  0.00     0.064 C 
HETATM   28  C   UNK N   1      34.136  14.599   2.492  0.00  0.00     0.017 C 
ENDBRANCH  24  27
ENDBRANCH   6  23
BRANCH  11  29
HETATM   29  N   UNK N   1      27.762  17.304   5.764  0.00  0.00    -0.342 N 
HETATM   30  H   UNK N   1      27.866  16.404   5.378  0.00  0.00     0.167 HD
BRANCH  29  31
HETATM   31  C   UNK N   1      27.064  18.236   4.963  0.00  0.00     0.035 A 
HETATM   32  C   UNK N   1      25.690  18.052   4.806  0.00  0.00     0.056 A 
HETATM   33  C   UNK N   1      24.939  18.931   4.031  0.00  0.00     0.074 A 
HETATM   34 Cl   UNK N   1      23.215  18.663   3.861  0.00  0.00    -0.081 Cl
HETATM   35  C   UNK N   1      25.568  20.011   3.400  0.00  0.00     0.138 A 
HETATM   36  F   UNK N   1      24.847  20.873   2.643  0.00  0.00    -0.204 F 
HETATM   37  C   UNK N   1      26.947  20.202   3.552  0.00  0.00     0.046 A 
HETATM   38  C   UNK N   1      27.698  19.315   4.332  0.00  0.00     0.032 A 
ENDBRANCH  29  31
ENDBRANCH  11  29
TORSDOF 9
ENDMDL
MODEL 3
REMARK VINA RESULT:      -7.1      8.349     12.581
REMARK  9 active torsions:
REMARK  status: ('A' for Active; 'I' for Inactive)
REMARK    1  A    between atoms: O_4  and  C_19 
REMARK    2  A    between atoms: O_4  and  C_20 
REMARK    3  A    between atoms: N_6  and  C_13 
REMARK    4  A    between atoms: N_7  and  C_21 
REMARK       I    between atoms: N_7  and  C_29 
REMARK    5  A    between atoms: N_8  and  C_26 
REMARK    6  A    between atoms: N_8  and  C_27 
REMARK    7  A    between atoms: C_13  and  C_16 
REMARK    8  A    between atoms: C_16  and  C_19 
REMARK    9  A    between atoms: C_29  and  C_34 
ROOT
HETATM    1  N   UNK N   1      38.262  12.902   8.869  0.00  0.00    -0.351 N 
ATOM      2  HN  UNK N   1      38.711  12.499   8.046  1.00  0.00     0.166 HD
HETATM    3  N   UNK N   1      38.129  13.114  11.222  0.00  0.00    -0.338 N 
ATOM      4  HN  UNK N   1      38.481  12.869  12.147  1.00  0.00     0.168 HD
HETATM    5  C   UNK N   1      35.650  14.973   7.292  0.00  0.00     0.097 A 
HETATM    6  C   UNK N   1      35.023  15.524   8.449  0.00  0.00     0.069 A 
HETATM    7  C   UNK N   1      36.597  14.301   9.842  0.00  0.00     0.037 A 
HETATM    8  C   UNK N   1      36.742  14.088   7.448  0.00  0.00     0.069 A 
HETATM    9  C   UNK N   1      37.213  13.751   8.715  0.00  0.00     0.049 A 
HETATM   10  C   UNK N   1      35.522  15.170   9.699  0.00  0.00     0.050 A 
HETATM   11  C   UNK N   1      37.076  13.967  11.106  0.00  0.00     0.119 A 
HETATM   12  C   UNK N   1      38.719  12.582  10.112  0.00  0.00     0.182 A 
ENDROOT
BRANCH   5  13
HETATM   13  O   UNK N   1      35.213  15.280   6.056  0.00  0.00    -0.349 OA
BRANCH  13  14
HETATM   14  C   UNK N   1      34.016  14.859   5.532  0.00  0.00     0.177 C 
BRANCH  14  15
HETATM   15  C   UNK N   1      33.450  15.988   4.709  0.00  0.00     0.057 C 
BRANCH  15  16
HETATM   16  C   UNK N   1      32.430  15.457   3.725  0.00  0.00     0.274 C 
BRANCH  16  17
HETATM   17  N   UNK N   1      31.093  15.773   4.200  0.00  0.00     0.092 N 
HETATM   18  C   UNK N   1      31.084  17.155   4.693  0.00  0.00     0.298 C 
HETATM   19  C   UNK N   1      29.650  17.544   5.049  0.00  0.00     0.198 C 
HETATM   20  O   UNK N   1      28.857  17.488   3.889  0.00  0.00    -0.388 OA
HETATM   21  C   UNK N   1      28.787  16.136   3.504  0.00  0.00     0.198 C 
HETATM   22  C   UNK N   1      30.175  15.658   3.067  0.00  0.00     0.298 C 
ENDBRANCH  16  17
ENDBRANCH  15  16
ENDBRANCH  14  15
ENDBRANCH  13  14
ENDBRANCH   5  13
BRANCH   6  23
HETATM   23  N   UNK N   1      33.912  16.430   8.469  0.00  0.00    -0.321 N 
HETATM   24  C   UNK N   1      33.726  17.696   8.007  0.00  0.00     0.245 C 
HETATM   25  O   UNK N   1      34.605  18.312   7.433  0.00  0.00    -0.268 OA
HETATM   26  H   UNK N   1      33.114  16.057   8.910  0.00  0.00     0.169 HD
BRANCH  24  27
HETATM   27  C   UNK N   1      32.411  18.326   8.220  0.00  0.00     0.064 C 
HETATM   28  C   UNK N   1      31.311  17.605   8.435  0.00  0.00     0.017 C 
ENDBRANCH  24  27
ENDBRANCH   6  23
BRANCH  11  29
HETATM   29  N   UNK N   1      36.439  14.544  12.238  0.00  0.00    -0.342 N 
HETATM   30  H   UNK N   1      36.194  15.493  12.152  0.00  0.00     0.167 HD
BRANCH  29  31
HETATM   31  C   UNK N   1      36.110  13.937  13.472  0.00  0.00     0.035 A 
HETATM   32  C   UNK N   1      35.160  12.915  13.456  0.00  0.00     0.056 A 
HETATM   33  C   UNK N   1      34.787  12.273  14.632  0.00  0.00     0.074 A 
HETATM   34 Cl   UNK N   1      33.590  10.994  14.567  0.00  0.00    -0.081 Cl
HETATM   35  C   UNK N   1      35.369  12.656  15.847  0.00  0.00     0.138 A 
HETATM   36  F   UNK N   1      35.013  12.038  16.999  0.00  0.00    -0.204 F 
HETATM   37  C   UNK N   1      36.322  13.682  15.871  0.00  0.00     0.046 A 
HETATM   38  C   UNK N   1      36.694  14.325  14.685  0.00  0.00     0.032 A 
ENDBRANCH  29  31
ENDBRANCH  11  29
TORSDOF 9
ENDMDL
MODEL 4
REMARK VINA RESULT:      -6.8     11.600     15.923
REMARK  9 active torsions:
REMARK  status: ('A' for Active; 'I' for Inactive)
REMARK    1  A    between atoms: O_4  and  C_19 
REMARK    2  A    between atoms: O_4  and  C_20 
REMARK    3  A    between atoms: N_6  and  C_13 
REMARK    4  A    between atoms: N_7  and  C_21 
REMARK       I    between atoms: N_7  and  C_29 
REMARK    5  A    between atoms: N_8  and  C_26 
REMARK    6  A    between atoms: N_8  and  C_27 
REMARK    7  A    between atoms: C_13  and  C_16 
REMARK    8  A    between atoms: C_16  and  C_19 
REMARK    9  A    between atoms: C_29  and  C_34 
ROOT
HETATM    1  N   UNK N   1      37.097  15.220  14.582  0.00  0.00    -0.351 N 
ATOM      2  HN  UNK N   1      37.598  15.924  14.039  1.00  0.00     0.166 HD
HETATM    3  N   UNK N   1      36.483  14.324  16.684  0.00  0.00    -0.338 N 
ATOM      4  HN  UNK N   1      36.525  14.362  17.702  1.00  0.00     0.168 HD
HETATM    5  C   UNK N   1      35.584  13.207  11.889  0.00  0.00     0.097 A 
HETATM    6  C   UNK N   1      34.894  12.224  12.658  0.00  0.00     0.069 A 
HETATM    7  C   UNK N   1      35.702  13.292  14.688  0.00  0.00     0.037 A 
HETATM    8  C   UNK N   1      36.325  14.213  12.552  0.00  0.00     0.069 A 
HETATM    9  C   UNK N   1      36.387  14.256  13.943  0.00  0.00     0.049 A 
HETATM   10  C   UNK N   1      34.972  12.298  14.045  0.00  0.00     0.050 A 
HETATM   11  C   UNK N   1      35.761  13.343  16.077  0.00  0.00     0.119 A 
HETATM   12  C   UNK N   1      37.148  15.257  15.944  0.00  0.00     0.182 A 
ENDROOT
BRANCH   5  13
HETATM   13  O   UNK N   1      35.542  13.188  10.544  0.00  0.00    -0.349 OA
BRANCH  13  14
HETATM   14  C   UNK N   1      36.518  13.711   9.732  0.00  0.00     0.177 C 
BRANCH  14  15
HETATM   15  C   UNK N   1      35.904  14.833   8.935  0.00  0.00     0.057 C 
BRANCH  15  16
HETATM   16  C   UNK N   1      34.403  14.655   8.852  0.00  0.00     0.274 C 
BRANCH  16  17
HETATM   17  N   UNK N   1      33.824  15.776   8.130  0.00  0.00     0.092 N 
HETATM   18  C   UNK N   1      34.187  17.018   8.823  0.00  0.00     0.298 C 
HETATM   19  C   UNK N   1      33.713  18.206   7.988  0.00  0.00     0.198 C 
HETATM   20  O   UNK N   1      34.375  18.188   6.746  0.00  0.00    -0.388 OA
HETATM   21  C   UNK N   1      33.922  17.048   6.056  0.00  0.00     0.198 C 
HETATM   22  C   UNK N   1      34.398  15.788   6.785  0.00  0.00     0.298 C 
ENDBRANCH  16  17
ENDBRANCH  15  16
ENDBRANCH  14  15
ENDBRANCH  13  14
ENDBRANCH   5  13
BRANCH   6  23
HETATM   23  N   UNK N   1      34.102  11.141  12.149  0.00  0.00    -0.321 N 
HETATM   24  C   UNK N   1      34.393  10.024  11.432  0.00  0.00     0.245 C 
HETATM   25  O   UNK N   1      35.527   9.757  11.079  0.00  0.00    -0.268 OA
HETATM   26  H   UNK N   1      33.145  11.226  12.366  0.00  0.00     0.169 HD
BRANCH  24  27
HETATM   27  C   UNK N   1      33.285   9.118  11.079  0.00  0.00     0.064 C 
HETATM   28  C   UNK N   1      33.502   7.896  10.592  0.00  0.00     0.017 C 
ENDBRANCH  24  27
ENDBRANCH   6  23
BRANCH  11  29
HETATM   29  N   UNK N   1      35.052  12.357  16.816  0.00  0.00    -0.342 N 
HETATM   30  H   UNK N   1      34.107  12.237  16.567  0.00  0.00     0.167 HD
BRANCH  29  31
HETATM   31  C   UNK N   1      35.520  11.526  17.858  0.00  0.00     0.035 A 
HETATM   32  C   UNK N   1      36.203  10.363  17.500  0.00  0.00     0.056 A 
HETATM   33  C   UNK N   1      36.693   9.497  18.473  0.00  0.00     0.074 A 
HETATM   34 Cl   UNK N   1      37.545   8.048  17.979  0.00  0.00    -0.081 Cl
HETATM   35  C   UNK N   1      36.497   9.793  19.827  0.00  0.00     0.138 A 
HETATM   36  F   UNK N   1      36.969   8.958  20.784  0.00  0.00    -0.204 F 
HETATM   37  C   UNK N   1      35.812  10.958  20.195  0.00  0.00     0.046 A 
HETATM   38  C   UNK N   1      35.321  11.826  19.212  0.00  0.00     0.032 A 
ENDBRANCH  29  31
ENDBRANCH  11  29
TORSDOF 9
ENDMDL
MODEL 5
REMARK VINA RESULT:      -6.6      5.575      9.187
REMARK  9 active torsions:
REMARK  status: ('A' for Active; 'I' for Inactive)
REMARK    1  A    between atoms: O_4  and  C_19 
REMARK    2  A    between atoms: O_4  and  C_20 
REMARK    3  A    between atoms: N_6  and  C_13 
REMARK    4  A    between atoms: N_7  and  C_21 
REMARK       I    between atoms: N_7  and  C_29 
REMARK    5  A    between atoms: N_8  and  C_26 
REMARK    6  A    between atoms: N_8  and  C_27 
REMARK    7  A    between atoms: C_13  and  C_16 
REMARK    8  A    between atoms: C_16  and  C_19 
REMARK    9  A    between atoms: C_29  and  C_34 
ROOT
HETATM    1  N   UNK N   1      26.804  12.496   4.574  0.00  0.00    -0.351 N 
ATOM      2  HN  UNK N   1      27.363  12.117   3.809  1.00  0.00     0.166 HD
HETATM    3  N   UNK N   1      25.119  12.201   6.209  0.00  0.00    -0.338 N 
ATOM      4  HN  UNK N   1      24.426  11.603   6.659  1.00  0.00     0.168 HD
HETATM    5  C   UNK N   1      28.147  15.923   4.787  0.00  0.00     0.097 A 
HETATM    6  C   UNK N   1      27.356  16.445   5.853  0.00  0.00     0.069 A 
HETATM    7  C   UNK N   1      26.230  14.296   6.025  0.00  0.00     0.037 A 
HETATM    8  C   UNK N   1      27.950  14.588   4.364  0.00  0.00     0.069 A 
HETATM    9  C   UNK N   1      26.996  13.778   4.978  0.00  0.00     0.049 A 
HETATM   10  C   UNK N   1      26.416  15.608   6.446  0.00  0.00     0.050 A 
HETATM   11  C   UNK N   1      25.284  13.481   6.639  0.00  0.00     0.119 A 
HETATM   12  C   UNK N   1      25.872  11.709   5.183  0.00  0.00     0.182 A 
ENDROOT
BRANCH   5  13
HETATM   13  O   UNK N   1      29.074  16.685   4.177  0.00  0.00    -0.349 OA
BRANCH  13  14
HETATM   14  C   UNK N   1      29.916  16.236   3.190  0.00  0.00     0.177 C 
BRANCH  14  15
HETATM   15  C   UNK N   1      31.272  16.850   3.425  0.00  0.00     0.057 C 
BRANCH  15  16
HETATM   16  C   UNK N   1      31.386  17.334   4.854  0.00  0.00     0.274 C 
BRANCH  16  17
HETATM   17  N   UNK N   1      32.391  16.547   5.550  0.00  0.00     0.092 N 
HETATM   18  C   UNK N   1      33.302  15.965   4.558  0.00  0.00     0.298 C 
HETATM   19  C   UNK N   1      34.447  15.264   5.288  0.00  0.00     0.198 C 
HETATM   20  O   UNK N   1      35.164  16.215   6.036  0.00  0.00    -0.388 OA
HETATM   21  C   UNK N   1      34.304  16.673   7.052  0.00  0.00     0.198 C 
HETATM   22  C   UNK N   1      33.141  17.447   6.425  0.00  0.00     0.298 C 
ENDBRANCH  16  17
ENDBRANCH  15  16
ENDBRANCH  14  15
ENDBRANCH  13  14
ENDBRANCH   5  13
BRANCH   6  23
HETATM   23  N   UNK N   1      27.426  17.769   6.401  0.00  0.00    -0.321 N 
HETATM   24  C   UNK N   1      27.233  19.010   5.881  0.00  0.00     0.245 C 
HETATM   25  O   UNK N   1      26.929  19.184   4.715  0.00  0.00    -0.268 OA
HETATM   26  H   UNK N   1      27.664  17.781   7.357  0.00  0.00     0.169 HD
BRANCH  24  27
HETATM   27  C   UNK N   1      27.401  20.171   6.774  0.00  0.00     0.064 C 
HETATM   28  C   UNK N   1      27.030  21.398   6.411  0.00  0.00     0.017 C 
ENDBRANCH  24  27
ENDBRANCH   6  23
BRANCH  11  29
HETATM   29  N   UNK N   1      24.521  14.026   7.707  0.00  0.00    -0.342 N 
HETATM   30  H   UNK N   1      24.237  14.962   7.594  0.00  0.00     0.167 HD
BRANCH  29  31
HETATM   31  C   UNK N   1      24.114  13.405   8.910  0.00  0.00     0.035 A 
HETATM   32  C   UNK N   1      22.749  13.390   9.199  0.00  0.00     0.056 A 
HETATM   33  C   UNK N   1      22.276  12.796  10.366  0.00  0.00     0.074 A 
HETATM   34 Cl   UNK N   1      20.554  12.799  10.691  0.00  0.00    -0.081 Cl
HETATM   35  C   UNK N   1      23.178  12.208  11.261  0.00  0.00     0.138 A 
HETATM   36  F   UNK N   1      22.730  11.627  12.399  0.00  0.00    -0.204 F 
HETATM   37  C   UNK N   1      24.550  12.220  10.977  0.00  0.00     0.046 A 
HETATM   38  C   UNK N   1      25.021  12.819   9.803  0.00  0.00     0.032 A 
ENDBRANCH  29  31
ENDBRANCH  11  29
TORSDOF 9
ENDMDL
MODEL 6
REMARK VINA RESULT:      -6.5      4.902      8.713
REMARK  9 active torsions:
REMARK  status: ('A' for Active; 'I' for Inactive)
REMARK    1  A    between atoms: O_4  and  C_19 
REMARK    2  A    between atoms: O_4  and  C_20 
REMARK    3  A    between atoms: N_6  and  C_13 
REMARK    4  A    between atoms: N_7  and  C_21 
REMARK       I    between atoms: N_7  and  C_29 
REMARK    5  A    between atoms: N_8  and  C_26 
REMARK    6  A    between atoms: N_8  and  C_27 
REMARK    7  A    between atoms: C_13  and  C_16 
REMARK    8  A    between atoms: C_16  and  C_19 
REMARK    9  A    between atoms: C_29  and  C_34 
ROOT
HETATM    1  N   UNK N   1      24.382  15.082   2.700  0.00  0.00    -0.351 N 
ATOM      2  HN  UNK N   1      24.698  15.084   1.730  1.00  0.00     0.166 HD
HETATM    3  N   UNK N   1      22.744  14.512   4.310  0.00  0.00    -0.338 N 
ATOM      4  HN  UNK N   1      21.844  14.090   4.536  1.00  0.00     0.168 HD
HETATM    5  C   UNK N   1      27.206  16.779   4.357  0.00  0.00     0.097 A 
HETATM    6  C   UNK N   1      26.751  16.777   5.709  0.00  0.00     0.069 A 
HETATM    7  C   UNK N   1      24.728  15.633   4.992  0.00  0.00     0.037 A 
HETATM    8  C   UNK N   1      26.395  16.203   3.350  0.00  0.00     0.069 A 
HETATM    9  C   UNK N   1      25.162  15.635   3.664  0.00  0.00     0.049 A 
HETATM   10  C   UNK N   1      25.517  16.197   5.988  0.00  0.00     0.050 A 
HETATM   11  C   UNK N   1      23.499  15.058   5.301  0.00  0.00     0.119 A 
HETATM   12  C   UNK N   1      23.179  14.524   3.017  0.00  0.00     0.182 A 
ENDROOT
BRANCH   5  13
HETATM   13  O   UNK N   1      28.391  17.322   4.026  0.00  0.00    -0.349 OA
BRANCH  13  14
HETATM   14  C   UNK N   1      29.570  16.622   3.950  0.00  0.00     0.177 C 
BRANCH  14  15
HETATM   15  C   UNK N   1      30.530  17.223   4.942  0.00  0.00     0.057 C 
BRANCH  15  16
HETATM   16  C   UNK N   1      30.651  16.331   6.159  0.00  0.00     0.274 C 
BRANCH  16  17
HETATM   17  N   UNK N   1      32.013  16.386   6.664  0.00  0.00     0.092 N 
HETATM   18  C   UNK N   1      32.929  16.542   5.528  0.00  0.00     0.298 C 
HETATM   19  C   UNK N   1      34.345  16.754   6.059  0.00  0.00     0.198 C 
HETATM   20  O   UNK N   1      34.379  17.941   6.815  0.00  0.00    -0.388 OA
HETATM   21  C   UNK N   1      33.585  17.724   7.957  0.00  0.00     0.198 C 
HETATM   22  C   UNK N   1      32.122  17.555   7.536  0.00  0.00     0.298 C 
ENDBRANCH  16  17
ENDBRANCH  15  16
ENDBRANCH  14  15
ENDBRANCH  13  14
ENDBRANCH   5  13
BRANCH   6  23
HETATM   23  N   UNK N   1      27.443  17.315   6.844  0.00  0.00    -0.321 N 
HETATM   24  C   UNK N   1      27.866  18.563   7.178  0.00  0.00     0.245 C 
HETATM   25  O   UNK N   1      27.685  19.525   6.455  0.00  0.00    -0.268 OA
HETATM   26  H   UNK N   1      27.656  16.637   7.526  0.00  0.00     0.169 HD
BRANCH  24  27
HETATM   27  C   UNK N   1      28.566  18.737   8.464  0.00  0.00     0.064 C 
HETATM   28  C   UNK N   1      28.547  17.798   9.409  0.00  0.00     0.017 C 
ENDBRANCH  24  27
ENDBRANCH   6  23
BRANCH  11  29
HETATM   29  N   UNK N   1      23.080  15.060   6.659  0.00  0.00    -0.342 N 
HETATM   30  H   UNK N   1      22.746  15.920   7.001  0.00  0.00     0.167 HD
BRANCH  29  31
HETATM   31  C   UNK N   1      23.078  13.992   7.586  0.00  0.00     0.035 A 
HETATM   32  C   UNK N   1      22.034  13.941   8.510  0.00  0.00     0.056 A 
HETATM   33  C   UNK N   1      21.967  12.919   9.452  0.00  0.00     0.074 A 
HETATM   34 Cl   UNK N   1      20.638  12.893  10.594  0.00  0.00    -0.081 Cl
HETATM   35  C   UNK N   1      22.958  11.930   9.474  0.00  0.00     0.138 A 
HETATM   36  F   UNK N   1      22.904  10.930  10.386  0.00  0.00    -0.204 F 
HETATM   37  C   UNK N   1      24.010  11.975   8.550  0.00  0.00     0.046 A 
HETATM   38  C   UNK N   1      24.072  13.005   7.605  0.00  0.00     0.032 A 
ENDBRANCH  29  31
ENDBRANCH  11  29
TORSDOF 9
ENDMDL
MODEL 7
REMARK VINA RESULT:      -6.5      5.287      9.508
REMARK  9 active torsions:
REMARK  status: ('A' for Active; 'I' for Inactive)
REMARK    1  A    between atoms: O_4  and  C_19 
REMARK    2  A    between atoms: O_4  and  C_20 
REMARK    3  A    between atoms: N_6  and  C_13 
REMARK    4  A    between atoms: N_7  and  C_21 
REMARK       I    between atoms: N_7  and  C_29 
REMARK    5  A    between atoms: N_8  and  C_26 
REMARK    6  A    between atoms: N_8  and  C_27 
REMARK    7  A    between atoms: C_13  and  C_16 
REMARK    8  A    between atoms: C_16  and  C_19 
REMARK    9  A    between atoms: C_29  and  C_34 
ROOT
HETATM    1  N   UNK N   1      27.288  12.620   4.837  0.00  0.00    -0.351 N 
ATOM      2  HN  UNK N   1      28.070  12.220   4.318  1.00  0.00     0.166 HD
HETATM    3  N   UNK N   1      25.184  12.350   5.885  0.00  0.00    -0.338 N 
ATOM      4  HN  UNK N   1      24.403  11.748   6.147  1.00  0.00     0.168 HD
HETATM    5  C   UNK N   1      28.390  16.124   5.162  0.00  0.00     0.097 A 
HETATM    6  C   UNK N   1      27.288  16.676   5.881  0.00  0.00     0.069 A 
HETATM    7  C   UNK N   1      26.232  14.485   5.877  0.00  0.00     0.037 A 
HETATM    8  C   UNK N   1      28.377  14.753   4.815  0.00  0.00     0.069 A 
HETATM    9  C   UNK N   1      27.304  13.937   5.168  0.00  0.00     0.049 A 
HETATM   10  C   UNK N   1      26.235  15.833   6.221  0.00  0.00     0.050 A 
HETATM   11  C   UNK N   1      25.166  13.665   6.234  0.00  0.00     0.119 A 
HETATM   12  C   UNK N   1      26.236  11.829   5.190  0.00  0.00     0.182 A 
ENDROOT
BRANCH   5  13
HETATM   13  O   UNK N   1      29.438  16.890   4.808  0.00  0.00    -0.349 OA
BRANCH  13  14
HETATM   14  C   UNK N   1      30.749  16.580   5.074  0.00  0.00     0.177 C 
BRANCH  14  15
HETATM   15  C   UNK N   1      31.111  17.197   6.399  0.00  0.00     0.057 C 
BRANCH  15  16
HETATM   16  C   UNK N   1      31.651  16.141   7.339  0.00  0.00     0.274 C 
BRANCH  16  17
HETATM   17  N   UNK N   1      33.034  16.447   7.663  0.00  0.00     0.092 N 
HETATM   18  C   UNK N   1      33.183  17.903   7.758  0.00  0.00     0.298 C 
HETATM   19  C   UNK N   1      34.594  18.225   8.248  0.00  0.00     0.198 C 
HETATM   20  O   UNK N   1      34.769  17.682   9.534  0.00  0.00    -0.388 OA
HETATM   21  C   UNK N   1      34.736  16.281   9.397  0.00  0.00     0.198 C 
HETATM   22  C   UNK N   1      33.335  15.844   8.961  0.00  0.00     0.298 C 
ENDBRANCH  16  17
ENDBRANCH  15  16
ENDBRANCH  14  15
ENDBRANCH  13  14
ENDBRANCH   5  13
BRANCH   6  23
HETATM   23  N   UNK N   1      27.142  18.038   6.308  0.00  0.00    -0.321 N 
HETATM   24  C   UNK N   1      26.776  19.184   5.675  0.00  0.00     0.245 C 
HETATM   25  O   UNK N   1      26.481  19.207   4.495  0.00  0.00    -0.268 OA
HETATM   26  H   UNK N   1      27.350  18.169   7.262  0.00  0.00     0.169 HD
BRANCH  24  27
HETATM   27  C   UNK N   1      26.742  20.430   6.462  0.00  0.00     0.064 C 
HETATM   28  C   UNK N   1      27.561  21.449   6.204  0.00  0.00     0.017 C 
ENDBRANCH  24  27
ENDBRANCH   6  23
BRANCH  11  29
HETATM   29  N   UNK N   1      24.089  14.242   6.961  0.00  0.00    -0.342 N 
HETATM   30  H   UNK N   1      23.813  15.141   6.672  0.00  0.00     0.167 HD
BRANCH  29  31
HETATM   31  C   UNK N   1      23.362  13.697   8.044  0.00  0.00     0.035 A 
HETATM   32  C   UNK N   1      24.090  13.190   9.121  0.00  0.00     0.056 A 
HETATM   33  C   UNK N   1      23.439  12.639  10.221  0.00  0.00     0.074 A 
HETATM   34 Cl   UNK N   1      24.392  12.013  11.553  0.00  0.00    -0.081 Cl
HETATM   35  C   UNK N   1      22.041  12.590  10.249  0.00  0.00     0.138 A 
HETATM   36  F   UNK N   1      21.397  12.056  11.315  0.00  0.00    -0.204 F 
HETATM   37  C   UNK N   1      21.303  13.097   9.171  0.00  0.00     0.046 A 
HETATM   38  C   UNK N   1      21.962  13.650   8.067  0.00  0.00     0.032 A 
ENDBRANCH  29  31
ENDBRANCH  11  29
TORSDOF 9
ENDMDL
MODEL 8
REMARK VINA RESULT:      -6.5      9.373     13.068
REMARK  9 active torsions:
REMARK  status: ('A' for Active; 'I' for Inactive)
REMARK    1  A    between atoms: O_4  and  C_19 
REMARK    2  A    between atoms: O_4  and  C_20 
REMARK    3  A    between atoms: N_6  and  C_13 
REMARK    4  A    between atoms: N_7  and  C_21 
REMARK       I    between atoms: N_7  and  C_29 
REMARK    5  A    between atoms: N_8  and  C_26 
REMARK    6  A    between atoms: N_8  and  C_27 
REMARK    7  A    between atoms: C_13  and  C_16 
REMARK    8  A    between atoms: C_16  and  C_19 
REMARK    9  A    between atoms: C_29  and  C_34 
ROOT
HETATM    1  N   UNK N   1      34.698  16.132  10.402  0.00  0.00    -0.351 N 
ATOM      2  HN  UNK N   1      34.169  16.907  10.001  1.00  0.00     0.166 HD
HETATM    3  N   UNK N   1      36.330  15.349  11.925  0.00  0.00    -0.338 N 
ATOM      4  HN  UNK N   1      37.013  15.542  12.658  1.00  0.00     0.168 HD
HETATM    5  C   UNK N   1      33.319  13.291   8.498  0.00  0.00     0.097 A 
HETATM    6  C   UNK N   1      34.070  12.216   9.059  0.00  0.00     0.069 A 
HETATM    7  C   UNK N   1      35.208  13.808  10.503  0.00  0.00     0.037 A 
HETATM    8  C   UNK N   1      33.542  14.610   8.960  0.00  0.00     0.069 A 
HETATM    9  C   UNK N   1      34.482  14.868   9.956  0.00  0.00     0.049 A 
HETATM   10  C   UNK N   1      34.997  12.509  10.054  0.00  0.00     0.050 A 
HETATM   11  C   UNK N   1      36.140  14.070  11.502  0.00  0.00     0.119 A 
HETATM   12  C   UNK N   1      35.617  16.375  11.379  0.00  0.00     0.182 A 
ENDROOT
BRANCH   5  13
HETATM   13  O   UNK N   1      32.407  13.069   7.534  0.00  0.00    -0.349 OA
BRANCH  13  14
HETATM   14  C   UNK N   1      32.498  13.558   6.254  0.00  0.00     0.177 C 
BRANCH  14  15
HETATM   15  C   UNK N   1      31.443  14.620   6.088  0.00  0.00     0.057 C 
BRANCH  15  16
HETATM   16  C   UNK N   1      31.989  15.780   5.283  0.00  0.00     0.274 C 
BRANCH  16  17
HETATM   17  N   UNK N   1      32.113  16.946   6.141  0.00  0.00     0.092 N 
HETATM   18  C   UNK N   1      31.273  16.748   7.327  0.00  0.00     0.298 C 
HETATM   19  C   UNK N   1      31.516  17.898   8.304  0.00  0.00     0.198 C 
HETATM   20  O   UNK N   1      32.862  17.877   8.712  0.00  0.00    -0.388 OA
HETATM   21  C   UNK N   1      33.640  18.183   7.580  0.00  0.00     0.198 C 
HETATM   22  C   UNK N   1      33.512  17.054   6.552  0.00  0.00     0.298 C 
ENDBRANCH  16  17
ENDBRANCH  15  16
ENDBRANCH  14  15
ENDBRANCH  13  14
ENDBRANCH   5  13
BRANCH   6  23
HETATM   23  N   UNK N   1      33.969  10.829   8.707  0.00  0.00    -0.321 N 
HETATM   24  C   UNK N   1      32.980   9.903   8.819  0.00  0.00     0.245 C 
HETATM   25  O   UNK N   1      31.894  10.170   9.299  0.00  0.00    -0.268 OA
HETATM   26  H   UNK N   1      34.791  10.472   8.297  0.00  0.00     0.169 HD
BRANCH  24  27
HETATM   27  C   UNK N   1      33.251   8.537   8.337  0.00  0.00     0.064 C 
HETATM   28  C   UNK N   1      33.807   7.611   9.118  0.00  0.00     0.017 C 
ENDBRANCH  24  27
ENDBRANCH   6  23
BRANCH  11  29
HETATM   29  N   UNK N   1      36.862  12.975  12.051  0.00  0.00    -0.342 N 
HETATM   30  H   UNK N   1      37.524  12.558  11.452  0.00  0.00     0.167 HD
BRANCH  29  31
HETATM   31  C   UNK N   1      36.759  12.405  13.340  0.00  0.00     0.035 A 
HETATM   32  C   UNK N   1      35.853  12.981  14.230  0.00  0.00     0.056 A 
HETATM   33  C   UNK N   1      35.698  12.471  15.516  0.00  0.00     0.074 A 
HETATM   34 Cl   UNK N   1      34.548  13.225  16.603  0.00  0.00    -0.081 Cl
HETATM   35  C   UNK N   1      36.461  11.370  15.923  0.00  0.00     0.138 A 
HETATM   36  F   UNK N   1      36.320  10.866  17.173  0.00  0.00    -0.204 F 
HETATM   37  C   UNK N   1      37.374  10.787  15.035  0.00  0.00     0.046 A 
HETATM   38  C   UNK N   1      37.526  11.303  13.743  0.00  0.00     0.032 A 
ENDBRANCH  29  31
ENDBRANCH  11  29
TORSDOF 9
ENDMDL
MODEL 9
REMARK VINA RESULT:      -6.4      3.093      5.192
REMARK  9 active torsions:
REMARK  status: ('A' for Active; 'I' for Inactive)
REMARK    1  A    between atoms: O_4  and  C_19 
REMARK    2  A    between atoms: O_4  and  C_20 
REMARK    3  A    between atoms: N_6  and  C_13 
REMARK    4  A    between atoms: N_7  and  C_21 
REMARK       I    between atoms: N_7  and  C_29 
REMARK    5  A    between atoms: N_8  and  C_26 
REMARK    6  A    between atoms: N_8  and  C_27 
REMARK    7  A    between atoms: C_13  and  C_16 
REMARK    8  A    between atoms: C_16  and  C_19 
REMARK    9  A    between atoms: C_29  and  C_34 
ROOT
HETATM    1  N   UNK N   1      26.953  13.721   2.742  0.00  0.00    -0.351 N 
ATOM      2  HN  UNK N   1      26.215  13.019   2.701  1.00  0.00     0.166 HD
HETATM    3  N   UNK N   1      29.126  14.434   2.134  0.00  0.00    -0.338 N 
ATOM      4  HN  UNK N   1      30.002  14.261   1.642  1.00  0.00     0.168 HD
HETATM    5  C   UNK N   1      25.349  16.296   4.838  0.00  0.00     0.097 A 
HETATM    6  C   UNK N   1      26.391  17.269   4.895  0.00  0.00     0.069 A 
HETATM    7  C   UNK N   1      27.766  15.828   3.500  0.00  0.00     0.037 A 
HETATM    8  C   UNK N   1      25.552  15.102   4.108  0.00  0.00     0.069 A 
HETATM    9  C   UNK N   1      26.755  14.867   3.444  0.00  0.00     0.049 A 
HETATM   10  C   UNK N   1      27.576  17.004   4.217  0.00  0.00     0.050 A 
HETATM   11  C   UNK N   1      28.963  15.592   2.829  0.00  0.00     0.119 A 
HETATM   12  C   UNK N   1      28.131  13.502   2.091  0.00  0.00     0.182 A 
ENDROOT
BRANCH   5  13
HETATM   13  O   UNK N   1      24.179  16.497   5.472  0.00  0.00    -0.349 OA
BRANCH  13  14
HETATM   14  C   UNK N   1      23.036  15.775   5.234  0.00  0.00     0.177 C 
BRANCH  14  15
HETATM   15  C   UNK N   1      22.003  16.717   4.671  0.00  0.00     0.057 C 
BRANCH  15  16
HETATM   16  C   UNK N   1      22.240  18.121   5.187  0.00  0.00     0.274 C 
BRANCH  16  17
HETATM   17  N   UNK N   1      21.516  19.068   4.354  0.00  0.00     0.092 N 
HETATM   18  C   UNK N   1      22.439  19.613   3.353  0.00  0.00     0.298 C 
HETATM   19  C   UNK N   1      21.652  20.490   2.380  0.00  0.00     0.198 C 
HETATM   20  O   UNK N   1      20.701  19.697   1.713  0.00  0.00    -0.388 OA
HETATM   21  C   UNK N   1      19.763  19.282   2.677  0.00  0.00     0.198 C 
HETATM   22  C   UNK N   1      20.443  18.342   3.677  0.00  0.00     0.298 C 
ENDBRANCH  16  17
ENDBRANCH  15  16
ENDBRANCH  14  15
ENDBRANCH  13  14
ENDBRANCH   5  13
BRANCH   6  23
HETATM   23  N   UNK N   1      26.350  18.525   5.587  0.00  0.00    -0.321 N 
HETATM   24  C   UNK N   1      26.160  19.810   5.184  0.00  0.00     0.245 C 
HETATM   25  O   UNK N   1      25.971  20.103   4.018  0.00  0.00    -0.268 OA
HETATM   26  H   UNK N   1      26.488  18.438   6.558  0.00  0.00     0.169 HD
BRANCH  24  27
HETATM   27  C   UNK N   1      26.189  20.869   6.209  0.00  0.00     0.064 C 
HETATM   28  C   UNK N   1      27.202  21.728   6.307  0.00  0.00     0.017 C 
ENDBRANCH  24  27
ENDBRANCH   6  23
BRANCH  11  29
HETATM   29  N   UNK N   1      29.976  16.587   2.893  0.00  0.00    -0.342 N 
HETATM   30  H   UNK N   1      29.917  17.299   2.216  0.00  0.00     0.167 HD
BRANCH  29  31
HETATM   31  C   UNK N   1      31.056  16.692   3.798  0.00  0.00     0.035 A 
HETATM   32  C   UNK N   1      31.020  15.892   4.942  0.00  0.00     0.056 A 
HETATM   33  C   UNK N   1      32.050  15.943   5.877  0.00  0.00     0.074 A 
HETATM   34 Cl   UNK N   1      31.966  14.921   7.299  0.00  0.00    -0.081 Cl
HETATM   35  C   UNK N   1      33.133  16.806   5.671  0.00  0.00     0.138 A 
HETATM   36  F   UNK N   1      34.141  16.864   6.575  0.00  0.00    -0.204 F 
HETATM   37  C   UNK N   1      33.175  17.612   4.527  0.00  0.00     0.046 A 
HETATM   38  C   UNK N   1      32.137  17.558   3.589  0.00  0.00     0.032 A 
ENDBRANCH  29  31
ENDBRANCH  11  29
TORSDOF 9
ENDMDL
