MODEL 1
REMARK VINA RESULT:      -7.4      0.000      0.000
REMARK  9 active torsions:
REMARK  status: ('A' for Active; 'I' for Inactive)
REMARK    1  A    between atoms: C_2  and  C_3 
REMARK    2  A    between atoms: C_4  and  C_25 
REMARK    3  A    between atoms: N_7  and  C_8 
REMARK    4  A    between atoms: C_8  and  C_9 
REMARK    5  A    between atoms: C_18  and  O_19 
REMARK    6  A    between atoms: O_19  and  C_20 
REMARK    7  A    between atoms: C_20  and  C_21 
REMARK    8  A    between atoms: C_21  and  O_23 
REMARK    9  A    between atoms: C_25  and  C_27 
REMARK       I    between atoms: C_27  and  N_29 
ROOT
HETATM    1  C   UNK N   1      28.985  16.973   4.747  0.00  0.00     0.027 A 
HETATM    2  C   UNK N   1      30.224  16.826   5.391  0.00  0.00     0.058 A 
HETATM    3  C   UNK N   1      30.057  17.353   6.668  0.00  0.00     0.041 A 
HETATM    4  C   UNK N   1      28.742  17.754   6.758  0.00  0.00     0.049 A 
HETATM    5  N   UNK N   1      28.073  17.530   5.602  0.00  0.00    -0.344 N 
HETATM    6  C   UNK N   1      28.222  18.323   7.921  0.00  0.00     0.031 A 
HETATM    7  C   UNK N   1      29.073  18.485   9.024  0.00  0.00     0.005 A 
HETATM    8  C   UNK N   1      30.423  18.100   8.940  0.00  0.00     0.038 A 
HETATM    9  C   UNK N   1      30.942  17.543   7.754  0.00  0.00     0.083 A 
ENDROOT
BRANCH   2  10
HETATM   10  C   UNK N   1      31.440  16.215   4.778  0.00  0.00     0.252 C 
HETATM   11  O   UNK N   1      31.612  15.009   4.876  0.00  0.00    -0.281 OA
BRANCH  10  12
HETATM   12  C   UNK N   1      32.518  17.030   4.163  0.00  0.00     0.290 C 
HETATM   13  O   UNK N   1      32.582  17.136   2.948  0.00  0.00    -0.264 OA
HETATM   14  N   UNK N   1      33.508  17.543   4.921  0.00  0.00    -0.363 N 
HETATM   15  H   UNK N   1      34.361  18.030   4.867  0.00  0.00     0.159 HD
HETATM   16  H   UNK N   1      33.303  17.367   5.868  0.00  0.00     0.159 HD
ENDBRANCH  10  12
ENDBRANCH   2  10
BRANCH   1  17
HETATM   17  C   UNK N   1      28.740  16.548   3.337  0.00  0.00     0.054 C 
HETATM   18  C   UNK N   1      27.971  15.238   3.292  0.00  0.00     0.011 C 
ENDBRANCH   1  17
BRANCH   5  19
HETATM   19  C   UNK N   1      26.640  17.904   5.512  0.00  0.00     0.167 C 
BRANCH  19  20
HETATM   20  C   UNK N   1      26.025  18.879   4.534  0.00  0.00    -0.040 A 
HETATM   21  C   UNK N   1      26.738  19.800   3.761  0.00  0.00     0.009 A 
HETATM   22  C   UNK N   1      26.077  20.663   2.882  0.00  0.00     0.001 A 
HETATM   23  C   UNK N   1      24.688  20.606   2.758  0.00  0.00     0.000 A 
HETATM   24  C   UNK N   1      23.964  19.684   3.513  0.00  0.00     0.001 A 
HETATM   25  C   UNK N   1      24.631  18.829   4.397  0.00  0.00     0.009 A 
ENDBRANCH  19  20
ENDBRANCH   5  19
BRANCH   9  26
HETATM   26  O   UNK N   1      32.256  17.228   7.643  0.00  0.00    -0.341 OA
BRANCH  26  27
HETATM   27  C   UNK N   1      33.128  17.104   8.711  0.00  0.00     0.286 C 
BRANCH  27  28
HETATM   28  C   UNK N   1      34.443  17.809   8.579  0.00  0.00     0.282 C 
HETATM   29  O   UNK N   1      34.727  18.431   7.566  0.00  0.00    -0.263 OA
BRANCH  28  30
HETATM   30  O   UNK N   1      35.308  17.740   9.621  0.00  0.00    -0.325 OA
HETATM   31  C   UNK N   1      35.334  16.684  10.500  0.00  0.00     0.213 C 
ENDBRANCH  28  30
ENDBRANCH  27  28
ENDBRANCH  26  27
ENDBRANCH   9  26
TORSDOF 9
ENDMDL
MODEL 2
REMARK VINA RESULT:      -7.2      2.343      4.574
REMARK  9 active torsions:
REMARK  status: ('A' for Active; 'I' for Inactive)
REMARK    1  A    between atoms: C_2  and  C_3 
REMARK    2  A    between atoms: C_4  and  C_25 
REMARK    3  A    between atoms: N_7  and  C_8 
REMARK    4  A    between atoms: C_8  and  C_9 
REMARK    5  A    between atoms: C_18  and  O_19 
REMARK    6  A    between atoms: O_19  and  C_20 
REMARK    7  A    between atoms: C_20  and  C_21 
REMARK    8  A    between atoms: C_21  and  O_23 
REMARK    9  A    between atoms: C_25  and  C_27 
REMARK       I    between atoms: C_27  and  N_29 
ROOT
HETATM    1  C   UNK N   1      31.448  17.720   7.567  0.00  0.00     0.027 A 
HETATM    2  C   UNK N   1      32.796  17.410   7.327  0.00  0.00     0.058 A 
HETATM    3  C   UNK N   1      32.821  16.718   6.120  0.00  0.00     0.041 A 
HETATM    4  C   UNK N   1      31.520  16.672   5.667  0.00  0.00     0.049 A 
HETATM    5  N   UNK N   1      30.671  17.277   6.532  0.00  0.00    -0.344 N 
HETATM    6  C   UNK N   1      31.180  16.055   4.463  0.00  0.00     0.031 A 
HETATM    7  C   UNK N   1      32.200  15.471   3.699  0.00  0.00     0.005 A 
HETATM    8  C   UNK N   1      33.529  15.491   4.158  0.00  0.00     0.038 A 
HETATM    9  C   UNK N   1      33.860  16.101   5.386  0.00  0.00     0.083 A 
ENDROOT
BRANCH   2  10
HETATM   10  C   UNK N   1      33.932  17.778   8.223  0.00  0.00     0.252 C 
HETATM   11  O   UNK N   1      34.662  18.705   7.904  0.00  0.00    -0.281 OA
BRANCH  10  12
HETATM   12  C   UNK N   1      34.290  16.982   9.424  0.00  0.00     0.290 C 
HETATM   13  O   UNK N   1      35.325  17.223  10.025  0.00  0.00    -0.264 OA
HETATM   14  N   UNK N   1      33.557  15.908   9.780  0.00  0.00    -0.363 N 
HETATM   15  H   UNK N   1      33.529  15.156  10.413  0.00  0.00     0.159 HD
HETATM   16  H   UNK N   1      32.766  15.859   9.195  0.00  0.00     0.159 HD
ENDBRANCH  10  12
ENDBRANCH   2  10
BRANCH   1  17
HETATM   17  C   UNK N   1      30.980  18.449   8.783  0.00  0.00     0.054 C 
HETATM   18  C   UNK N   1      29.949  17.630   9.543  0.00  0.00     0.011 C 
ENDBRANCH   1  17
BRANCH   5  19
HETATM   19  C   UNK N   1      29.223  17.322   6.210  0.00  0.00     0.167 C 
BRANCH  19  20
HETATM   20  C   UNK N   1      28.401  18.561   5.938  0.00  0.00    -0.040 A 
HETATM   21  C   UNK N   1      27.895  19.421   6.916  0.00  0.00     0.009 A 
HETATM   22  C   UNK N   1      27.143  20.546   6.563  0.00  0.00     0.001 A 
HETATM   23  C   UNK N   1      26.899  20.830   5.219  0.00  0.00     0.000 A 
HETATM   24  C   UNK N   1      27.408  19.988   4.231  0.00  0.00     0.001 A 
HETATM   25  C   UNK N   1      28.152  18.860   4.591  0.00  0.00     0.009 A 
ENDBRANCH  19  20
ENDBRANCH   5  19
BRANCH   9  26
HETATM   26  O   UNK N   1      35.127  16.070   5.866  0.00  0.00    -0.341 OA
BRANCH  26  27
HETATM   27  C   UNK N   1      35.852  14.913   6.095  0.00  0.00     0.286 C 
BRANCH  27  28
HETATM   28  C   UNK N   1      35.672  14.271   7.436  0.00  0.00     0.282 C 
HETATM   29  O   UNK N   1      34.588  13.824   7.782  0.00  0.00    -0.263 OA
BRANCH  28  30
HETATM   30  O   UNK N   1      36.751  14.196   8.254  0.00  0.00    -0.325 OA
HETATM   31  C   UNK N   1      36.651  13.928   9.598  0.00  0.00     0.213 C 
ENDBRANCH  28  30
ENDBRANCH  27  28
ENDBRANCH  26  27
ENDBRANCH   9  26
TORSDOF 9
ENDMDL
MODEL 3
REMARK VINA RESULT:      -6.9      1.877      3.768
REMARK  9 active torsions:
REMARK  status: ('A' for Active; 'I' for Inactive)
REMARK    1  A    between atoms: C_2  and  C_3 
REMARK    2  A    between atoms: C_4  and  C_25 
REMARK    3  A    between atoms: N_7  and  C_8 
REMARK    4  A    between atoms: C_8  and  C_9 
REMARK    5  A    between atoms: C_18  and  O_19 
REMARK    6  A    between atoms: O_19  and  C_20 
REMARK    7  A    between atoms: C_20  and  C_21 
REMARK    8  A    between atoms: C_21  and  O_23 
REMARK    9  A    between atoms: C_25  and  C_27 
REMARK       I    between atoms: C_27  and  N_29 
ROOT
HETATM    1  C   UNK N   1      28.347  18.669   6.522  0.00  0.00     0.027 A 
HETATM    2  C   UNK N   1      29.305  18.045   7.337  0.00  0.00     0.058 A 
HETATM    3  C   UNK N   1      30.063  17.243   6.488  0.00  0.00     0.041 A 
HETATM    4  C   UNK N   1      29.570  17.439   5.217  0.00  0.00     0.049 A 
HETATM    5  N   UNK N   1      28.528  18.304   5.216  0.00  0.00    -0.344 N 
HETATM    6  C   UNK N   1      30.113  16.791   4.107  0.00  0.00     0.031 A 
HETATM    7  C   UNK N   1      31.193  15.919   4.304  0.00  0.00     0.005 A 
HETATM    8  C   UNK N   1      31.693  15.692   5.599  0.00  0.00     0.038 A 
HETATM    9  C   UNK N   1      31.126  16.338   6.716  0.00  0.00     0.083 A 
ENDROOT
BRANCH   2  10
HETATM   10  C   UNK N   1      29.437  18.244   8.810  0.00  0.00     0.252 C 
HETATM   11  O   UNK N   1      30.100  19.183   9.224  0.00  0.00    -0.281 OA
BRANCH  10  12
HETATM   12  C   UNK N   1      28.902  17.272   9.796  0.00  0.00     0.290 C 
HETATM   13  O   UNK N   1      27.700  17.063   9.853  0.00  0.00    -0.264 OA
HETATM   14  N   UNK N   1      29.710  16.719  10.723  0.00  0.00    -0.363 N 
HETATM   15  H   UNK N   1      29.705  16.141  11.520  0.00  0.00     0.159 HD
HETATM   16  H   UNK N   1      30.638  16.991  10.535  0.00  0.00     0.159 HD
ENDBRANCH  10  12
ENDBRANCH   2  10
BRANCH   1  17
HETATM   17  C   UNK N   1      27.311  19.607   7.049  0.00  0.00     0.054 C 
HETATM   18  C   UNK N   1      27.559  21.023   6.553  0.00  0.00     0.011 C 
ENDBRANCH   1  17
BRANCH   5  19
HETATM   19  C   UNK N   1      27.864  18.635   3.930  0.00  0.00     0.167 C 
BRANCH  19  20
HETATM   20  C   UNK N   1      26.422  19.048   3.744  0.00  0.00    -0.040 A 
HETATM   21  C   UNK N   1      25.997  20.253   3.179  0.00  0.00     0.009 A 
HETATM   22  C   UNK N   1      24.636  20.545   3.049  0.00  0.00     0.001 A 
HETATM   23  C   UNK N   1      23.680  19.623   3.477  0.00  0.00     0.000 A 
HETATM   24  C   UNK N   1      24.088  18.410   4.032  0.00  0.00     0.001 A 
HETATM   25  C   UNK N   1      25.451  18.128   4.166  0.00  0.00     0.009 A 
ENDBRANCH  19  20
ENDBRANCH   5  19
BRANCH   9  26
HETATM   26  O   UNK N   1      31.560  16.077   7.973  0.00  0.00    -0.341 OA
BRANCH  26  27
HETATM   27  C   UNK N   1      32.889  16.065   8.359  0.00  0.00     0.286 C 
BRANCH  27  28
HETATM   28  C   UNK N   1      33.512  17.400   8.632  0.00  0.00     0.282 C 
HETATM   29  O   UNK N   1      33.057  18.422   8.139  0.00  0.00    -0.263 OA
BRANCH  28  30
HETATM   30  O   UNK N   1      34.596  17.441   9.446  0.00  0.00    -0.325 OA
HETATM   31  C   UNK N   1      34.938  16.408  10.285  0.00  0.00     0.213 C 
ENDBRANCH  28  30
ENDBRANCH  27  28
ENDBRANCH  26  27
ENDBRANCH   9  26
TORSDOF 9
ENDMDL
MODEL 4
REMARK VINA RESULT:      -6.5     10.945     14.698
REMARK  9 active torsions:
REMARK  status: ('A' for Active; 'I' for Inactive)
REMARK    1  A    between atoms: C_2  and  C_3 
REMARK    2  A    between atoms: C_4  and  C_25 
REMARK    3  A    between atoms: N_7  and  C_8 
REMARK    4  A    between atoms: C_8  and  C_9 
REMARK    5  A    between atoms: C_18  and  O_19 
REMARK    6  A    between atoms: O_19  and  C_20 
REMARK    7  A    between atoms: C_20  and  C_21 
REMARK    8  A    between atoms: C_21  and  O_23 
REMARK    9  A    between atoms: C_25  and  C_27 
REMARK       I    between atoms: C_27  and  N_29 
ROOT
HETATM    1  C   UNK N   1      35.534  12.097  17.022  0.00  0.00     0.027 A 
HETATM    2  C   UNK N   1      35.937  12.106  15.677  0.00  0.00     0.058 A 
HETATM    3  C   UNK N   1      36.695  10.952  15.498  0.00  0.00     0.041 A 
HETATM    4  C   UNK N   1      36.688  10.286  16.705  0.00  0.00     0.049 A 
HETATM    5  N   UNK N   1      35.986  10.965  17.643  0.00  0.00    -0.344 N 
HETATM    6  C   UNK N   1      37.348   9.070  16.880  0.00  0.00     0.031 A 
HETATM    7  C   UNK N   1      38.034   8.518  15.789  0.00  0.00     0.005 A 
HETATM    8  C   UNK N   1      38.068   9.197  14.557  0.00  0.00     0.038 A 
HETATM    9  C   UNK N   1      37.413  10.434  14.396  0.00  0.00     0.083 A 
ENDROOT
BRANCH   2  10
HETATM   10  C   UNK N   1      35.589  13.165  14.685  0.00  0.00     0.252 C 
HETATM   11  O   UNK N   1      34.586  13.030  14.001  0.00  0.00    -0.281 OA
BRANCH  10  12
HETATM   12  C   UNK N   1      36.482  14.317  14.403  0.00  0.00     0.290 C 
HETATM   13  O   UNK N   1      37.196  14.763  15.288  0.00  0.00    -0.264 OA
HETATM   14  N   UNK N   1      36.415  14.965  13.223  0.00  0.00    -0.363 N 
HETATM   15  H   UNK N   1      36.763  15.750  12.741  0.00  0.00     0.159 HD
HETATM   16  H   UNK N   1      35.796  14.479  12.631  0.00  0.00     0.159 HD
ENDBRANCH  10  12
ENDBRANCH   2  10
BRANCH   1  17
HETATM   17  C   UNK N   1      34.711  13.182  17.636  0.00  0.00     0.054 C 
HETATM   18  C   UNK N   1      35.599  14.244  18.266  0.00  0.00     0.011 C 
ENDBRANCH   1  17
BRANCH   5  19
HETATM   19  C   UNK N   1      35.871  10.399  19.010  0.00  0.00     0.167 C 
BRANCH  19  20
HETATM   20  C   UNK N   1      34.599   9.948  19.692  0.00  0.00    -0.040 A 
HETATM   21  C   UNK N   1      34.152  10.396  20.937  0.00  0.00     0.009 A 
HETATM   22  C   UNK N   1      32.958   9.918  21.487  0.00  0.00     0.001 A 
HETATM   23  C   UNK N   1      32.189   8.989  20.785  0.00  0.00     0.000 A 
HETATM   24  C   UNK N   1      32.616   8.542  19.535  0.00  0.00     0.001 A 
HETATM   25  C   UNK N   1      33.815   9.018  18.995  0.00  0.00     0.009 A 
ENDBRANCH  19  20
ENDBRANCH   5  19
BRANCH   9  26
HETATM   26  O   UNK N   1      37.494  11.125  13.233  0.00  0.00    -0.341 OA
BRANCH  26  27
HETATM   27  C   UNK N   1      36.798  10.807  12.079  0.00  0.00     0.286 C 
BRANCH  27  28
HETATM   28  C   UNK N   1      36.454  11.950  11.175  0.00  0.00     0.282 C 
HETATM   29  O   UNK N   1      35.455  11.921  10.471  0.00  0.00    -0.263 OA
BRANCH  28  30
HETATM   30  O   UNK N   1      37.282  13.023  11.165  0.00  0.00    -0.325 OA
HETATM   31  C   UNK N   1      38.485  13.032  10.500  0.00  0.00     0.213 C 
ENDBRANCH  28  30
ENDBRANCH  27  28
ENDBRANCH  26  27
ENDBRANCH   9  26
TORSDOF 9
ENDMDL
MODEL 5
REMARK VINA RESULT:      -6.5      4.179      8.140
REMARK  9 active torsions:
REMARK  status: ('A' for Active; 'I' for Inactive)
REMARK    1  A    between atoms: C_2  and  C_3 
REMARK    2  A    between atoms: C_4  and  C_25 
REMARK    3  A    between atoms: N_7  and  C_8 
REMARK    4  A    between atoms: C_8  and  C_9 
REMARK    5  A    between atoms: C_18  and  O_19 
REMARK    6  A    between atoms: O_19  and  C_20 
REMARK    7  A    between atoms: C_20  and  C_21 
REMARK    8  A    between atoms: C_21  and  O_23 
REMARK    9  A    between atoms: C_25  and  C_27 
REMARK       I    between atoms: C_27  and  N_29 
ROOT
HETATM    1  C   UNK N   1      27.340  16.452   5.645  0.00  0.00     0.027 A 
HETATM    2  C   UNK N   1      26.442  17.087   4.773  0.00  0.00     0.058 A 
HETATM    3  C   UNK N   1      26.533  18.447   5.054  0.00  0.00     0.041 A 
HETATM    4  C   UNK N   1      27.489  18.582   6.037  0.00  0.00     0.049 A 
HETATM    5  N   UNK N   1      27.993  17.381   6.408  0.00  0.00    -0.344 N 
HETATM    6  C   UNK N   1      27.846  19.828   6.552  0.00  0.00     0.031 A 
HETATM    7  C   UNK N   1      27.206  20.969   6.047  0.00  0.00     0.005 A 
HETATM    8  C   UNK N   1      26.213  20.845   5.059  0.00  0.00     0.038 A 
HETATM    9  C   UNK N   1      25.847  19.580   4.557  0.00  0.00     0.083 A 
ENDROOT
BRANCH   2  10
HETATM   10  C   UNK N   1      25.590  16.390   3.764  0.00  0.00     0.252 C 
HETATM   11  O   UNK N   1      26.051  16.160   2.656  0.00  0.00    -0.281 OA
BRANCH  10  12
HETATM   12  C   UNK N   1      24.159  16.079   4.008  0.00  0.00     0.290 C 
HETATM   13  O   UNK N   1      23.662  16.323   5.096  0.00  0.00    -0.264 OA
HETATM   14  N   UNK N   1      23.437  15.404   3.091  0.00  0.00    -0.363 N 
HETATM   15  H   UNK N   1      22.559  14.986   2.941  0.00  0.00     0.159 HD
HETATM   16  H   UNK N   1      23.986  15.288   2.281  0.00  0.00     0.159 HD
ENDBRANCH  10  12
ENDBRANCH   2  10
BRANCH   1  17
HETATM   17  C   UNK N   1      27.535  14.972   5.684  0.00  0.00     0.054 C 
HETATM   18  C   UNK N   1      28.787  14.570   4.920  0.00  0.00     0.011 C 
ENDBRANCH   1  17
BRANCH   5  19
HETATM   19  C   UNK N   1      29.036  17.330   7.462  0.00  0.00     0.167 C 
BRANCH  19  20
HETATM   20  C   UNK N   1      30.532  17.391   7.249  0.00  0.00    -0.040 A 
HETATM   21  C   UNK N   1      31.181  17.164   6.034  0.00  0.00     0.009 A 
HETATM   22  C   UNK N   1      32.574  17.243   5.937  0.00  0.00     0.001 A 
HETATM   23  C   UNK N   1      33.335  17.565   7.061  0.00  0.00     0.000 A 
HETATM   24  C   UNK N   1      32.701  17.807   8.279  0.00  0.00     0.001 A 
HETATM   25  C   UNK N   1      31.308  17.717   8.371  0.00  0.00     0.009 A 
ENDBRANCH  19  20
ENDBRANCH   5  19
BRANCH   9  26
HETATM   26  O   UNK N   1      24.847  19.445   3.652  0.00  0.00    -0.341 OA
BRANCH  26  27
HETATM   27  C   UNK N   1      24.188  20.502   3.046  0.00  0.00     0.286 C 
BRANCH  27  28
HETATM   28  C   UNK N   1      22.696  20.393   2.964  0.00  0.00     0.282 C 
HETATM   29  O   UNK N   1      22.009  21.352   2.645  0.00  0.00    -0.263 OA
BRANCH  28  30
HETATM   30  O   UNK N   1      22.131  19.194   3.248  0.00  0.00    -0.325 OA
HETATM   31  C   UNK N   1      21.278  19.004   4.308  0.00  0.00     0.213 C 
ENDBRANCH  28  30
ENDBRANCH  27  28
ENDBRANCH  26  27
ENDBRANCH   9  26
TORSDOF 9
ENDMDL
MODEL 6
REMARK VINA RESULT:      -6.4     11.010     15.163
REMARK  9 active torsions:
REMARK  status: ('A' for Active; 'I' for Inactive)
REMARK    1  A    between atoms: C_2  and  C_3 
REMARK    2  A    between atoms: C_4  and  C_25 
REMARK    3  A    between atoms: N_7  and  C_8 
REMARK    4  A    between atoms: C_8  and  C_9 
REMARK    5  A    between atoms: C_18  and  O_19 
REMARK    6  A    between atoms: O_19  and  C_20 
REMARK    7  A    between atoms: C_20  and  C_21 
REMARK    8  A    between atoms: C_21  and  O_23 
REMARK    9  A    between atoms: C_25  and  C_27 
REMARK       I    between atoms: C_27  and  N_29 
ROOT
HETATM    1  C   UNK N   1      29.812  22.904  -4.278  0.00  0.00     0.027 A 
HETATM    2  C   UNK N   1      28.782  23.256  -5.166  0.00  0.00     0.058 A 
HETATM    3  C   UNK N   1      28.826  22.315  -6.191  0.00  0.00     0.041 A 
HETATM    4  C   UNK N   1      29.831  21.430  -5.871  0.00  0.00     0.049 A 
HETATM    5  N   UNK N   1      30.441  21.770  -4.710  0.00  0.00    -0.344 N 
HETATM    6  C   UNK N   1      30.143  20.341  -6.685  0.00  0.00     0.031 A 
HETATM    7  C   UNK N   1      29.403  20.152  -7.861  0.00  0.00     0.005 A 
HETATM    8  C   UNK N   1      28.387  21.060  -8.212  0.00  0.00     0.038 A 
HETATM    9  C   UNK N   1      28.093  22.167  -7.392  0.00  0.00     0.083 A 
ENDROOT
BRANCH   2  10
HETATM   10  C   UNK N   1      27.858  24.414  -4.990  0.00  0.00     0.252 C 
HETATM   11  O   UNK N   1      28.296  25.547  -5.113  0.00  0.00    -0.281 OA
BRANCH  10  12
HETATM   12  C   UNK N   1      26.452  24.250  -4.542  0.00  0.00     0.290 C 
HETATM   13  O   UNK N   1      26.203  24.135  -3.352  0.00  0.00    -0.264 OA
HETATM   14  N   UNK N   1      25.459  24.088  -5.440  0.00  0.00    -0.363 N 
HETATM   15  H   UNK N   1      24.497  23.893  -5.515  0.00  0.00     0.159 HD
HETATM   16  H   UNK N   1      25.830  24.207  -6.345  0.00  0.00     0.159 HD
ENDBRANCH  10  12
ENDBRANCH   2  10
BRANCH   1  17
HETATM   17  C   UNK N   1      30.123  23.679  -3.039  0.00  0.00     0.054 C 
HETATM   18  C   UNK N   1      29.486  23.030  -1.820  0.00  0.00     0.011 C 
ENDBRANCH   1  17
BRANCH   5  19
HETATM   19  C   UNK N   1      31.556  20.928  -4.206  0.00  0.00     0.167 C 
BRANCH  19  20
HETATM   20  C   UNK N   1      33.033  21.217  -4.347  0.00  0.00    -0.040 A 
HETATM   21  C   UNK N   1      34.060  20.418  -3.840  0.00  0.00     0.009 A 
HETATM   22  C   UNK N   1      35.401  20.770  -4.022  0.00  0.00     0.001 A 
HETATM   23  C   UNK N   1      35.730  21.928  -4.728  0.00  0.00     0.000 A 
HETATM   24  C   UNK N   1      34.716  22.730  -5.251  0.00  0.00     0.001 A 
HETATM   25  C   UNK N   1      33.377  22.376  -5.058  0.00  0.00     0.009 A 
ENDBRANCH  19  20
ENDBRANCH   5  19
BRANCH   9  26
HETATM   26  O   UNK N   1      27.160  23.081  -7.754  0.00  0.00    -0.341 OA
BRANCH  26  27
HETATM   27  C   UNK N   1      26.686  23.252  -9.044  0.00  0.00     0.286 C 
BRANCH  27  28
HETATM   28  C   UNK N   1      25.245  23.637  -9.175  0.00  0.00     0.282 C 
HETATM   29  O   UNK N   1      24.403  23.206  -8.401  0.00  0.00    -0.263 OA
BRANCH  28  30
HETATM   30  O   UNK N   1      24.902  24.482 -10.178  0.00  0.00    -0.325 OA
HETATM   31  C   UNK N   1      25.263  25.808 -10.193  0.00  0.00     0.213 C 
ENDBRANCH  28  30
ENDBRANCH  27  28
ENDBRANCH  26  27
ENDBRANCH   9  26
TORSDOF 9
ENDMDL
MODEL 7
REMARK VINA RESULT:      -6.4     10.541     13.000
REMARK  9 active torsions:
REMARK  status: ('A' for Active; 'I' for Inactive)
REMARK    1  A    between atoms: C_2  and  C_3 
REMARK    2  A    between atoms: C_4  and  C_25 
REMARK    3  A    between atoms: N_7  and  C_8 
REMARK    4  A    between atoms: C_8  and  C_9 
REMARK    5  A    between atoms: C_18  and  O_19 
REMARK    6  A    between atoms: O_19  and  C_20 
REMARK    7  A    between atoms: C_20  and  C_21 
REMARK    8  A    between atoms: C_21  and  O_23 
REMARK    9  A    between atoms: C_25  and  C_27 
REMARK       I    between atoms: C_27  and  N_29 
ROOT
HETATM    1  C   UNK N   1      29.344  23.192  -5.254  0.00  0.00     0.027 A 
HETATM    2  C   UNK N   1      30.476  22.365  -5.171  0.00  0.00     0.058 A 
HETATM    3  C   UNK N   1      30.265  21.336  -6.084  0.00  0.00     0.041 A 
HETATM    4  C   UNK N   1      29.058  21.596  -6.697  0.00  0.00     0.049 A 
HETATM    5  N   UNK N   1      28.484  22.721  -6.208  0.00  0.00    -0.344 N 
HETATM    6  C   UNK N   1      28.539  20.762  -7.688  0.00  0.00     0.031 A 
HETATM    7  C   UNK N   1      29.277  19.630  -8.063  0.00  0.00     0.005 A 
HETATM    8  C   UNK N   1      30.499  19.340  -7.431  0.00  0.00     0.038 A 
HETATM    9  C   UNK N   1      31.006  20.179  -6.419  0.00  0.00     0.083 A 
ENDROOT
BRANCH   2  10
HETATM   10  C   UNK N   1      31.641  22.597  -4.268  0.00  0.00     0.252 C 
HETATM   11  O   UNK N   1      32.577  23.273  -4.670  0.00  0.00    -0.281 OA
BRANCH  10  12
HETATM   12  C   UNK N   1      31.771  21.932  -2.947  0.00  0.00     0.290 C 
HETATM   13  O   UNK N   1      31.214  22.408  -1.971  0.00  0.00    -0.264 OA
HETATM   14  N   UNK N   1      32.606  20.886  -2.784  0.00  0.00    -0.363 N 
HETATM   15  H   UNK N   1      32.982  20.286  -2.101  0.00  0.00     0.159 HD
HETATM   16  H   UNK N   1      32.970  20.633  -3.664  0.00  0.00     0.159 HD
ENDBRANCH  10  12
ENDBRANCH   2  10
BRANCH   1  17
HETATM   17  C   UNK N   1      29.159  24.413  -4.413  0.00  0.00     0.054 C 
HETATM   18  C   UNK N   1      28.291  24.111  -3.202  0.00  0.00     0.011 C 
ENDBRANCH   1  17
BRANCH   5  19
HETATM   19  C   UNK N   1      27.173  23.158  -6.749  0.00  0.00     0.167 C 
BRANCH  19  20
HETATM   20  C   UNK N   1      26.514  24.501  -6.533  0.00  0.00    -0.040 A 
HETATM   21  C   UNK N   1      25.568  24.783  -5.545  0.00  0.00     0.009 A 
HETATM   22  C   UNK N   1      25.014  26.061  -5.424  0.00  0.00     0.001 A 
HETATM   23  C   UNK N   1      25.414  27.080  -6.290  0.00  0.00     0.000 A 
HETATM   24  C   UNK N   1      26.367  26.818  -7.274  0.00  0.00     0.001 A 
HETATM   25  C   UNK N   1      26.910  25.535  -7.394  0.00  0.00     0.009 A 
ENDBRANCH  19  20
ENDBRANCH   5  19
BRANCH   9  26
HETATM   26  O   UNK N   1      32.151  19.874  -5.760  0.00  0.00    -0.341 OA
BRANCH  26  27
HETATM   27  C   UNK N   1      33.386  19.713  -6.364  0.00  0.00     0.286 C 
BRANCH  27  28
HETATM   28  C   UNK N   1      34.466  20.654  -5.925  0.00  0.00     0.282 C 
HETATM   29  O   UNK N   1      34.879  21.533  -6.668  0.00  0.00    -0.263 OA
BRANCH  28  30
HETATM   30  O   UNK N   1      34.970  20.503  -4.676  0.00  0.00    -0.325 OA
HETATM   31  C   UNK N   1      35.985  21.286  -4.181  0.00  0.00     0.213 C 
ENDBRANCH  28  30
ENDBRANCH  27  28
ENDBRANCH  26  27
ENDBRANCH   9  26
TORSDOF 9
ENDMDL
MODEL 8
REMARK VINA RESULT:      -6.4      5.174      8.976
REMARK  9 active torsions:
REMARK  status: ('A' for Active; 'I' for Inactive)
REMARK    1  A    between atoms: C_2  and  C_3 
REMARK    2  A    between atoms: C_4  and  C_25 
REMARK    3  A    between atoms: N_7  and  C_8 
REMARK    4  A    between atoms: C_8  and  C_9 
REMARK    5  A    between atoms: C_18  and  O_19 
REMARK    6  A    between atoms: O_19  and  C_20 
REMARK    7  A    between atoms: C_20  and  C_21 
REMARK    8  A    between atoms: C_21  and  O_23 
REMARK    9  A    between atoms: C_25  and  C_27 
REMARK       I    between atoms: C_27  and  N_29 
ROOT
HETATM    1  C   UNK N   1      26.139  16.648   5.504  0.00  0.00     0.027 A 
HETATM    2  C   UNK N   1      24.985  17.194   4.919  0.00  0.00     0.058 A 
HETATM    3  C   UNK N   1      25.382  18.397   4.344  0.00  0.00     0.041 A 
HETATM    4  C   UNK N   1      26.737  18.511   4.566  0.00  0.00     0.049 A 
HETATM    5  N   UNK N   1      27.216  17.457   5.267  0.00  0.00    -0.344 N 
HETATM    6  C   UNK N   1      27.470  19.606   4.107  0.00  0.00     0.031 A 
HETATM    7  C   UNK N   1      26.797  20.612   3.400  0.00  0.00     0.005 A 
HETATM    8  C   UNK N   1      25.411  20.521   3.184  0.00  0.00     0.038 A 
HETATM    9  C   UNK N   1      24.676  19.419   3.668  0.00  0.00     0.083 A 
ENDROOT
BRANCH   2  10
HETATM   10  C   UNK N   1      23.634  16.561   4.939  0.00  0.00     0.252 C 
HETATM   11  O   UNK N   1      23.313  15.817   4.024  0.00  0.00    -0.281 OA
BRANCH  10  12
HETATM   12  C   UNK N   1      22.610  16.901   5.959  0.00  0.00     0.290 C 
HETATM   13  O   UNK N   1      22.243  16.052   6.756  0.00  0.00    -0.264 OA
HETATM   14  N   UNK N   1      21.982  18.093   5.931  0.00  0.00    -0.363 N 
HETATM   15  H   UNK N   1      21.257  18.605   6.358  0.00  0.00     0.159 HD
HETATM   16  H   UNK N   1      22.396  18.652   5.234  0.00  0.00     0.159 HD
ENDBRANCH  10  12
ENDBRANCH   2  10
BRANCH   1  17
HETATM   17  C   UNK N   1      26.144  15.354   6.251  0.00  0.00     0.054 C 
HETATM   18  C   UNK N   1      26.688  14.230   5.384  0.00  0.00     0.011 C 
ENDBRANCH   1  17
BRANCH   5  19
HETATM   19  C   UNK N   1      28.661  17.409   5.603  0.00  0.00     0.167 C 
BRANCH  19  20
HETATM   20  C   UNK N   1      29.801  17.174   4.637  0.00  0.00    -0.040 A 
HETATM   21  C   UNK N   1      29.712  16.439   3.453  0.00  0.00     0.009 A 
HETATM   22  C   UNK N   1      30.826  16.278   2.623  0.00  0.00     0.001 A 
HETATM   23  C   UNK N   1      32.045  16.863   2.967  0.00  0.00     0.000 A 
HETATM   24  C   UNK N   1      32.146  17.610   4.141  0.00  0.00     0.001 A 
HETATM   25  C   UNK N   1      31.030  17.760   4.970  0.00  0.00     0.009 A 
ENDBRANCH  19  20
ENDBRANCH   5  19
BRANCH   9  26
HETATM   26  O   UNK N   1      23.330  19.354   3.521  0.00  0.00    -0.341 OA
BRANCH  26  27
HETATM   27  C   UNK N   1      22.562  20.311   2.880  0.00  0.00     0.286 C 
BRANCH  27  28
HETATM   28  C   UNK N   1      21.079  20.205   3.066  0.00  0.00     0.282 C 
HETATM   29  O   UNK N   1      20.591  20.056   4.177  0.00  0.00    -0.263 OA
BRANCH  28  30
HETATM   30  O   UNK N   1      20.294  20.285   1.965  0.00  0.00    -0.325 OA
HETATM   31  C   UNK N   1      20.750  20.746   0.753  0.00  0.00     0.213 C 
ENDBRANCH  28  30
ENDBRANCH  27  28
ENDBRANCH  26  27
ENDBRANCH   9  26
TORSDOF 9
ENDMDL
MODEL 9
REMARK VINA RESULT:      -6.3      2.276      3.994
REMARK  9 active torsions:
REMARK  status: ('A' for Active; 'I' for Inactive)
REMARK    1  A    between atoms: C_2  and  C_3 
REMARK    2  A    between atoms: C_4  and  C_25 
REMARK    3  A    between atoms: N_7  and  C_8 
REMARK    4  A    between atoms: C_8  and  C_9 
REMARK    5  A    between atoms: C_18  and  O_19 
REMARK    6  A    between atoms: O_19  and  C_20 
REMARK    7  A    between atoms: C_20  and  C_21 
REMARK    8  A    between atoms: C_21  and  O_23 
REMARK    9  A    between atoms: C_25  and  C_27 
REMARK       I    between atoms: C_27  and  N_29 
ROOT
HETATM    1  C   UNK N   1      30.534  17.342   7.751  0.00  0.00     0.027 A 
HETATM    2  C   UNK N   1      31.729  16.636   7.534  0.00  0.00     0.058 A 
HETATM    3  C   UNK N   1      31.419  15.636   6.617  0.00  0.00     0.041 A 
HETATM    4  C   UNK N   1      30.089  15.796   6.294  0.00  0.00     0.049 A 
HETATM    5  N   UNK N   1      29.534  16.829   6.971  0.00  0.00    -0.344 N 
HETATM    6  C   UNK N   1      29.446  14.960   5.381  0.00  0.00     0.031 A 
HETATM    7  C   UNK N   1      30.185  13.931   4.781  0.00  0.00     0.005 A 
HETATM    8  C   UNK N   1      31.538  13.741   5.116  0.00  0.00     0.038 A 
HETATM    9  C   UNK N   1      32.173  14.580   6.054  0.00  0.00     0.083 A 
ENDROOT
BRANCH   2  10
HETATM   10  C   UNK N   1      33.037  16.946   8.182  0.00  0.00     0.252 C 
HETATM   11  O   UNK N   1      33.282  16.471   9.280  0.00  0.00    -0.281 OA
BRANCH  10  12
HETATM   12  C   UNK N   1      34.001  17.916   7.605  0.00  0.00     0.290 C 
HETATM   13  O   UNK N   1      34.256  17.882   6.411  0.00  0.00    -0.264 OA
HETATM   14  N   UNK N   1      34.703  18.745   8.404  0.00  0.00    -0.363 N 
HETATM   15  H   UNK N   1      35.425  19.414   8.395  0.00  0.00     0.159 HD
HETATM   16  H   UNK N   1      34.376  18.644   9.327  0.00  0.00     0.159 HD
ENDBRANCH  10  12
ENDBRANCH   2  10
BRANCH   1  17
HETATM   17  C   UNK N   1      30.426  18.495   8.694  0.00  0.00     0.054 C 
HETATM   18  C   UNK N   1      29.502  18.161   9.854  0.00  0.00     0.011 C 
ENDBRANCH   1  17
BRANCH   5  19
HETATM   19  C   UNK N   1      28.102  17.151   6.752  0.00  0.00     0.167 C 
BRANCH  19  20
HETATM   20  C   UNK N   1      27.537  18.043   5.670  0.00  0.00    -0.040 A 
HETATM   21  C   UNK N   1      26.441  17.733   4.862  0.00  0.00     0.009 A 
HETATM   22  C   UNK N   1      25.992  18.627   3.885  0.00  0.00     0.001 A 
HETATM   23  C   UNK N   1      26.634  19.854   3.714  0.00  0.00     0.000 A 
HETATM   24  C   UNK N   1      27.722  20.184   4.521  0.00  0.00     0.001 A 
HETATM   25  C   UNK N   1      28.170  19.282   5.491  0.00  0.00     0.009 A 
ENDBRANCH  19  20
ENDBRANCH   5  19
BRANCH   9  26
HETATM   26  O   UNK N   1      33.457  14.366   6.431  0.00  0.00    -0.341 OA
BRANCH  26  27
HETATM   27  C   UNK N   1      33.857  13.412   7.351  0.00  0.00     0.286 C 
BRANCH  27  28
HETATM   28  C   UNK N   1      35.084  13.733   8.149  0.00  0.00     0.282 C 
HETATM   29  O   UNK N   1      35.846  14.624   7.805  0.00  0.00    -0.263 OA
BRANCH  28  30
HETATM   30  O   UNK N   1      35.321  13.007   9.269  0.00  0.00    -0.325 OA
HETATM   31  C   UNK N   1      34.756  13.306  10.486  0.00  0.00     0.213 C 
ENDBRANCH  28  30
ENDBRANCH  27  28
ENDBRANCH  26  27
ENDBRANCH   9  26
TORSDOF 9
ENDMDL
