REMARK  7 active torsions:
REMARK  status: ('A' for Active; 'I' for Inactive)
REMARK    1  A    between atoms: C_5  and  N_8 
REMARK    2  A    between atoms: N_8  and  C_9 
REMARK    3  A    between atoms: C_15  and  N_21 
REMARK    4  A    between atoms: N_21  and  C_22 
REMARK    5  A    between atoms: C_25  and  O_29 
REMARK    6  A    between atoms: O_29  and  C_30 
REMARK    7  A    between atoms: C_30  and  C_31 
ROOT
HETATM    1  C   UNK N   1      -1.869  -1.309  -0.167  0.00  0.00     0.036 A 
HETATM    2  C   UNK N   1      -1.907  -2.676  -0.505  0.00  0.00     0.032 A 
HETATM    3  C   UNK N   1      -0.732  -3.446  -0.455  0.00  0.00     0.033 A 
HETATM    4  C   UNK N   1       0.474  -2.854  -0.058  0.00  0.00     0.047 A 
HETATM    5  C   UNK N   1       0.494  -1.498   0.296  0.00  0.00     0.037 A 
HETATM    6  C   UNK N   1      -0.670  -0.736   0.226  0.00  0.00     0.047 A 
HETATM    7  C   UNK N   1       1.694  -0.917   0.687  0.00  0.00     0.119 A 
HETATM    8  N   UNK N   1       2.830  -1.667   0.703  0.00  0.00    -0.338 N 
ATOM      9  HN  UNK N   1       3.714  -1.238   0.976  1.00  0.00     0.168 HD
HETATM   10  C   UNK N   1       2.798  -2.986   0.359  0.00  0.00     0.182 A 
HETATM   11  N   UNK N   1       1.626  -3.574  -0.015  0.00  0.00    -0.352 N 
ATOM     12  HN  UNK N   1       1.614  -4.563  -0.266  1.00  0.00     0.166 HD
ENDROOT
BRANCH   7  13
HETATM   13  N   UNK N   1       1.704   0.455   1.051  0.00  0.00    -0.342 N 
HETATM   14  H   UNK N   1       0.976   0.779   1.629  0.00  0.00     0.167 HD
BRANCH  13  15
HETATM   15  C   UNK N   1       2.681   1.389   0.644  0.00  0.00     0.035 A 
HETATM   16  C   UNK N   1       2.506   2.734   0.983  0.00  0.00     0.032 A 
HETATM   17  C   UNK N   1       3.371   3.704   0.476  0.00  0.00     0.041 A 
HETATM   18  C   UNK N   1       4.414   3.332  -0.389  0.00  0.00     0.091 A 
HETATM   19  C   UNK N   1       4.594   1.981  -0.714  0.00  0.00     0.069 A 
HETATM   20  C   UNK N   1       3.727   1.017  -0.206  0.00  0.00     0.056 A 
HETATM   21 Cl   UNK N   1       5.902   1.483  -1.771  0.00  0.00    -0.081 Cl
BRANCH  18  22
HETATM   22  O   UNK N   1       5.247   4.248  -0.927  0.00  0.00    -0.343 OA
BRANCH  22  23
HETATM   23  C   UNK N   1       5.303   5.567  -0.545  0.00  0.00     0.240 C 
BRANCH  23  24
HETATM   24  C   UNK N   1       6.704   5.889  -0.145  0.00  0.00     0.075 A 
HETATM   25  N   UNK N   1       7.138   7.127   0.182  0.00  0.00    -0.361 N 
HETATM   26  C   UNK N   1       8.483   7.145   0.489  0.00  0.00     0.096 A 
ATOM     27  HN  UNK N   1       6.540   7.953   0.199  1.00  0.00     0.165 HD
HETATM   28  C   UNK N   1       9.139   5.900   0.408  0.00  0.00     0.068 A 
HETATM   29  S   UNK N   1       7.966   4.830  -0.056  0.00  0.00    -0.085 SA
ENDBRANCH  23  24
ENDBRANCH  22  23
ENDBRANCH  18  22
ENDBRANCH  13  15
ENDBRANCH   7  13
BRANCH   1  30
HETATM   30  N   UNK N   1      -3.012  -0.474  -0.231  0.00  0.00    -0.322 N 
HETATM   31  H   UNK N   1      -2.863   0.487  -0.380  0.00  0.00     0.169 HD
BRANCH  30  32
HETATM   32  C   UNK N   1      -4.353  -0.913  -0.099  0.00  0.00     0.220 A 
HETATM   33  O   UNK N   1      -5.392  -0.102  -0.294  0.00  0.00    -0.320 OA
HETATM   34  C   UNK N   1      -6.569  -0.770  -0.034  0.00  0.00     0.203 A 
HETATM   35  C   UNK N   1      -6.100  -2.180   0.396  0.00  0.00     0.105 A 
HETATM   36  C   UNK N   1      -6.623  -3.224  -0.568  0.00  0.00     0.034 C 
HETATM   37  N   UNK N   1      -4.674  -2.079   0.281  0.00  0.00    -0.350 N 
ATOM     38  HN  UNK N   1      -4.015  -2.833   0.475  1.00  0.00     0.163 HD
ENDBRANCH  30  32
ENDBRANCH   1  30
TORSDOF 7
