REMARK  15 active torsions:
REMARK  status: ('A' for Active; 'I' for Inactive)
REMARK    1  A    between atoms: S_1  and  C_20 
REMARK    2  A    between atoms: S_1  and  C_30 
REMARK    3  A    between atoms: S_2  and  C_27 
REMARK    4  A    between atoms: S_2  and  C_30 
REMARK    5  A    between atoms: O_3  and  C_16 
REMARK    6  A    between atoms: O_3  and  C_39 
REMARK    7  A    between atoms: O_4  and  C_17 
REMARK    8  A    between atoms: O_6  and  C_42 
REMARK    9  A    between atoms: C_8  and  C_12 
REMARK   10  A    between atoms: C_9  and  C_13 
REMARK   11  A    between atoms: C_10  and  C_14 
REMARK   12  A    between atoms: C_11  and  C_15 
REMARK   13  A    between atoms: C_39  and  C_40 
REMARK   14  A    between atoms: C_40  and  C_41 
REMARK   15  A    between atoms: C_41  and  C_42 
ROOT
HETATM    1  C   UNK N   1       4.780   1.324  -0.472  0.00  0.00    -0.015 A 
HETATM    2  C   UNK N   1       7.219   1.307  -0.039  0.00  0.00    -0.015 A 
HETATM    3  C   UNK N   1       5.959   1.994  -0.035  0.00  0.00     0.093 A 
HETATM    4  C   UNK N   1       4.873  -0.004  -0.875  0.00  0.00     0.029 A 
HETATM    5  C   UNK N   1       7.234  -0.031  -0.446  0.00  0.00     0.029 A 
HETATM    6  C   UNK N   1       6.083  -0.674  -0.854  0.00  0.00     0.003 A 
ENDROOT
BRANCH   6   7
HETATM    7  S   UNK N   1       6.056  -2.442  -0.763  0.00  0.00    -0.109 SA
BRANCH   7   8
HETATM    8  C   UNK N   1       5.151  -2.460   0.874  0.00  0.00     0.058 C 
HETATM    9  C   UNK N   1       5.633  -3.614   1.734  0.00  0.00     0.039 C 
HETATM   10  C   UNK N   1       5.435  -1.265   1.779  0.00  0.00     0.039 C 
BRANCH   8  11
HETATM   11  S   UNK N   1       3.335  -2.485   0.539  0.00  0.00    -0.109 SA
BRANCH  11  12
HETATM   12  C   UNK N   1       3.126  -4.217   0.111  0.00  0.00     0.003 A 
HETATM   13  C   UNK N   1       4.217  -4.992  -0.247  0.00  0.00     0.029 A 
HETATM   14  C   UNK N   1       4.131  -6.365  -0.431  0.00  0.00    -0.016 A 
HETATM   15  C   UNK N   1       2.858  -6.980  -0.292  0.00  0.00     0.079 A 
HETATM   16  C   UNK N   1       1.717  -6.191   0.026  0.00  0.00    -0.016 A 
HETATM   17  C   UNK N   1       1.879  -4.812   0.239  0.00  0.00     0.029 A 
BRANCH  14  18
HETATM   18  C   UNK N   1       5.445  -7.090  -0.723  0.00  0.00    -0.021 C 
HETATM   19  C   UNK N   1       6.432  -6.809   0.402  0.00  0.00     0.019 C 
HETATM   20  C   UNK N   1       5.343  -8.597  -0.850  0.00  0.00     0.019 C 
HETATM   21  C   UNK N   1       6.044  -6.559  -2.015  0.00  0.00     0.019 C 
ENDBRANCH  14  18
BRANCH  15  22
HETATM   22  O   UNK N   1       2.717  -8.307  -0.457  0.00  0.00    -0.360 OA
HETATM   23  H   UNK N   1       1.867  -8.684  -0.571  0.00  0.00     0.217 HD
ENDBRANCH  15  22
BRANCH  16  24
HETATM   24  C   UNK N   1       0.337  -6.820   0.168  0.00  0.00    -0.021 C 
HETATM   25  C   UNK N   1       0.347  -7.835   1.297  0.00  0.00     0.019 C 
HETATM   26  C   UNK N   1      -0.751  -5.799   0.482  0.00  0.00     0.019 C 
HETATM   27  C   UNK N   1      -0.055  -7.514  -1.124  0.00  0.00     0.019 C 
ENDBRANCH  16  24
ENDBRANCH  11  12
ENDBRANCH   8  11
ENDBRANCH   7   8
ENDBRANCH   6   7
BRANCH   1  28
HETATM   28  C   UNK N   1       3.400   1.982  -0.423  0.00  0.00    -0.021 C 
HETATM   29  C   UNK N   1       3.313   3.116  -1.422  0.00  0.00     0.019 C 
HETATM   30  C   UNK N   1       2.269   1.015  -0.756  0.00  0.00     0.019 C 
HETATM   31  C   UNK N   1       3.117   2.512   0.974  0.00  0.00     0.019 C 
ENDBRANCH   1  28
BRANCH   2  32
HETATM   32  C   UNK N   1       8.537   1.872   0.497  0.00  0.00    -0.021 C 
HETATM   33  C   UNK N   1       9.364   0.783   1.180  0.00  0.00     0.019 C 
HETATM   34  C   UNK N   1       8.351   2.952   1.546  0.00  0.00     0.019 C 
HETATM   35  C   UNK N   1       9.369   2.407  -0.651  0.00  0.00     0.019 C 
ENDBRANCH   2  32
BRANCH   3  36
HETATM   36  O   UNK N   1       5.822   3.266   0.408  0.00  0.00    -0.278 OA
BRANCH  36  37
HETATM   37  C   UNK N   1       6.161   4.333  -0.344  0.00  0.00     0.264 C 
HETATM   38  O   UNK N   1       7.224   4.372  -0.937  0.00  0.00    -0.265 OA
BRANCH  37  39
HETATM   39  C   UNK N   1       5.154   5.398  -0.589  0.00  0.00     0.122 C 
BRANCH  39  40
HETATM   40  C   UNK N   1       4.784   6.159   0.659  0.00  0.00     0.119 C 
BRANCH  40  41
HETATM   41  C   UNK N   1       4.743   7.595   0.274  0.00  0.00     0.139 C 
HETATM   42  O   UNK N   1       3.695   8.216   0.327  0.00  0.00    -0.650 OA
BRANCH  41  43
HETATM   43  O   UNK N   1       5.860   8.195  -0.180  0.00  0.00    -0.776 OA
HETATM   44  H   UNK N   1       6.610   7.731  -0.496  0.00  0.00     0.167 HD
ENDBRANCH  41  43
ENDBRANCH  40  41
ENDBRANCH  39  40
ENDBRANCH  37  39
ENDBRANCH  36  37
ENDBRANCH   3  36
TORSDOF 15
