REMARK  6 active torsions:
REMARK  status: ('A' for Active; 'I' for Inactive)
REMARK    1  A    between atoms: O_3  and  C_8 
REMARK    2  A    between atoms: O_3  and  C_13 
REMARK    3  A    between atoms: N_5  and  C_6 
REMARK    4  A    between atoms: N_5  and  C_11 
REMARK    5  A    between atoms: C_7  and  C_11 
REMARK    6  A    between atoms: C_13  and  C_17 
ROOT
HETATM    1 Cl   UNK N   1       5.593  -5.135   0.255  0.00  0.00    -0.081 Cl
HETATM    2  C   UNK N   1       6.289  -0.621   0.054  0.00  0.00     0.035 A 
HETATM    3  C   UNK N   1       4.730  -2.479   0.071  0.00  0.00     0.093 A 
HETATM    4  C   UNK N   1       5.001  -1.122   0.016  0.00  0.00     0.068 A 
HETATM    5  C   UNK N   1       7.367  -1.511   0.156  0.00  0.00     0.031 A 
HETATM    6  C   UNK N   1       5.811  -3.393   0.175  0.00  0.00     0.067 A 
HETATM    7  C   UNK N   1       7.124  -2.892   0.217  0.00  0.00     0.029 A 
ENDROOT
BRANCH   2   8
HETATM    8  N   UNK N   1       6.421   0.791  -0.003  0.00  0.00    -0.346 N 
HETATM    9  H   UNK N   1       5.561   1.271  -0.015  0.00  0.00     0.167 HD
BRANCH   8  10
HETATM   10  C   UNK N   1       7.559   1.646  -0.046  0.00  0.00     0.114 C 
HETATM   11  S   UNK N   1       8.901   1.121  -0.108  0.00  0.00    -0.059 SA
BRANCH  10  12
HETATM   12  C   UNK N   1       7.291   3.109  -0.061  0.00  0.00     0.033 A 
HETATM   13  C   UNK N   1       8.152   4.189  -0.124  0.00  0.00     0.062 A 
HETATM   14  O   UNK N   1       7.457   5.300  -0.111  0.00  0.00    -0.327 OA
HETATM   15  C   UNK N   1       9.640   4.165  -0.200  0.00  0.00     0.077 C 
HETATM   16  C   UNK N   1       6.174   5.016  -0.042  0.00  0.00     0.143 A 
HETATM   17  C   UNK N   1       6.015   3.641  -0.008  0.00  0.00     0.041 A 
ENDBRANCH  10  12
ENDBRANCH   8  10
ENDBRANCH   2   8
BRANCH   3  18
HETATM   18  O   UNK N   1       3.422  -2.809   0.020  0.00  0.00    -0.346 OA
BRANCH  18  19
HETATM   19  C   UNK N   1       2.812  -4.032   0.061  0.00  0.00     0.203 C 
BRANCH  19  20
HETATM   20  C   UNK N   1       1.306  -3.874  -0.025  0.00  0.00     0.001 C 
HETATM   21  C   UNK N   1       0.598  -2.721  -0.055  0.00  0.00    -0.089 C 
HETATM   22  C   UNK N   1      -0.885  -2.796  -0.148  0.00  0.00     0.042 C 
HETATM   23  C   UNK N   1       1.218  -1.359   0.006  0.00  0.00     0.042 C 
ENDBRANCH  19  20
ENDBRANCH  18  19
ENDBRANCH   3  18
TORSDOF 6
