MODEL 1
REMARK VINA RESULT:      -7.0      0.000      0.000
REMARK  7 active torsions:
REMARK  status: ('A' for Active; 'I' for Inactive)
REMARK    1  A    between atoms: O_8  and  C_2 
REMARK    2  A    between atoms: C_2  and  C_13 
REMARK    3  A    between atoms: C_12  and  O_8 
REMARK    4  A    between atoms: C_10  and  O_26 
REMARK    5  A    between atoms: C_19  and  C_12 
REMARK    6  A    between atoms: O_29  and  C_13 
REMARK    7  A    between atoms: C_31  and  O_29 
ROOT
HETATM    1  C   UNK N   1      33.062  16.739   7.457  0.00  0.00     0.004 C 
HETATM    2  C   UNK N   1      34.028  15.798   8.261  0.00  0.00     0.165 C 
HETATM    3  C   UNK N   1      28.799  17.503   6.960  0.00  0.00     0.004 C 
HETATM    4  C   UNK N   1      30.909  16.107   6.079  0.00  0.00    -0.002 C 
HETATM    5  C   UNK N   1      32.339  15.727   6.520  0.00  0.00     0.002 C 
HETATM    6  C   UNK N   1      29.975  16.484   7.287  0.00  0.00     0.035 C 
HETATM    7  C   UNK N   1      28.560  17.729   5.456  0.00  0.00    -0.064 C 
HETATM    8  C   UNK N   1      32.047  17.518   8.338  0.00  0.00     0.045 C 
HETATM    9  C   UNK N   1      30.777  16.732   8.592  0.00  0.00     0.124 C 
HETATM   10  C   UNK N   1      28.925  18.880   7.599  0.00  0.00    -0.009 C 
HETATM   11  C   UNK N   1      27.703  18.684   5.051  0.00  0.00     0.058 C 
HETATM   12  C   UNK N   1      33.243  14.504   8.452  0.00  0.00     0.050 C 
HETATM   13  C   UNK N   1      32.230  14.432   7.330  0.00  0.00     0.009 C 
HETATM   14  C   UNK N   1      30.849  17.124   4.950  0.00  0.00     0.010 C 
HETATM   15  C   UNK N   1      28.032  19.840   7.266  0.00  0.00     0.052 C 
HETATM   16  C   UNK N   1      27.191  19.632   6.058  0.00  0.00     0.171 C 
HETATM   17  C   UNK N   1      29.412  17.073   4.433  0.00  0.00     0.036 C 
HETATM   18  O   UNK N   1      26.240  20.354   5.815  0.00  0.00    -0.289 OA
HETATM   19  C   UNK N   1      33.825  17.809   6.684  0.00  0.00     0.019 C 
HETATM   20  C   UNK N   1      27.516  16.914   7.562  0.00  0.00     0.025 C 
ENDROOT
BRANCH   2  21
HETATM   21  O   UNK N   1      35.218  15.588   7.558  0.00  0.00    -0.297 OA
BRANCH  21  22
HETATM   22  C   UNK N   1      35.995  14.475   7.409  0.00  0.00     0.293 C 
HETATM   23  O   UNK N   1      36.729  14.088   8.303  0.00  0.00    -0.262 OA
BRANCH  22  24
HETATM   24  C   UNK N   1      35.951  13.705   6.126  0.00  0.00     0.277 C 
HETATM   25 Cl   UNK N   1      35.155  14.702   4.882  0.00  0.00    -0.097 Cl
HETATM   26 Cl   UNK N   1      35.053  12.170   6.287  0.00  0.00    -0.097 Cl
ENDBRANCH  22  24
ENDBRANCH  21  22
ENDBRANCH   2  21
BRANCH   2  27
HETATM   27  C   UNK N   1      34.418  16.255   9.657  0.00  0.00     0.295 C 
HETATM   28  O   UNK N   1      34.843  17.384   9.841  0.00  0.00    -0.262 OA
BRANCH  27  29
HETATM   29  O   UNK N   1      34.157  15.442  10.716  0.00  0.00    -0.319 OA
BRANCH  29  30
HETATM   30  C   UNK N   1      35.135  15.041  11.596  0.00  0.00     0.174 C 
HETATM   31  C   UNK N   1      34.969  13.559  11.879  0.00  0.00     0.034 C 
ENDBRANCH  29  30
ENDBRANCH  27  29
ENDBRANCH   2  27
BRANCH   9  32
HETATM   32  O   UNK N   1      30.015  17.278   9.627  0.00  0.00    -0.395 OA
HETATM   33  H   UNK N   1      30.042  18.225   9.833  0.00  0.00     0.210 HD
ENDBRANCH   9  32
TORSDOF 7
ENDMDL
MODEL 2
REMARK VINA RESULT:      -6.9      2.294      3.992
REMARK  7 active torsions:
REMARK  status: ('A' for Active; 'I' for Inactive)
REMARK    1  A    between atoms: O_8  and  C_2 
REMARK    2  A    between atoms: C_2  and  C_13 
REMARK    3  A    between atoms: C_12  and  O_8 
REMARK    4  A    between atoms: C_10  and  O_26 
REMARK    5  A    between atoms: C_19  and  C_12 
REMARK    6  A    between atoms: O_29  and  C_13 
REMARK    7  A    between atoms: C_31  and  O_29 
ROOT
HETATM    1  C   UNK N   1      32.388  15.879   8.383  0.00  0.00     0.004 C 
HETATM    2  C   UNK N   1      33.932  16.125   8.534  0.00  0.00     0.165 C 
HETATM    3  C   UNK N   1      29.138  16.692   5.594  0.00  0.00     0.004 C 
HETATM    4  C   UNK N   1      30.501  17.591   7.720  0.00  0.00    -0.002 C 
HETATM    5  C   UNK N   1      31.825  17.329   8.468  0.00  0.00     0.002 C 
HETATM    6  C   UNK N   1      30.538  17.112   6.221  0.00  0.00     0.035 C 
HETATM    7  C   UNK N   1      27.919  17.104   6.440  0.00  0.00    -0.064 C 
HETATM    8  C   UNK N   1      31.977  15.189   7.054  0.00  0.00     0.045 C 
HETATM    9  C   UNK N   1      31.744  16.181   5.934  0.00  0.00     0.124 C 
HETATM   10  C   UNK N   1      28.977  15.210   5.280  0.00  0.00    -0.009 C 
HETATM   11  C   UNK N   1      26.692  16.669   6.100  0.00  0.00     0.058 C 
HETATM   12  C   UNK N   1      34.191  17.439   7.804  0.00  0.00     0.050 C 
HETATM   13  C   UNK N   1      32.892  18.214   7.816  0.00  0.00     0.009 C 
HETATM   14  C   UNK N   1      29.259  17.115   8.457  0.00  0.00     0.010 C 
HETATM   15  C   UNK N   1      27.772  14.757   4.865  0.00  0.00     0.052 C 
HETATM   16  C   UNK N   1      26.585  15.631   5.059  0.00  0.00     0.171 C 
HETATM   17  C   UNK N   1      28.083  17.787   7.748  0.00  0.00     0.036 C 
HETATM   18  O   UNK N   1      25.515  15.373   4.536  0.00  0.00    -0.289 OA
HETATM   19  C   UNK N   1      31.847  14.978   9.488  0.00  0.00     0.019 C 
HETATM   20  C   UNK N   1      29.029  17.390   4.232  0.00  0.00     0.025 C 
ENDROOT
BRANCH   2  21
HETATM   21  O   UNK N   1      34.296  16.196   9.882  0.00  0.00    -0.297 OA
BRANCH  21  22
HETATM   22  C   UNK N   1      35.486  16.495  10.482  0.00  0.00     0.293 C 
HETATM   23  O   UNK N   1      35.973  17.611  10.407  0.00  0.00    -0.262 OA
BRANCH  22  24
HETATM   24  C   UNK N   1      36.215  15.438  11.253  0.00  0.00     0.277 C 
HETATM   25 Cl   UNK N   1      37.465  14.720  10.207  0.00  0.00    -0.097 Cl
HETATM   26 Cl   UNK N   1      35.127  14.139  11.816  0.00  0.00    -0.097 Cl
ENDBRANCH  22  24
ENDBRANCH  21  22
ENDBRANCH   2  21
BRANCH   2  27
HETATM   27  C   UNK N   1      34.850  15.103   7.885  0.00  0.00     0.295 C 
HETATM   28  O   UNK N   1      34.851  13.943   8.266  0.00  0.00    -0.262 OA
BRANCH  27  29
HETATM   29  O   UNK N   1      35.568  15.462   6.786  0.00  0.00    -0.319 OA
BRANCH  29  30
HETATM   30  C   UNK N   1      36.017  14.544   5.866  0.00  0.00     0.174 C 
HETATM   31  C   UNK N   1      34.968  14.376   4.781  0.00  0.00     0.034 C 
ENDBRANCH  29  30
ENDBRANCH  27  29
ENDBRANCH   2  27
BRANCH   9  32
HETATM   32  O   UNK N   1      31.695  15.564   4.682  0.00  0.00    -0.395 OA
HETATM   33  H   UNK N   1      32.387  14.950   4.391  0.00  0.00     0.210 HD
ENDBRANCH   9  32
TORSDOF 7
ENDMDL
MODEL 3
REMARK VINA RESULT:      -6.9     14.245     17.573
REMARK  7 active torsions:
REMARK  status: ('A' for Active; 'I' for Inactive)
REMARK    1  A    between atoms: O_8  and  C_2 
REMARK    2  A    between atoms: C_2  and  C_13 
REMARK    3  A    between atoms: C_12  and  O_8 
REMARK    4  A    between atoms: C_10  and  O_26 
REMARK    5  A    between atoms: C_19  and  C_12 
REMARK    6  A    between atoms: O_29  and  C_13 
REMARK    7  A    between atoms: C_31  and  O_29 
ROOT
HETATM    1  C   UNK N   1      27.992  25.139  -6.472  0.00  0.00     0.004 C 
HETATM    2  C   UNK N   1      26.440  25.362  -6.545  0.00  0.00     0.165 C 
HETATM    3  C   UNK N   1      30.871  22.065  -5.349  0.00  0.00     0.004 C 
HETATM    4  C   UNK N   1      29.427  24.155  -4.496  0.00  0.00    -0.002 C 
HETATM    5  C   UNK N   1      28.224  25.015  -4.937  0.00  0.00     0.002 C 
HETATM    6  C   UNK N   1      29.439  22.729  -5.161  0.00  0.00     0.035 C 
HETATM    7  C   UNK N   1      32.001  22.773  -4.579  0.00  0.00    -0.064 C 
HETATM    8  C   UNK N   1      28.494  23.876  -7.223  0.00  0.00     0.045 C 
HETATM    9  C   UNK N   1      28.458  22.634  -6.358  0.00  0.00     0.124 C 
HETATM   10  C   UNK N   1      31.344  21.917  -6.789  0.00  0.00    -0.009 C 
HETATM   11  C   UNK N   1      33.279  22.406  -4.781  0.00  0.00     0.058 C 
HETATM   12  C   UNK N   1      25.869  24.501  -5.423  0.00  0.00     0.050 C 
HETATM   13  C   UNK N   1      26.963  24.336  -4.392  0.00  0.00     0.009 C 
HETATM   14  C   UNK N   1      30.772  24.859  -4.595  0.00  0.00     0.010 C 
HETATM   15  C   UNK N   1      32.602  21.479  -7.023  0.00  0.00     0.052 C 
HETATM   16  C   UNK N   1      33.572  21.489  -5.898  0.00  0.00     0.171 C 
HETATM   17  C   UNK N   1      31.741  23.999  -3.783  0.00  0.00     0.036 C 
HETATM   18  O   UNK N   1      34.653  20.931  -5.985  0.00  0.00    -0.289 OA
HETATM   19  C   UNK N   1      28.762  26.304  -7.085  0.00  0.00     0.019 C 
HETATM   20  C   UNK N   1      30.770  20.626  -4.826  0.00  0.00     0.025 C 
ENDROOT
BRANCH   2  21
HETATM   21  O   UNK N   1      26.122  26.713  -6.380  0.00  0.00    -0.297 OA
BRANCH  21  22
HETATM   22  C   UNK N   1      25.242  27.339  -5.544  0.00  0.00     0.293 C 
HETATM   23  O   UNK N   1      24.037  27.206  -5.674  0.00  0.00    -0.262 OA
BRANCH  22  24
HETATM   24  C   UNK N   1      25.758  28.207  -4.438  0.00  0.00     0.277 C 
HETATM   25 Cl   UNK N   1      27.273  28.979  -4.971  0.00  0.00    -0.097 Cl
HETATM   26 Cl   UNK N   1      26.083  27.283  -2.946  0.00  0.00    -0.097 Cl
ENDBRANCH  22  24
ENDBRANCH  21  22
ENDBRANCH   2  21
BRANCH   2  27
HETATM   27  C   UNK N   1      25.745  24.900  -7.816  0.00  0.00     0.295 C 
HETATM   28  O   UNK N   1      25.945  25.476  -8.873  0.00  0.00    -0.262 OA
BRANCH  27  29
HETATM   29  O   UNK N   1      25.010  23.755  -7.788  0.00  0.00    -0.319 OA
BRANCH  29  30
HETATM   30  C   UNK N   1      25.353  22.641  -8.517  0.00  0.00     0.174 C 
HETATM   31  C   UNK N   1      25.080  21.401  -7.685  0.00  0.00     0.034 C 
ENDBRANCH  29  30
ENDBRANCH  27  29
ENDBRANCH   2  27
BRANCH   9  32
HETATM   32  O   UNK N   1      28.594  21.463  -7.107  0.00  0.00    -0.395 OA
HETATM   33  H   UNK N   1      28.468  21.458  -8.068  0.00  0.00     0.210 HD
ENDBRANCH   9  32
TORSDOF 7
ENDMDL
MODEL 4
REMARK VINA RESULT:      -6.9      3.949      6.044
REMARK  7 active torsions:
REMARK  status: ('A' for Active; 'I' for Inactive)
REMARK    1  A    between atoms: O_8  and  C_2 
REMARK    2  A    between atoms: C_2  and  C_13 
REMARK    3  A    between atoms: C_12  and  O_8 
REMARK    4  A    between atoms: C_10  and  O_26 
REMARK    5  A    between atoms: C_19  and  C_12 
REMARK    6  A    between atoms: O_29  and  C_13 
REMARK    7  A    between atoms: C_31  and  O_29 
ROOT
HETATM    1  C   UNK N   1      36.176  13.483  10.904  0.00  0.00     0.004 C 
HETATM    2  C   UNK N   1      36.071  12.621  12.212  0.00  0.00     0.165 C 
HETATM    3  C   UNK N   1      33.633  15.041   7.724  0.00  0.00     0.004 C 
HETATM    4  C   UNK N   1      35.170  12.995   8.520  0.00  0.00    -0.002 C 
HETATM    5  C   UNK N   1      35.820  12.439   9.805  0.00  0.00     0.002 C 
HETATM    6  C   UNK N   1      33.929  13.918   8.810  0.00  0.00     0.035 C 
HETATM    7  C   UNK N   1      34.410  14.865   6.407  0.00  0.00    -0.064 C 
HETATM    8  C   UNK N   1      35.212  14.700  10.861  0.00  0.00     0.045 C 
HETATM    9  C   UNK N   1      33.851  14.343  10.300  0.00  0.00     0.124 C 
HETATM   10  C   UNK N   1      33.861  16.476   8.183  0.00  0.00    -0.009 C 
HETATM   11  C   UNK N   1      34.369  15.832   5.472  0.00  0.00     0.058 C 
HETATM   12  C   UNK N   1      34.915  11.661  11.955  0.00  0.00     0.050 C 
HETATM   13  C   UNK N   1      34.798  11.501  10.455  0.00  0.00     0.009 C 
HETATM   14  C   UNK N   1      36.151  13.622   7.541  0.00  0.00     0.010 C 
HETATM   15  C   UNK N   1      33.753  17.476   7.279  0.00  0.00     0.052 C 
HETATM   16  C   UNK N   1      33.761  17.125   5.835  0.00  0.00     0.171 C 
HETATM   17  C   UNK N   1      35.382  13.758   6.227  0.00  0.00     0.036 C 
HETATM   18  O   UNK N   1      33.472  17.946   4.980  0.00  0.00    -0.289 OA
HETATM   19  C   UNK N   1      37.571  14.070  10.721  0.00  0.00     0.019 C 
HETATM   20  C   UNK N   1      32.134  14.971   7.404  0.00  0.00     0.025 C 
ENDROOT
BRANCH   2  21
HETATM   21  O   UNK N   1      37.269  11.943  12.458  0.00  0.00    -0.297 OA
BRANCH  21  22
HETATM   22  C   UNK N   1      37.530  10.792  13.146  0.00  0.00     0.293 C 
HETATM   23  O   UNK N   1      37.535  10.767  14.365  0.00  0.00    -0.262 OA
BRANCH  22  24
HETATM   24  C   UNK N   1      37.816   9.528  12.396  0.00  0.00     0.277 C 
HETATM   25 Cl   UNK N   1      38.229   9.937  10.712  0.00  0.00    -0.097 Cl
HETATM   26 Cl   UNK N   1      36.420   8.415  12.387  0.00  0.00    -0.097 Cl
ENDBRANCH  22  24
ENDBRANCH  21  22
ENDBRANCH   2  21
BRANCH   2  27
HETATM   27  C   UNK N   1      35.717  13.363  13.490  0.00  0.00     0.295 C 
HETATM   28  O   UNK N   1      34.647  13.166  14.043  0.00  0.00    -0.262 OA
BRANCH  27  29
HETATM   29  O   UNK N   1      36.661  14.143  14.085  0.00  0.00    -0.319 OA
BRANCH  29  30
HETATM   30  C   UNK N   1      36.866  14.143  15.445  0.00  0.00     0.174 C 
HETATM   31  C   UNK N   1      37.379  15.508  15.868  0.00  0.00     0.034 C 
ENDBRANCH  29  30
ENDBRANCH  27  29
ENDBRANCH   2  27
BRANCH   9  32
HETATM   32  O   UNK N   1      32.898  15.330  10.555  0.00  0.00    -0.395 OA
HETATM   33  H   UNK N   1      32.636  15.562  11.460  0.00  0.00     0.210 HD
ENDBRANCH   9  32
TORSDOF 7
ENDMDL
MODEL 5
REMARK VINA RESULT:      -6.9      9.347     12.346
REMARK  7 active torsions:
REMARK  status: ('A' for Active; 'I' for Inactive)
REMARK    1  A    between atoms: O_8  and  C_2 
REMARK    2  A    between atoms: C_2  and  C_13 
REMARK    3  A    between atoms: C_12  and  O_8 
REMARK    4  A    between atoms: C_10  and  O_26 
REMARK    5  A    between atoms: C_19  and  C_12 
REMARK    6  A    between atoms: O_29  and  C_13 
REMARK    7  A    between atoms: C_31  and  O_29 
ROOT
HETATM    1  C   UNK N   1      21.680  15.431   5.807  0.00  0.00     0.004 C 
HETATM    2  C   UNK N   1      21.335  15.598   4.284  0.00  0.00     0.165 C 
HETATM    3  C   UNK N   1      22.963  12.357   8.619  0.00  0.00     0.004 C 
HETATM    4  C   UNK N   1      20.862  13.581   7.492  0.00  0.00    -0.002 C 
HETATM    5  C   UNK N   1      20.534  14.495   6.292  0.00  0.00     0.002 C 
HETATM    6  C   UNK N   1      22.185  12.754   7.290  0.00  0.00     0.035 C 
HETATM    7  C   UNK N   1      22.154  12.571   9.911  0.00  0.00    -0.064 C 
HETATM    8  C   UNK N   1      23.075  14.807   6.082  0.00  0.00     0.045 C 
HETATM    9  C   UNK N   1      23.037  13.293   6.112  0.00  0.00     0.124 C 
HETATM   10  C   UNK N   1      24.309  13.041   8.822  0.00  0.00    -0.009 C 
HETATM   11  C   UNK N   1      22.752  12.424  11.106  0.00  0.00     0.058 C 
HETATM   12  C   UNK N   1      20.781  14.242   3.859  0.00  0.00     0.050 C 
HETATM   13  C   UNK N   1      20.228  13.581   5.102  0.00  0.00     0.009 C 
HETATM   14  C   UNK N   1      20.805  14.276   8.844  0.00  0.00     0.010 C 
HETATM   15  C   UNK N   1      24.969  12.852   9.988  0.00  0.00     0.052 C 
HETATM   16  C   UNK N   1      24.219  12.281  11.137  0.00  0.00     0.171 C 
HETATM   17  C   UNK N   1      20.787  13.150   9.878  0.00  0.00     0.036 C 
HETATM   18  O   UNK N   1      24.793  11.904  12.145  0.00  0.00    -0.289 OA
HETATM   19  C   UNK N   1      21.688  16.770   6.537  0.00  0.00     0.019 C 
HETATM   20  C   UNK N   1      23.300  10.864   8.511  0.00  0.00     0.025 C 
ENDROOT
BRANCH   2  21
HETATM   21  O   UNK N   1      20.405  16.625   4.093  0.00  0.00    -0.297 OA
BRANCH  21  22
HETATM   22  C   UNK N   1      20.059  17.335   2.979  0.00  0.00     0.293 C 
HETATM   23  O   UNK N   1      19.729  16.776   1.947  0.00  0.00    -0.262 OA
BRANCH  22  24
HETATM   24  C   UNK N   1      20.079  18.832   3.016  0.00  0.00     0.277 C 
HETATM   25 Cl   UNK N   1      20.650  19.440   1.442  0.00  0.00    -0.097 Cl
HETATM   26 Cl   UNK N   1      21.154  19.463   4.295  0.00  0.00    -0.097 Cl
ENDBRANCH  22  24
ENDBRANCH  21  22
ENDBRANCH   2  21
BRANCH   2  27
HETATM   27  C   UNK N   1      22.499  15.882   3.349  0.00  0.00     0.295 C 
HETATM   28  O   UNK N   1      23.282  16.786   3.594  0.00  0.00    -0.262 OA
BRANCH  27  29
HETATM   29  O   UNK N   1      22.739  15.031   2.315  0.00  0.00    -0.319 OA
BRANCH  29  30
HETATM   30  C   UNK N   1      24.011  14.663   1.943  0.00  0.00     0.174 C 
HETATM   31  C   UNK N   1      23.947  13.938   0.611  0.00  0.00     0.034 C 
ENDBRANCH  29  30
ENDBRANCH  27  29
ENDBRANCH   2  27
BRANCH   9  32
HETATM   32  O   UNK N   1      24.313  12.731   6.035  0.00  0.00    -0.395 OA
HETATM   33  H   UNK N   1      25.108  13.241   6.254  0.00  0.00     0.210 HD
ENDBRANCH   9  32
TORSDOF 7
ENDMDL
MODEL 6
REMARK VINA RESULT:      -6.8     13.545     17.165
REMARK  7 active torsions:
REMARK  status: ('A' for Active; 'I' for Inactive)
REMARK    1  A    between atoms: O_8  and  C_2 
REMARK    2  A    between atoms: C_2  and  C_13 
REMARK    3  A    between atoms: C_12  and  O_8 
REMARK    4  A    between atoms: C_10  and  O_26 
REMARK    5  A    between atoms: C_19  and  C_12 
REMARK    6  A    between atoms: O_29  and  C_13 
REMARK    7  A    between atoms: C_31  and  O_29 
ROOT
HETATM    1  C   UNK N   1      28.960  25.590  -4.509  0.00  0.00     0.004 C 
HETATM    2  C   UNK N   1      27.726  26.556  -4.604  0.00  0.00     0.165 C 
HETATM    3  C   UNK N   1      30.234  21.659  -5.898  0.00  0.00     0.004 C 
HETATM    4  C   UNK N   1      29.004  23.019  -3.943  0.00  0.00    -0.002 C 
HETATM    5  C   UNK N   1      28.373  24.404  -3.687  0.00  0.00     0.002 C 
HETATM    6  C   UNK N   1      29.059  22.643  -5.470  0.00  0.00     0.035 C 
HETATM    7  C   UNK N   1      30.951  20.981  -4.717  0.00  0.00    -0.064 C 
HETATM    8  C   UNK N   1      29.506  25.112  -5.881  0.00  0.00     0.045 C 
HETATM    9  C   UNK N   1      28.801  23.869  -6.384  0.00  0.00     0.124 C 
HETATM   10  C   UNK N   1      31.316  22.272  -6.779  0.00  0.00    -0.009 C 
HETATM   11  C   UNK N   1      32.060  20.252  -4.937  0.00  0.00     0.058 C 
HETATM   12  C   UNK N   1      26.517  25.634  -4.731  0.00  0.00     0.050 C 
HETATM   13  C   UNK N   1      26.903  24.312  -4.106  0.00  0.00     0.009 C 
HETATM   14  C   UNK N   1      30.331  22.793  -3.235  0.00  0.00     0.010 C 
HETATM   15  C   UNK N   1      32.410  21.534  -7.078  0.00  0.00     0.052 C 
HETATM   16  C   UNK N   1      32.678  20.313  -6.275  0.00  0.00     0.171 C 
HETATM   17  C   UNK N   1      30.581  21.286  -3.312  0.00  0.00     0.036 C 
HETATM   18  O   UNK N   1      33.525  19.504  -6.613  0.00  0.00    -0.289 OA
HETATM   19  C   UNK N   1      30.146  26.250  -3.814  0.00  0.00     0.019 C 
HETATM   20  C   UNK N   1      29.604  20.562  -6.766  0.00  0.00     0.025 C 
ENDROOT
BRANCH   2  21
HETATM   21  O   UNK N   1      27.643  27.372  -3.471  0.00  0.00    -0.297 OA
BRANCH  21  22
HETATM   22  C   UNK N   1      26.739  28.331  -3.112  0.00  0.00     0.293 C 
HETATM   23  O   UNK N   1      25.563  28.062  -2.938  0.00  0.00    -0.262 OA
BRANCH  22  24
HETATM   24  C   UNK N   1      27.193  29.746  -2.926  0.00  0.00     0.277 C 
HETATM   25 Cl   UNK N   1      26.687  30.705  -4.338  0.00  0.00    -0.097 Cl
HETATM   26 Cl   UNK N   1      28.966  29.871  -2.757  0.00  0.00    -0.097 Cl
ENDBRANCH  22  24
ENDBRANCH  21  22
ENDBRANCH   2  21
BRANCH   2  27
HETATM   27  C   UNK N   1      27.674  27.477  -5.812  0.00  0.00     0.295 C 
HETATM   28  O   UNK N   1      28.537  28.322  -5.982  0.00  0.00    -0.262 OA
BRANCH  27  29
HETATM   29  O   UNK N   1      26.734  27.256  -6.771  0.00  0.00    -0.319 OA
BRANCH  29  30
HETATM   30  C   UNK N   1      27.063  26.896  -8.057  0.00  0.00     0.174 C 
HETATM   31  C   UNK N   1      26.160  25.759  -8.499  0.00  0.00     0.034 C 
ENDBRANCH  29  30
ENDBRANCH  27  29
ENDBRANCH   2  27
BRANCH   9  32
HETATM   32  O   UNK N   1      29.054  23.627  -7.736  0.00  0.00    -0.395 OA
HETATM   33  H   UNK N   1      28.878  24.298  -8.414  0.00  0.00     0.210 HD
ENDBRANCH   9  32
TORSDOF 7
ENDMDL
MODEL 7
REMARK VINA RESULT:      -6.8      1.761      2.293
REMARK  7 active torsions:
REMARK  status: ('A' for Active; 'I' for Inactive)
REMARK    1  A    between atoms: O_8  and  C_2 
REMARK    2  A    between atoms: C_2  and  C_13 
REMARK    3  A    between atoms: C_12  and  O_8 
REMARK    4  A    between atoms: C_10  and  O_26 
REMARK    5  A    between atoms: C_19  and  C_12 
REMARK    6  A    between atoms: O_29  and  C_13 
REMARK    7  A    between atoms: C_31  and  O_29 
ROOT
HETATM    1  C   UNK N   1      32.188  16.667   5.232  0.00  0.00     0.004 C 
HETATM    2  C   UNK N   1      33.397  16.031   6.005  0.00  0.00     0.165 C 
HETATM    3  C   UNK N   1      27.846  16.963   5.494  0.00  0.00     0.004 C 
HETATM    4  C   UNK N   1      29.909  15.552   4.527  0.00  0.00    -0.002 C 
HETATM    5  C   UNK N   1      31.432  15.402   4.727  0.00  0.00     0.002 C 
HETATM    6  C   UNK N   1      29.180  16.148   5.787  0.00  0.00     0.035 C 
HETATM    7  C   UNK N   1      27.302  16.788   4.065  0.00  0.00    -0.064 C 
HETATM    8  C   UNK N   1      31.269  17.563   6.107  0.00  0.00     0.045 C 
HETATM    9  C   UNK N   1      30.177  16.773   6.798  0.00  0.00     0.124 C 
HETATM   10  C   UNK N   1      27.919  18.462   5.758  0.00  0.00    -0.009 C 
HETATM   11  C   UNK N   1      26.273  17.545   3.644  0.00  0.00     0.058 C 
HETATM   12  C   UNK N   1      32.829  14.771   6.650  0.00  0.00     0.050 C 
HETATM   13  C   UNK N   1      31.640  14.346   5.817  0.00  0.00     0.009 C 
HETATM   14  C   UNK N   1      29.511  16.248   3.235  0.00  0.00     0.010 C 
HETATM   15  C   UNK N   1      26.867  19.239   5.412  0.00  0.00     0.052 C 
HETATM   16  C   UNK N   1      25.846  18.673   4.493  0.00  0.00     0.171 C 
HETATM   17  C   UNK N   1      28.020  15.962   3.061  0.00  0.00     0.036 C 
HETATM   18  O   UNK N   1      24.784  19.239   4.299  0.00  0.00    -0.289 OA
HETATM   19  C   UNK N   1      32.653  17.563   4.090  0.00  0.00     0.019 C 
HETATM   20  C   UNK N   1      26.783  16.449   6.474  0.00  0.00     0.025 C 
ENDROOT
BRANCH   2  21
HETATM   21  O   UNK N   1      34.450  15.741   5.132  0.00  0.00    -0.297 OA
BRANCH  21  22
HETATM   22  C   UNK N   1      35.251  14.641   5.016  0.00  0.00     0.293 C 
HETATM   23  O   UNK N   1      36.118  14.397   5.837  0.00  0.00    -0.262 OA
BRANCH  22  24
HETATM   24  C   UNK N   1      35.066  13.708   3.859  0.00  0.00     0.277 C 
HETATM   25 Cl   UNK N   1      34.172  14.554   2.572  0.00  0.00    -0.097 Cl
HETATM   26 Cl   UNK N   1      34.158  12.238   4.313  0.00  0.00    -0.097 Cl
ENDBRANCH  22  24
ENDBRANCH  21  22
ENDBRANCH   2  21
BRANCH   2  27
HETATM   27  C   UNK N   1      33.984  16.850   7.143  0.00  0.00     0.295 C 
HETATM   28  O   UNK N   1      34.562  17.900   6.915  0.00  0.00    -0.262 OA
BRANCH  27  29
HETATM   29  O   UNK N   1      33.736  16.471   8.427  0.00  0.00    -0.319 OA
BRANCH  29  30
HETATM   30  C   UNK N   1      34.562  16.817   9.470  0.00  0.00     0.174 C 
HETATM   31  C   UNK N   1      34.752  15.611  10.372  0.00  0.00     0.034 C 
ENDBRANCH  29  30
ENDBRANCH  27  29
ENDBRANCH   2  27
BRANCH   9  32
HETATM   32  O   UNK N   1      29.563  17.502   7.819  0.00  0.00    -0.395 OA
HETATM   33  H   UNK N   1      29.169  17.064   8.589  0.00  0.00     0.210 HD
ENDBRANCH   9  32
TORSDOF 7
ENDMDL
MODEL 8
REMARK VINA RESULT:      -6.7      4.478      8.897
REMARK  7 active torsions:
REMARK  status: ('A' for Active; 'I' for Inactive)
REMARK    1  A    between atoms: O_8  and  C_2 
REMARK    2  A    between atoms: C_2  and  C_13 
REMARK    3  A    between atoms: C_12  and  O_8 
REMARK    4  A    between atoms: C_10  and  O_26 
REMARK    5  A    between atoms: C_19  and  C_12 
REMARK    6  A    between atoms: O_29  and  C_13 
REMARK    7  A    between atoms: C_31  and  O_29 
ROOT
HETATM    1  C   UNK N   1      27.289  17.724   5.401  0.00  0.00     0.004 C 
HETATM    2  C   UNK N   1      25.965  17.055   4.886  0.00  0.00     0.165 C 
HETATM    3  C   UNK N   1      31.213  16.608   6.938  0.00  0.00     0.004 C 
HETATM    4  C   UNK N   1      28.675  17.186   7.574  0.00  0.00    -0.002 C 
HETATM    5  C   UNK N   1      27.291  17.313   6.903  0.00  0.00     0.002 C 
HETATM    6  C   UNK N   1      29.668  16.274   6.764  0.00  0.00     0.035 C 
HETATM    7  C   UNK N   1      31.524  17.567   8.101  0.00  0.00    -0.064 C 
HETATM    8  C   UNK N   1      28.575  17.237   4.680  0.00  0.00     0.045 C 
HETATM    9  C   UNK N   1      29.166  15.999   5.322  0.00  0.00     0.124 C 
HETATM   10  C   UNK N   1      31.906  17.172   5.704  0.00  0.00    -0.009 C 
HETATM   11  C   UNK N   1      32.770  18.051   8.254  0.00  0.00     0.058 C 
HETATM   12  C   UNK N   1      25.867  15.742   5.657  0.00  0.00     0.050 C 
HETATM   13  C   UNK N   1      26.643  15.925   6.943  0.00  0.00     0.009 C 
HETATM   14  C   UNK N   1      29.298  18.512   7.984  0.00  0.00     0.010 C 
HETATM   15  C   UNK N   1      33.186  17.599   5.811  0.00  0.00     0.052 C 
HETATM   16  C   UNK N   1      33.743  17.822   7.170  0.00  0.00     0.171 C 
HETATM   17  C   UNK N   1      30.440  18.148   8.933  0.00  0.00     0.036 C 
HETATM   18  O   UNK N   1      34.934  18.014   7.344  0.00  0.00    -0.289 OA
HETATM   19  C   UNK N   1      27.271  19.237   5.211  0.00  0.00     0.019 C 
HETATM   20  C   UNK N   1      31.930  15.280   7.211  0.00  0.00     0.025 C 
ENDROOT
BRANCH   2  21
HETATM   21  O   UNK N   1      24.864  17.883   5.122  0.00  0.00    -0.297 OA
BRANCH  21  22
HETATM   22  C   UNK N   1      23.523  17.664   4.982  0.00  0.00     0.293 C 
HETATM   23  O   UNK N   1      22.930  16.874   5.698  0.00  0.00    -0.262 OA
BRANCH  22  24
HETATM   24  C   UNK N   1      22.755  18.407   3.933  0.00  0.00     0.277 C 
HETATM   25 Cl   UNK N   1      23.696  19.833   3.430  0.00  0.00    -0.097 Cl
HETATM   26 Cl   UNK N   1      21.160  18.954   4.521  0.00  0.00    -0.097 Cl
ENDBRANCH  22  24
ENDBRANCH  21  22
ENDBRANCH   2  21
BRANCH   2  27
HETATM   27  C   UNK N   1      25.922  16.675   3.415  0.00  0.00     0.295 C 
HETATM   28  O   UNK N   1      25.943  17.539   2.554  0.00  0.00    -0.262 OA
BRANCH  27  29
HETATM   29  O   UNK N   1      26.001  15.362   3.069  0.00  0.00    -0.319 OA
BRANCH  29  30
HETATM   30  C   UNK N   1      25.179  14.799   2.120  0.00  0.00     0.174 C 
HETATM   31  C   UNK N   1      23.745  14.844   2.616  0.00  0.00     0.034 C 
ENDBRANCH  29  30
ENDBRANCH  27  29
ENDBRANCH   2  27
BRANCH   9  32
HETATM   32  O   UNK N   1      30.113  15.379   4.504  0.00  0.00    -0.395 OA
HETATM   33  H   UNK N   1      30.353  15.744   3.639  0.00  0.00     0.210 HD
ENDBRANCH   9  32
TORSDOF 7
ENDMDL
MODEL 9
REMARK VINA RESULT:      -6.7      6.728     11.910
REMARK  7 active torsions:
REMARK  status: ('A' for Active; 'I' for Inactive)
REMARK    1  A    between atoms: O_8  and  C_2 
REMARK    2  A    between atoms: C_2  and  C_13 
REMARK    3  A    between atoms: C_12  and  O_8 
REMARK    4  A    between atoms: C_10  and  O_26 
REMARK    5  A    between atoms: C_19  and  C_12 
REMARK    6  A    between atoms: O_29  and  C_13 
REMARK    7  A    between atoms: C_31  and  O_29 
ROOT
HETATM    1  C   UNK N   1      36.274  11.082  14.072  0.00  0.00     0.004 C 
HETATM    2  C   UNK N   1      35.824  10.733  12.609  0.00  0.00     0.165 C 
HETATM    3  C   UNK N   1      35.258  10.103  18.197  0.00  0.00     0.004 C 
HETATM    4  C   UNK N   1      34.790  11.756  16.140  0.00  0.00    -0.002 C 
HETATM    5  C   UNK N   1      35.027  11.839  14.617  0.00  0.00     0.002 C 
HETATM    6  C   UNK N   1      34.805  10.279  16.683  0.00  0.00     0.035 C 
HETATM    7  C   UNK N   1      35.319  11.419  18.994  0.00  0.00    -0.064 C 
HETATM    8  C   UNK N   1      36.613   9.846  14.949  0.00  0.00     0.045 C 
HETATM    9  C   UNK N   1      35.396   9.282  15.652  0.00  0.00     0.124 C 
HETATM   10  C   UNK N   1      36.592   9.398  18.406  0.00  0.00    -0.009 C 
HETATM   11  C   UNK N   1      35.839  11.426  20.234  0.00  0.00     0.058 C 
HETATM   12  C   UNK N   1      34.332  10.438  12.720  0.00  0.00     0.050 C 
HETATM   13  C   UNK N   1      33.825  11.177  13.938  0.00  0.00     0.009 C 
HETATM   14  C   UNK N   1      35.661  12.693  16.963  0.00  0.00     0.010 C 
HETATM   15  C   UNK N   1      37.105   9.325  19.656  0.00  0.00     0.052 C 
HETATM   16  C   UNK N   1      36.537  10.214  20.703  0.00  0.00     0.171 C 
HETATM   17  C   UNK N   1      35.023  12.724  18.352  0.00  0.00     0.036 C 
HETATM   18  O   UNK N   1      36.812  10.063  21.881  0.00  0.00    -0.289 OA
HETATM   19  C   UNK N   1      37.533  11.943  14.089  0.00  0.00     0.019 C 
HETATM   20  C   UNK N   1      34.228   9.187  18.870  0.00  0.00     0.025 C 
ENDROOT
BRANCH   2  21
HETATM   21  O   UNK N   1      36.083  11.798  11.741  0.00  0.00    -0.297 OA
BRANCH  21  22
HETATM   22  C   UNK N   1      35.279  12.457  10.854  0.00  0.00     0.293 C 
HETATM   23  O   UNK N   1      34.969  11.958   9.786  0.00  0.00    -0.262 OA
BRANCH  22  24
HETATM   24  C   UNK N   1      34.761  13.821  11.193  0.00  0.00     0.277 C 
HETATM   25 Cl   UNK N   1      34.801  14.833   9.728  0.00  0.00    -0.097 Cl
HETATM   26 Cl   UNK N   1      35.731  14.617  12.464  0.00  0.00    -0.097 Cl
ENDBRANCH  22  24
ENDBRANCH  21  22
ENDBRANCH   2  21
BRANCH   2  27
HETATM   27  C   UNK N   1      36.446   9.496  11.982  0.00  0.00     0.295 C 
HETATM   28  O   UNK N   1      35.768   8.504  11.770  0.00  0.00    -0.262 OA
BRANCH  27  29
HETATM   29  O   UNK N   1      37.729   9.556  11.532  0.00  0.00    -0.319 OA
BRANCH  29  30
HETATM   30  C   UNK N   1      38.536   8.445  11.455  0.00  0.00     0.174 C 
HETATM   31  C   UNK N   1      39.156   8.188  12.817  0.00  0.00     0.034 C 
ENDBRANCH  29  30
ENDBRANCH  27  29
ENDBRANCH   2  27
BRANCH   9  32
HETATM   32  O   UNK N   1      35.627   8.007  16.170  0.00  0.00    -0.395 OA
HETATM   33  H   UNK N   1      34.999   7.280  16.031  0.00  0.00     0.210 HD
ENDBRANCH   9  32
TORSDOF 7
ENDMDL
