REMARK  9 active torsions:
REMARK  status: ('A' for Active; 'I' for Inactive)
REMARK    1  A    between atoms: N_1  and  C_7 
REMARK    2  A    between atoms: N_1  and  C_13 
REMARK    3  A    between atoms: N_2  and  C_14 
REMARK    4  A    between atoms: N_2  and  C_15 
REMARK    5  A    between atoms: C_13  and  C_14 
REMARK    6  A    between atoms: C_15  and  C_16 
REMARK    7  A    between atoms: C_17  and  C_18 
REMARK    8  A    between atoms: C_18  and  C_20 
REMARK    9  A    between atoms: C_20  and  C_21 
ROOT
HETATM    1  C   UNK N   1       4.877   0.892  -0.891  0.00  0.00     0.133 C 
ENDROOT
BRANCH   1   2
HETATM    2  N   UNK N   1       3.944   0.298   0.060  0.00  0.00    -0.415 N 
HETATM    3  H   UNK N   1       3.898   0.501   1.058  0.00  0.00     0.153 HD
BRANCH   2   4
HETATM    4  C   UNK N   1       3.089  -0.635  -0.661  0.00  0.00     0.084 C 
HETATM    5  C   UNK N   1       3.404  -2.086  -0.247  0.00  0.00     0.009 C 
HETATM    6  C   UNK N   1       2.551  -3.035  -1.102  0.00  0.00     0.011 C 
HETATM    7  C   UNK N   1       3.058  -2.298   1.239  0.00  0.00     0.011 C 
HETATM    8  C   UNK N   1       1.058  -2.743  -0.877  0.00  0.00    -0.013 C 
HETATM    9  C   UNK N   1       0.757  -1.284  -1.261  0.00  0.00     0.011 C 
HETATM   10  C   UNK N   1       0.722  -2.952   0.609  0.00  0.00     0.009 C 
HETATM   11  C   UNK N   1       1.603  -0.328  -0.406  0.00  0.00     0.009 C 
HETATM   12  C   UNK N   1       1.265  -0.551   1.080  0.00  0.00     0.011 C 
HETATM   13  C   UNK N   1       1.568  -2.006   1.477  0.00  0.00    -0.013 C 
ENDBRANCH   2   4
ENDBRANCH   1   2
BRANCH   1  14
HETATM   14  C   UNK N   1       5.921  -0.119  -1.385  0.00  0.00     0.133 C 
BRANCH  14  15
HETATM   15  N   UNK N   1       6.452  -0.952  -0.306  0.00  0.00    -0.417 N 
HETATM   16  H   UNK N   1       6.363  -1.966  -0.246  0.00  0.00     0.153 HD
BRANCH  15  17
HETATM   17  C   UNK N   1       7.127  -0.107   0.669  0.00  0.00     0.141 C 
BRANCH  17  18
HETATM   18  C   UNK N   1       8.584   0.008   0.350  0.00  0.00    -0.005 C 
HETATM   19  C   UNK N   1       9.087   1.008  -0.386  0.00  0.00    -0.086 C 
HETATM   20  C   UNK N   1       8.216   2.076  -0.969  0.00  0.00     0.043 C 
BRANCH  19  21
HETATM   21  C   UNK N   1      10.556   1.070  -0.626  0.00  0.00     0.037 C 
BRANCH  21  22
HETATM   22  C   UNK N   1      11.266   1.422   0.668  0.00  0.00     0.031 C 
BRANCH  22  23
HETATM   23  C   UNK N   1      12.727   1.145   0.538  0.00  0.00    -0.024 C 
HETATM   24  C   UNK N   1      13.647   2.114   0.548  0.00  0.00    -0.091 C 
HETATM   25  C   UNK N   1      13.268   3.557   0.664  0.00  0.00     0.042 C 
HETATM   26  C   UNK N   1      15.084   1.749   0.431  0.00  0.00     0.042 C 
ENDBRANCH  22  23
ENDBRANCH  21  22
ENDBRANCH  19  21
ENDBRANCH  17  18
ENDBRANCH  15  17
ENDBRANCH  14  15
ENDBRANCH   1  14
TORSDOF 9
