REMARK  10 active torsions:
REMARK  status: ('A' for Active; 'I' for Inactive)
REMARK    1  A    between atoms: C_12  and  C_8 
REMARK    2  A    between atoms: N_34  and  C_12 
REMARK    3  A    between atoms: C_24  and  O_42 
REMARK    4  A    between atoms: C_25  and  O_43 
REMARK    5  A    between atoms: N_34  and  C_26 
REMARK    6  A    between atoms: C_27  and  O_38 
REMARK    7  A    between atoms: C_29  and  O_44 
REMARK    8  A    between atoms: O_40  and  C_30 
REMARK    9  A    between atoms: O_41  and  C_31 
REMARK   10  A    between atoms: O_44  and  C_31 
ROOT
HETATM    1  C   UNK N   1       3.481  -4.974   1.773  0.00  0.00     0.010 C 
HETATM    2  C   UNK N   1       4.964   3.634  -0.633  0.00  0.00     0.052 C 
HETATM    3  C   UNK N   1       7.705  -3.422   1.697  0.00  0.00     0.017 C 
HETATM    4  C   UNK N   1       7.302  -2.222  -2.749  0.00  0.00     0.046 C 
HETATM    5  C   UNK N   1       7.338   1.827  -0.210  0.00  0.00    -0.001 C 
HETATM    6  C   UNK N   1       5.949   1.465   0.132  0.00  0.00     0.011 C 
HETATM    7  C   UNK N   1       8.387   0.969  -0.110  0.00  0.00     0.008 C 
HETATM    8  C   UNK N   1       2.268  -4.454  -0.385  0.00  0.00     0.049 C 
HETATM    9  C   UNK N   1       4.192  -6.179  -0.271  0.00  0.00     0.039 C 
HETATM   10  C   UNK N   1       6.822  -3.430  -0.708  0.00  0.00    -0.015 C 
HETATM   11  C   UNK N   1       1.238  -0.304   0.912  0.00  0.00     0.090 A 
HETATM   12  C   UNK N   1       3.598  -4.890   0.261  0.00  0.00    -0.012 C 
HETATM   13  C   UNK N   1       4.853   2.249  -0.075  0.00  0.00    -0.011 C 
HETATM   14  C   UNK N   1       6.716  -3.983   0.713  0.00  0.00     0.035 C 
HETATM   15  C   UNK N   1       7.603  -2.465  -1.292  0.00  0.00    -0.055 C 
HETATM   16  C   UNK N   1       1.834  -3.046   0.050  0.00  0.00     0.025 A 
HETATM   17  C   UNK N   1       2.452  -0.570   0.418  0.00  0.00     0.089 A 
HETATM   18  C   UNK N   1       0.244  -1.396   0.993  0.00  0.00     0.201 A 
HETATM   19  C   UNK N   1       8.379  -0.504   0.414  0.00  0.00     0.177 C 
HETATM   20  C   UNK N   1       5.736  -6.411  -0.156  0.00  0.00     0.150 C 
HETATM   21  C   UNK N   1       0.590  -2.784   0.550  0.00  0.00     0.089 A 
HETATM   22  C   UNK N   1       6.681  -5.556   0.793  0.00  0.00     0.154 C 
HETATM   23  C   UNK N   1       2.791  -1.913  -0.059  0.00  0.00     0.207 A 
HETATM   24  C   UNK N   1       8.729  -1.580  -0.695  0.00  0.00     0.193 C 
HETATM   25  C   UNK N   1       3.510   1.642   0.142  0.00  0.00     0.146 C 
HETATM   26  N   UNK N   1       3.488   0.373   0.320  0.00  0.00    -0.333 N 
ATOM     27  HN  UNK N   1       4.418  -0.038   0.409  1.00  0.00     0.168 HD
HETATM   28  O   UNK N   1      -0.877  -1.154   1.416  0.00  0.00    -0.286 OA
HETATM   29  O   UNK N   1       3.884  -2.065  -0.588  0.00  0.00    -0.285 OA
ENDROOT
BRANCH  24  30
HETATM   30  O   UNK N   1       9.971  -2.210  -0.702  0.00  0.00    -0.304 OA
BRANCH  30  31
HETATM   31  C   UNK N   1      10.616  -2.995   0.202  0.00  0.00     0.256 C 
HETATM   32  N   UNK N   1      11.623  -3.684  -0.185  0.00  0.00    -0.359 N 
HETATM   33  H   UNK N   1      11.551  -4.619  -0.483  0.00  0.00     0.160 HD
ATOM     34  HN  UNK N   1      12.542  -3.242  -0.185  1.00  0.00     0.160 HD
BRANCH  31  35
HETATM   35  O   UNK N   1      10.284  -3.009   1.502  0.00  0.00    -0.327 OA
HETATM   36  H   UNK N   1      10.160  -2.813   2.410  0.00  0.00     0.221 HD
ENDBRANCH  31  35
ENDBRANCH  30  31
ENDBRANCH  24  30
BRANCH  19  37
HETATM   37  O   UNK N   1       9.162  -0.634   1.589  0.00  0.00    -0.384 OA
HETATM   38  C   UNK N   1      10.451  -0.102   1.395  0.00  0.00     0.202 C 
ENDBRANCH  19  37
BRANCH  22  39
HETATM   39  O   UNK N   1       7.987  -6.020   0.598  0.00  0.00    -0.392 OA
HETATM   40  H   UNK N   1       8.161  -6.965   0.463  0.00  0.00     0.210 HD
ENDBRANCH  22  39
BRANCH  20  41
HETATM   41  O   UNK N   1       5.844  -7.766   0.251  0.00  0.00    -0.388 OA
HETATM   42  C   UNK N   1       6.769  -8.451  -0.552  0.00  0.00     0.202 C 
ENDBRANCH  20  41
BRANCH  25  43
HETATM   43  O   UNK N   1       2.371   2.347  -0.023  0.00  0.00    -0.346 OA
HETATM   44  H   UNK N   1       2.399   3.276  -0.138  0.00  0.00     0.219 HD
ENDBRANCH  25  43
BRANCH  21  45
HETATM   45  N   UNK N   1      -0.417  -3.781   0.658  0.00  0.00    -0.383 N 
HETATM   46  H   UNK N   1      -1.007  -3.763   1.446  0.00  0.00     0.160 HD
BRANCH  45  47
HETATM   47  C   UNK N   1      -0.621  -4.819  -0.323  0.00  0.00     0.146 C 
BRANCH  47  48
HETATM   48  C   UNK N   1      -2.045  -4.822  -0.812  0.00  0.00    -0.018 C 
HETATM   49  C   UNK N   1      -2.997  -4.063  -0.262  0.00  0.00     0.008 C 
ENDBRANCH  47  48
ENDBRANCH  45  47
ENDBRANCH  21  45
TORSDOF 10
