MODEL 1
REMARK VINA RESULT:      -3.5      0.000      0.000
REMARK  1 active torsions:
REMARK  status: ('A' for Active; 'I' for Inactive)
REMARK    1  A    between atoms: N_1  and  N_2 
REMARK       I    between atoms: N_2  and  C_3 
REMARK       I    between atoms: C_3  and  N_4 
ROOT
HETATM    1  N   UNK N   1      18.863  19.516  10.558  0.00  0.00    -0.140 N 
HETATM    2  C   UNK N   1      17.618  18.947  10.924  0.00  0.00     0.683 C 
HETATM    3  N   UNK N   1      16.938  19.426  12.064  0.00  0.00    -0.234 N 
HETATM    4  N   UNK N   1      17.105  18.000  10.228  0.00  0.00    -0.234 N 
ATOM      5  HN  UNK N   1      16.209  17.596  10.499  1.00  0.00     0.174 HD
HETATM    6  H   UNK N   1      19.244  20.243  11.103  0.00  0.00     0.205 HD
HETATM    7  H   UNK N   1      16.072  19.033  12.322  0.00  0.00     0.174 HD
HETATM    8  H   UNK N   1      17.328  20.153  12.601  0.00  0.00     0.174 HD
HETATM    9  H   UNK N   1      17.577  17.663   9.432  0.00  0.00     0.174 HD
ENDROOT
BRANCH   1  10
HETATM   10  N   UNK N   1      19.555  19.066   9.443  0.00  0.00    -0.331 N 
HETATM   11  H   UNK N   1      20.243  19.669   8.992  0.00  0.00     0.177 HD
HETATM   12  H   UNK N   1      19.375  18.132   9.075  0.00  0.00     0.177 HD
ENDBRANCH   1  10
TORSDOF 1
ENDMDL
MODEL 2
REMARK VINA RESULT:      -3.3      8.411      8.813
REMARK  1 active torsions:
REMARK  status: ('A' for Active; 'I' for Inactive)
REMARK    1  A    between atoms: N_1  and  N_2 
REMARK       I    between atoms: N_2  and  C_3 
REMARK       I    between atoms: C_3  and  N_4 
ROOT
HETATM    1  N   UNK N   1      23.967  12.566  10.646  0.00  0.00    -0.140 N 
HETATM    2  C   UNK N   1      23.086  12.141  11.671  0.00  0.00     0.683 C 
HETATM    3  N   UNK N   1      21.773  11.740  11.343  0.00  0.00    -0.234 N 
HETATM    4  N   UNK N   1      23.471  12.118  12.893  0.00  0.00    -0.234 N 
ATOM      5  HN  UNK N   1      22.830  11.811  13.625  1.00  0.00     0.174 HD
HETATM    6  H   UNK N   1      23.656  12.578   9.712  0.00  0.00     0.205 HD
HETATM    7  H   UNK N   1      21.157  11.444  12.052  0.00  0.00     0.174 HD
HETATM    8  H   UNK N   1      21.473  11.756  10.405  0.00  0.00     0.174 HD
HETATM    9  H   UNK N   1      24.386  12.397  13.127  0.00  0.00     0.174 HD
ENDROOT
BRANCH   1  10
HETATM   10  N   UNK N   1      25.263  12.966  10.939  0.00  0.00    -0.331 N 
HETATM   11  H   UNK N   1      25.675  13.759  10.447  0.00  0.00     0.177 HD
HETATM   12  H   UNK N   1      25.803  12.467  11.646  0.00  0.00     0.177 HD
ENDBRANCH   1  10
TORSDOF 1
ENDMDL
MODEL 3
REMARK VINA RESULT:      -3.3     26.930     27.668
REMARK  1 active torsions:
REMARK  status: ('A' for Active; 'I' for Inactive)
REMARK    1  A    between atoms: N_1  and  N_2 
REMARK       I    between atoms: N_2  and  C_3 
REMARK       I    between atoms: C_3  and  N_4 
ROOT
HETATM    1  N   UNK N   1      45.028  22.473   3.013  0.00  0.00    -0.140 N 
HETATM    2  C   UNK N   1      43.914  23.348   3.064  0.00  0.00     0.683 C 
HETATM    3  N   UNK N   1      43.214  23.660   1.879  0.00  0.00    -0.234 N 
HETATM    4  N   UNK N   1      43.539  23.859   4.178  0.00  0.00    -0.234 N 
ATOM      5  HN  UNK N   1      42.736  24.488   4.206  1.00  0.00     0.174 HD
HETATM    6  H   UNK N   1      45.303  22.088   2.148  0.00  0.00     0.205 HD
HETATM    7  H   UNK N   1      42.439  24.267   1.910  0.00  0.00     0.174 HD
HETATM    8  H   UNK N   1      43.499  23.269   1.021  0.00  0.00     0.174 HD
HETATM    9  H   UNK N   1      44.025  23.644   5.007  0.00  0.00     0.174 HD
ENDROOT
BRANCH   1  10
HETATM   10  N   UNK N   1      45.735  22.148   4.160  0.00  0.00    -0.331 N 
HETATM   11  H   UNK N   1      46.470  22.770   4.499  0.00  0.00     0.177 HD
HETATM   12  H   UNK N   1      45.520  21.289   4.666  0.00  0.00     0.177 HD
ENDBRANCH   1  10
TORSDOF 1
ENDMDL
MODEL 4
REMARK VINA RESULT:      -3.3      8.472      9.093
REMARK  1 active torsions:
REMARK  status: ('A' for Active; 'I' for Inactive)
REMARK    1  A    between atoms: N_1  and  N_2 
REMARK       I    between atoms: N_2  and  C_3 
REMARK       I    between atoms: C_3  and  N_4 
ROOT
HETATM    1  N   UNK N   1      22.322  11.849  11.209  0.00  0.00    -0.140 N 
HETATM    2  C   UNK N   1      23.495  12.056  11.977  0.00  0.00     0.683 C 
HETATM    3  N   UNK N   1      24.747  12.148  11.331  0.00  0.00    -0.234 N 
HETATM    4  N   UNK N   1      23.428  12.160  13.252  0.00  0.00    -0.234 N 
ATOM      5  HN  UNK N   1      24.277  12.309  13.798  1.00  0.00     0.174 HD
HETATM    6  H   UNK N   1      22.391  11.771  10.229  0.00  0.00     0.205 HD
HETATM    7  H   UNK N   1      25.565  12.292  11.861  0.00  0.00     0.174 HD
HETATM    8  H   UNK N   1      24.803  12.069  10.351  0.00  0.00     0.174 HD
HETATM    9  H   UNK N   1      22.557  12.096  13.707  0.00  0.00     0.174 HD
ENDROOT
BRANCH   1  10
HETATM   10  N   UNK N   1      21.079  11.754  11.815  0.00  0.00    -0.331 N 
HETATM   11  H   UNK N   1      20.390  11.089  11.464  0.00  0.00     0.177 HD
HETATM   12  H   UNK N   1      20.854  12.350  12.612  0.00  0.00     0.177 HD
ENDBRANCH   1  10
TORSDOF 1
ENDMDL
MODEL 5
REMARK VINA RESULT:      -3.2      0.742      2.460
REMARK  1 active torsions:
REMARK  status: ('A' for Active; 'I' for Inactive)
REMARK    1  A    between atoms: N_1  and  N_2 
REMARK       I    between atoms: N_2  and  C_3 
REMARK       I    between atoms: C_3  and  N_4 
ROOT
HETATM    1  N   UNK N   1      18.125  19.424  11.303  0.00  0.00    -0.140 N 
HETATM    2  C   UNK N   1      18.286  18.615  10.150  0.00  0.00     0.683 C 
HETATM    3  N   UNK N   1      19.506  18.643   9.442  0.00  0.00    -0.234 N 
HETATM    4  N   UNK N   1      17.333  17.859   9.747  0.00  0.00    -0.234 N 
ATOM      5  HN  UNK N   1      17.457  17.281   8.916  1.00  0.00     0.174 HD
HETATM    6  H   UNK N   1      18.867  19.999  11.600  0.00  0.00     0.205 HD
HETATM    7  H   UNK N   1      19.623  18.083   8.640  0.00  0.00     0.174 HD
HETATM    8  H   UNK N   1      20.241  19.222   9.749  0.00  0.00     0.174 HD
HETATM    9  H   UNK N   1      16.480  17.837  10.238  0.00  0.00     0.174 HD
ENDROOT
BRANCH   1  10
HETATM   10  N   UNK N   1      16.938  19.417  12.020  0.00  0.00    -0.331 N 
HETATM   11  H   UNK N   1      16.871  18.892  12.892  0.00  0.00     0.177 HD
HETATM   12  H   UNK N   1      16.131  19.938  11.675  0.00  0.00     0.177 HD
ENDBRANCH   1  10
TORSDOF 1
ENDMDL
MODEL 6
REMARK VINA RESULT:      -3.2      7.779      8.333
REMARK  1 active torsions:
REMARK  status: ('A' for Active; 'I' for Inactive)
REMARK    1  A    between atoms: N_1  and  N_2 
REMARK       I    between atoms: N_2  and  C_3 
REMARK       I    between atoms: C_3  and  N_4 
ROOT
HETATM    1  N   UNK N   1      18.563  26.113   9.125  0.00  0.00    -0.140 N 
HETATM    2  C   UNK N   1      17.720  26.797   8.215  0.00  0.00     0.683 C 
HETATM    3  N   UNK N   1      17.528  26.281   6.915  0.00  0.00    -0.234 N 
HETATM    4  N   UNK N   1      17.131  27.881   8.562  0.00  0.00    -0.234 N 
ATOM      5  HN  UNK N   1      16.525  28.367   7.901  1.00  0.00     0.174 HD
HETATM    6  H   UNK N   1      19.009  25.281   8.843  0.00  0.00     0.205 HD
HETATM    7  H   UNK N   1      16.943  26.753   6.279  0.00  0.00     0.174 HD
HETATM    8  H   UNK N   1      17.979  25.448   6.645  0.00  0.00     0.174 HD
HETATM    9  H   UNK N   1      17.262  28.245   9.468  0.00  0.00     0.174 HD
ENDROOT
BRANCH   1  10
HETATM   10  N   UNK N   1      18.771  26.596  10.408  0.00  0.00    -0.331 N 
HETATM   11  H   UNK N   1      17.978  26.904  10.972  0.00  0.00     0.177 HD
HETATM   12  H   UNK N   1      19.717  26.644  10.788  0.00  0.00     0.177 HD
ENDBRANCH   1  10
TORSDOF 1
ENDMDL
MODEL 7
REMARK VINA RESULT:      -3.2     26.852     27.511
REMARK  1 active torsions:
REMARK  status: ('A' for Active; 'I' for Inactive)
REMARK    1  A    between atoms: N_1  and  N_2 
REMARK       I    between atoms: N_2  and  C_3 
REMARK       I    between atoms: C_3  and  N_4 
ROOT
HETATM    1  N   UNK N   1      43.466  22.629   3.773  0.00  0.00    -0.140 N 
HETATM    2  C   UNK N   1      44.602  21.783   3.815  0.00  0.00     0.683 C 
HETATM    3  N   UNK N   1      44.479  20.427   3.443  0.00  0.00    -0.234 N 
HETATM    4  N   UNK N   1      45.740  22.240   4.188  0.00  0.00    -0.234 N 
ATOM      5  HN  UNK N   1      46.553  21.624   4.215  1.00  0.00     0.174 HD
HETATM    6  H   UNK N   1      42.598  22.263   3.484  0.00  0.00     0.205 HD
HETATM    7  H   UNK N   1      45.266  19.836   3.470  0.00  0.00     0.174 HD
HETATM    8  H   UNK N   1      43.606  20.073   3.155  0.00  0.00     0.174 HD
HETATM    9  H   UNK N   1      45.830  23.185   4.448  0.00  0.00     0.174 HD
ENDROOT
BRANCH   1  10
HETATM   10  N   UNK N   1      43.556  23.965   4.133  0.00  0.00    -0.331 N 
HETATM   11  H   UNK N   1      44.252  24.567   3.691  0.00  0.00     0.177 HD
HETATM   12  H   UNK N   1      42.927  24.347   4.839  0.00  0.00     0.177 HD
ENDBRANCH   1  10
TORSDOF 1
ENDMDL
MODEL 8
REMARK VINA RESULT:      -3.1     15.989     17.138
REMARK  1 active torsions:
REMARK  status: ('A' for Active; 'I' for Inactive)
REMARK    1  A    between atoms: N_1  and  N_2 
REMARK       I    between atoms: N_2  and  C_3 
REMARK       I    between atoms: C_3  and  N_4 
ROOT
HETATM    1  N   UNK N   1      34.028  14.885  11.166  0.00  0.00    -0.140 N 
HETATM    2  C   UNK N   1      35.084  15.831  11.166  0.00  0.00     0.683 C 
HETATM    3  N   UNK N   1      36.303  15.519  11.804  0.00  0.00    -0.234 N 
HETATM    4  N   UNK N   1      34.939  16.968  10.593  0.00  0.00    -0.234 N 
ATOM      5  HN  UNK N   1      35.704  17.643  10.598  1.00  0.00     0.174 HD
HETATM    6  H   UNK N   1      34.156  14.016  11.611  0.00  0.00     0.205 HD
HETATM    7  H   UNK N   1      37.039  16.173  11.807  0.00  0.00     0.174 HD
HETATM    8  H   UNK N   1      36.418  14.646  12.246  0.00  0.00     0.174 HD
HETATM    9  H   UNK N   1      34.090  17.190  10.146  0.00  0.00     0.174 HD
ENDROOT
BRANCH   1  10
HETATM   10  N   UNK N   1      32.819  15.164  10.547  0.00  0.00    -0.331 N 
HETATM   11  H   UNK N   1      31.943  14.889  10.992  0.00  0.00     0.177 HD
HETATM   12  H   UNK N   1      32.805  15.645   9.648  0.00  0.00     0.177 HD
ENDBRANCH   1  10
TORSDOF 1
ENDMDL
MODEL 9
REMARK VINA RESULT:      -3.1      9.018      9.339
REMARK  1 active torsions:
REMARK  status: ('A' for Active; 'I' for Inactive)
REMARK    1  A    between atoms: N_1  and  N_2 
REMARK       I    between atoms: N_2  and  C_3 
REMARK       I    between atoms: C_3  and  N_4 
ROOT
HETATM    1  N   UNK N   1      23.656  12.206  12.298  0.00  0.00    -0.140 N 
HETATM    2  C   UNK N   1      24.130  12.274  10.964  0.00  0.00     0.683 C 
HETATM    3  N   UNK N   1      25.319  12.978  10.679  0.00  0.00    -0.234 N 
HETATM    4  N   UNK N   1      23.487  11.701  10.015  0.00  0.00    -0.234 N 
ATOM      5  HN  UNK N   1      23.835  11.755   9.057  1.00  0.00     0.174 HD
HETATM    6  H   UNK N   1      24.162  12.652  13.016  0.00  0.00     0.205 HD
HETATM    7  H   UNK N   1      25.653  13.028   9.753  0.00  0.00     0.174 HD
HETATM    8  H   UNK N   1      25.816  13.420  11.406  0.00  0.00     0.174 HD
HETATM    9  H   UNK N   1      22.657  11.209  10.209  0.00  0.00     0.174 HD
ENDROOT
BRANCH   1  10
HETATM   10  N   UNK N   1      22.491  11.522  12.608  0.00  0.00    -0.331 N 
HETATM   11  H   UNK N   1      21.621  11.749  12.125  0.00  0.00     0.177 HD
HETATM   12  H   UNK N   1      22.503  10.790  13.319  0.00  0.00     0.177 HD
ENDBRANCH   1  10
TORSDOF 1
ENDMDL
