MODEL 1
REMARK VINA RESULT:      -5.8      0.000      0.000
REMARK  3 active torsions:
REMARK  status: ('A' for Active; 'I' for Inactive)
REMARK    1  A    between atoms: C_5  and  C_10 
REMARK    2  A    between atoms: C_6  and  C_7 
REMARK    3  A    between atoms: C_9  and  C_10 
ROOT
HETATM    1  N   UNK N   1      30.539  17.869   8.589  0.00  0.00    -0.267 N 
HETATM    2  N   UNK N   1      31.844  18.043   8.664  0.00  0.00    -0.297 N 
ATOM      3  HN  UNK N   1      32.348  18.503   9.423  1.00  0.00     0.187 HD
HETATM    4  C   UNK N   1      31.376  16.966   6.747  0.00  0.00     0.063 A 
HETATM    5  C   UNK N   1      32.398  17.501   7.549  0.00  0.00     0.046 A 
HETATM    6  C   UNK N   1      30.214  17.230   7.455  0.00  0.00     0.071 A 
HETATM    7  C   UNK N   1      28.887  16.929   7.157  0.00  0.00     0.032 A 
HETATM    8  C   UNK N   1      29.625  18.260   9.512  0.00  0.00     0.116 A 
HETATM    9  C   UNK N   1      27.906  17.312   8.086  0.00  0.00     0.004 A 
HETATM   10  C   UNK N   1      28.272  17.980   9.269  0.00  0.00     0.019 A 
ENDROOT
BRANCH   4  11
HETATM   11  C   UNK N   1      31.497  16.280   5.429  0.00  0.00     0.167 C 
HETATM   12  O   UNK N   1      31.672  15.071   5.389  0.00  0.00    -0.292 OA
BRANCH  11  13
HETATM   13  C   UNK N   1      31.453  17.068   4.144  0.00  0.00     0.052 C 
HETATM   14  C   UNK N   1      32.810  17.171   3.469  0.00  0.00     0.018 C 
HETATM   15  C   UNK N   1      30.444  16.473   3.180  0.00  0.00     0.018 C 
ENDBRANCH  11  13
ENDBRANCH   4  11
BRANCH   5  16
HETATM   16  C   UNK N   1      33.883  17.494   7.278  0.00  0.00     0.030 C 
HETATM   17  C   UNK N   1      34.479  16.109   7.475  0.00  0.00     0.016 C 
HETATM   18  C   UNK N   1      34.620  18.458   8.188  0.00  0.00     0.016 C 
ENDBRANCH   5  16
TORSDOF 3
ENDMDL
MODEL 2
REMARK VINA RESULT:      -5.8      7.627      9.959
REMARK  3 active torsions:
REMARK  status: ('A' for Active; 'I' for Inactive)
REMARK    1  A    between atoms: C_5  and  C_10 
REMARK    2  A    between atoms: C_6  and  C_7 
REMARK    3  A    between atoms: C_9  and  C_10 
ROOT
HETATM    1  N   UNK N   1      24.842  18.723   4.547  0.00  0.00    -0.267 N 
HETATM    2  N   UNK N   1      24.216  17.842   5.303  0.00  0.00    -0.297 N 
ATOM      3  HN  UNK N   1      24.654  17.185   5.949  1.00  0.00     0.187 HD
HETATM    4  C   UNK N   1      22.683  18.977   4.112  0.00  0.00     0.063 A 
HETATM    5  C   UNK N   1      22.885  17.965   5.066  0.00  0.00     0.046 A 
HETATM    6  C   UNK N   1      23.962  19.423   3.815  0.00  0.00     0.071 A 
HETATM    7  C   UNK N   1      24.390  20.419   2.939  0.00  0.00     0.032 A 
HETATM    8  C   UNK N   1      26.182  18.927   4.496  0.00  0.00     0.116 A 
HETATM    9  C   UNK N   1      25.769  20.668   2.856  0.00  0.00     0.004 A 
HETATM   10  C   UNK N   1      26.672  19.920   3.636  0.00  0.00     0.019 A 
ENDROOT
BRANCH   4  11
HETATM   11  C   UNK N   1      21.398  19.461   3.534  0.00  0.00     0.167 C 
HETATM   12  O   UNK N   1      20.689  20.217   4.181  0.00  0.00    -0.292 OA
BRANCH  11  13
HETATM   13  C   UNK N   1      20.939  18.990   2.177  0.00  0.00     0.052 C 
HETATM   14  C   UNK N   1      19.635  18.213   2.232  0.00  0.00     0.018 C 
HETATM   15  C   UNK N   1      20.798  20.159   1.219  0.00  0.00     0.018 C 
ENDBRANCH  11  13
ENDBRANCH   4  11
BRANCH   5  16
HETATM   16  C   UNK N   1      21.837  17.129   5.758  0.00  0.00     0.030 C 
HETATM   17  C   UNK N   1      21.083  17.934   6.805  0.00  0.00     0.016 C 
HETATM   18  C   UNK N   1      22.450  15.922   6.444  0.00  0.00     0.016 C 
ENDBRANCH   5  16
TORSDOF 3
ENDMDL
MODEL 3
REMARK VINA RESULT:      -5.8      9.062     10.934
REMARK  3 active torsions:
REMARK  status: ('A' for Active; 'I' for Inactive)
REMARK    1  A    between atoms: C_5  and  C_10 
REMARK    2  A    between atoms: C_6  and  C_7 
REMARK    3  A    between atoms: C_9  and  C_10 
ROOT
HETATM    1  N   UNK N   1      35.748  13.699  16.941  0.00  0.00    -0.267 N 
HETATM    2  N   UNK N   1      35.093  12.555  16.909  0.00  0.00    -0.297 N 
ATOM      3  HN  UNK N   1      34.459  12.204  17.628  1.00  0.00     0.187 HD
HETATM    4  C   UNK N   1      36.316  12.729  15.031  0.00  0.00     0.063 A 
HETATM    5  C   UNK N   1      35.414  11.927  15.749  0.00  0.00     0.046 A 
HETATM    6  C   UNK N   1      36.495  13.843  15.836  0.00  0.00     0.071 A 
HETATM    7  C   UNK N   1      37.276  14.981  15.643  0.00  0.00     0.032 A 
HETATM    8  C   UNK N   1      35.692  14.627  17.929  0.00  0.00     0.116 A 
HETATM    9  C   UNK N   1      37.247  15.971  16.638  0.00  0.00     0.004 A 
HETATM   10  C   UNK N   1      36.453  15.796  17.787  0.00  0.00     0.019 A 
ENDROOT
BRANCH   4  11
HETATM   11  C   UNK N   1      36.952  12.454  13.712  0.00  0.00     0.167 C 
HETATM   12  O   UNK N   1      37.775  11.556  13.612  0.00  0.00    -0.292 OA
BRANCH  11  13
HETATM   13  C   UNK N   1      36.626  13.302  12.508  0.00  0.00     0.052 C 
HETATM   14  C   UNK N   1      37.465  12.947  11.292  0.00  0.00     0.018 C 
HETATM   15  C   UNK N   1      35.152  13.202  12.160  0.00  0.00     0.018 C 
ENDBRANCH  11  13
ENDBRANCH   4  11
BRANCH   5  16
HETATM   16  C   UNK N   1      34.849  10.586  15.346  0.00  0.00     0.030 C 
HETATM   17  C   UNK N   1      33.529  10.737  14.607  0.00  0.00     0.016 C 
HETATM   18  C   UNK N   1      34.615   9.695  16.551  0.00  0.00     0.016 C 
ENDBRANCH   5  16
TORSDOF 3
ENDMDL
MODEL 4
REMARK VINA RESULT:      -5.7      1.807      3.875
REMARK  3 active torsions:
REMARK  status: ('A' for Active; 'I' for Inactive)
REMARK    1  A    between atoms: C_5  and  C_10 
REMARK    2  A    between atoms: C_6  and  C_7 
REMARK    3  A    between atoms: C_9  and  C_10 
ROOT
HETATM    1  N   UNK N   1      30.197  17.517   6.713  0.00  0.00    -0.267 N 
HETATM    2  N   UNK N   1      30.657  17.144   5.535  0.00  0.00    -0.297 N 
ATOM      3  HN  UNK N   1      30.099  16.971   4.698  1.00  0.00     0.187 HD
HETATM    4  C   UNK N   1      32.395  17.353   6.945  0.00  0.00     0.063 A 
HETATM    5  C   UNK N   1      32.006  17.032   5.634  0.00  0.00     0.046 A 
HETATM    6  C   UNK N   1      31.204  17.651   7.589  0.00  0.00     0.071 A 
HETATM    7  C   UNK N   1      30.962  18.043   8.904  0.00  0.00     0.032 A 
HETATM    8  C   UNK N   1      28.898  17.749   7.029  0.00  0.00     0.116 A 
HETATM    9  C   UNK N   1      29.633  18.298   9.277  0.00  0.00     0.004 A 
HETATM   10  C   UNK N   1      28.595  18.151   8.338  0.00  0.00     0.019 A 
ENDROOT
BRANCH   4  11
HETATM   11  C   UNK N   1      33.767  17.362   7.528  0.00  0.00     0.167 C 
HETATM   12  O   UNK N   1      34.562  18.227   7.190  0.00  0.00    -0.292 OA
BRANCH  11  13
HETATM   13  C   UNK N   1      34.200  16.289   8.494  0.00  0.00     0.052 C 
HETATM   14  C   UNK N   1      35.078  15.232   7.847  0.00  0.00     0.018 C 
HETATM   15  C   UNK N   1      34.921  16.894   9.685  0.00  0.00     0.018 C 
ENDBRANCH  11  13
ENDBRANCH   4  11
BRANCH   5  16
HETATM   16  C   UNK N   1      32.894  16.635   4.480  0.00  0.00     0.030 C 
HETATM   17  C   UNK N   1      32.287  17.038   3.145  0.00  0.00     0.016 C 
HETATM   18  C   UNK N   1      33.138  15.138   4.453  0.00  0.00     0.016 C 
ENDBRANCH   5  16
TORSDOF 3
ENDMDL
MODEL 5
REMARK VINA RESULT:      -5.7      9.664     11.555
REMARK  3 active torsions:
REMARK  status: ('A' for Active; 'I' for Inactive)
REMARK    1  A    between atoms: C_5  and  C_10 
REMARK    2  A    between atoms: C_6  and  C_7 
REMARK    3  A    between atoms: C_9  and  C_10 
ROOT
HETATM    1  N   UNK N   1      36.698  14.090  15.685  0.00  0.00    -0.267 N 
HETATM    2  N   UNK N   1      37.137  13.679  14.511  0.00  0.00    -0.297 N 
ATOM      3  HN  UNK N   1      37.808  14.165  13.916  1.00  0.00     0.187 HD
HETATM    4  C   UNK N   1      35.681  12.158  15.301  0.00  0.00     0.063 A 
HETATM    5  C   UNK N   1      36.536  12.492  14.238  0.00  0.00     0.046 A 
HETATM    6  C   UNK N   1      35.821  13.211  16.193  0.00  0.00     0.071 A 
HETATM    7  C   UNK N   1      35.223  13.429  17.432  0.00  0.00     0.032 A 
HETATM    8  C   UNK N   1      37.064  15.230  16.323  0.00  0.00     0.116 A 
HETATM    9  C   UNK N   1      35.574  14.595  18.131  0.00  0.00     0.004 A 
HETATM   10  C   UNK N   1      36.498  15.501  17.577  0.00  0.00     0.019 A 
ENDROOT
BRANCH   4  11
HETATM   11  C   UNK N   1      34.808  10.959  15.445  0.00  0.00     0.167 C 
HETATM   12  O   UNK N   1      33.711  10.940  14.907  0.00  0.00    -0.292 OA
BRANCH  11  13
HETATM   13  C   UNK N   1      35.244   9.786  16.287  0.00  0.00     0.052 C 
HETATM   14  C   UNK N   1      36.741   9.768  16.543  0.00  0.00     0.018 C 
HETATM   15  C   UNK N   1      34.498   9.764  17.609  0.00  0.00     0.018 C 
ENDBRANCH  11  13
ENDBRANCH   4  11
BRANCH   5  16
HETATM   16  C   UNK N   1      36.797  11.700  12.979  0.00  0.00     0.030 C 
HETATM   17  C   UNK N   1      37.802  10.585  13.221  0.00  0.00     0.016 C 
HETATM   18  C   UNK N   1      37.330  12.581  11.866  0.00  0.00     0.016 C 
ENDBRANCH   5  16
TORSDOF 3
ENDMDL
MODEL 6
REMARK VINA RESULT:      -5.5      2.506      4.810
REMARK  3 active torsions:
REMARK  status: ('A' for Active; 'I' for Inactive)
REMARK    1  A    between atoms: C_5  and  C_10 
REMARK    2  A    between atoms: C_6  and  C_7 
REMARK    3  A    between atoms: C_9  and  C_10 
ROOT
HETATM    1  N   UNK N   1      31.363  17.063   6.368  0.00  0.00    -0.267 N 
HETATM    2  N   UNK N   1      30.918  17.327   7.581  0.00  0.00    -0.297 N 
ATOM      3  HN  UNK N   1      31.422  17.171   8.455  1.00  0.00     0.187 HD
HETATM    4  C   UNK N   1      29.329  17.900   6.098  0.00  0.00     0.063 A 
HETATM    5  C   UNK N   1      29.669  17.845   7.460  0.00  0.00     0.046 A 
HETATM    6  C   UNK N   1      30.442  17.388   5.449  0.00  0.00     0.071 A 
HETATM    7  C   UNK N   1      30.689  17.202   4.090  0.00  0.00     0.032 A 
HETATM    8  C   UNK N   1      32.577  16.544   6.056  0.00  0.00     0.116 A 
HETATM    9  C   UNK N   1      31.934  16.671   3.719  0.00  0.00     0.004 A 
HETATM   10  C   UNK N   1      32.884  16.339   4.703  0.00  0.00     0.019 A 
ENDROOT
BRANCH   4  11
HETATM   11  C   UNK N   1      28.062  18.383   5.479  0.00  0.00     0.167 C 
HETATM   12  O   UNK N   1      27.109  17.624   5.380  0.00  0.00    -0.292 OA
BRANCH  11  13
HETATM   13  C   UNK N   1      27.959  19.784   4.930  0.00  0.00     0.052 C 
HETATM   14  C   UNK N   1      27.022  19.882   3.738  0.00  0.00     0.018 C 
HETATM   15  C   UNK N   1      27.518  20.756   6.009  0.00  0.00     0.018 C 
ENDBRANCH  11  13
ENDBRANCH   4  11
BRANCH   5  16
HETATM   16  C   UNK N   1      28.833  18.284   8.638  0.00  0.00     0.030 C 
HETATM   17  C   UNK N   1      29.700  18.638   9.835  0.00  0.00     0.016 C 
HETATM   18  C   UNK N   1      27.859  17.202   9.065  0.00  0.00     0.016 C 
ENDBRANCH   5  16
TORSDOF 3
ENDMDL
MODEL 7
REMARK VINA RESULT:      -5.5     13.608     15.890
REMARK  3 active torsions:
REMARK  status: ('A' for Active; 'I' for Inactive)
REMARK    1  A    between atoms: C_5  and  C_10 
REMARK    2  A    between atoms: C_6  and  C_7 
REMARK    3  A    between atoms: C_9  and  C_10 
ROOT
HETATM    1  N   UNK N   1      25.963  25.170  -7.110  0.00  0.00    -0.267 N 
HETATM    2  N   UNK N   1      26.106  26.398  -6.649  0.00  0.00    -0.297 N 
ATOM      3  HN  UNK N   1      25.891  27.259  -7.154  1.00  0.00     0.187 HD
HETATM    4  C   UNK N   1      26.756  24.956  -5.051  0.00  0.00     0.063 A 
HETATM    5  C   UNK N   1      26.592  26.311  -5.385  0.00  0.00     0.046 A 
HETATM    6  C   UNK N   1      26.343  24.275  -6.187  0.00  0.00     0.071 A 
HETATM    7  C   UNK N   1      26.277  22.907  -6.445  0.00  0.00     0.032 A 
HETATM    8  C   UNK N   1      25.494  24.824  -8.335  0.00  0.00     0.116 A 
HETATM    9  C   UNK N   1      25.794  22.501  -7.699  0.00  0.00     0.004 A 
HETATM   10  C   UNK N   1      25.400  23.461  -8.650  0.00  0.00     0.019 A 
ENDROOT
BRANCH   4  11
HETATM   11  C   UNK N   1      27.267  24.371  -3.780  0.00  0.00     0.167 C 
HETATM   12  O   UNK N   1      26.532  24.305  -2.805  0.00  0.00    -0.292 OA
BRANCH  11  13
HETATM   13  C   UNK N   1      28.696  23.902  -3.667  0.00  0.00     0.052 C 
HETATM   14  C   UNK N   1      29.699  25.037  -3.783  0.00  0.00     0.018 C 
HETATM   15  C   UNK N   1      28.917  23.153  -2.366  0.00  0.00     0.018 C 
ENDBRANCH  11  13
ENDBRANCH   4  11
BRANCH   5  16
HETATM   16  C   UNK N   1      26.877  27.514  -4.520  0.00  0.00     0.030 C 
HETATM   17  C   UNK N   1      25.715  27.819  -3.587  0.00  0.00     0.016 C 
HETATM   18  C   UNK N   1      27.146  28.751  -5.356  0.00  0.00     0.016 C 
ENDBRANCH   5  16
TORSDOF 3
ENDMDL
MODEL 8
REMARK VINA RESULT:      -5.5     10.566     12.257
REMARK  3 active torsions:
REMARK  status: ('A' for Active; 'I' for Inactive)
REMARK    1  A    between atoms: C_5  and  C_10 
REMARK    2  A    between atoms: C_6  and  C_7 
REMARK    3  A    between atoms: C_9  and  C_10 
ROOT
HETATM    1  N   UNK N   1      36.097  10.806  17.937  0.00  0.00    -0.267 N 
HETATM    2  N   UNK N   1      36.570  10.001  17.005  0.00  0.00    -0.297 N 
ATOM      3  HN  UNK N   1      36.955   9.068  17.154  1.00  0.00     0.187 HD
HETATM    4  C   UNK N   1      35.877  11.901  16.023  0.00  0.00     0.063 A 
HETATM    5  C   UNK N   1      36.452  10.637  15.811  0.00  0.00     0.046 A 
HETATM    6  C   UNK N   1      35.673  11.957  17.393  0.00  0.00     0.071 A 
HETATM    7  C   UNK N   1      35.127  12.965  18.185  0.00  0.00     0.032 A 
HETATM    8  C   UNK N   1      36.026  10.539  19.265  0.00  0.00     0.116 A 
HETATM    9  C   UNK N   1      35.030  12.732  19.566  0.00  0.00     0.004 A 
HETATM   10  C   UNK N   1      35.480  11.515  20.112  0.00  0.00     0.019 A 
ENDROOT
BRANCH   4  11
HETATM   11  C   UNK N   1      35.563  12.955  15.018  0.00  0.00     0.167 C 
HETATM   12  O   UNK N   1      34.421  13.071  14.597  0.00  0.00    -0.292 OA
BRANCH  11  13
HETATM   13  C   UNK N   1      36.649  13.852  14.477  0.00  0.00     0.052 C 
HETATM   14  C   UNK N   1      36.215  14.627  13.245  0.00  0.00     0.018 C 
HETATM   15  C   UNK N   1      37.133  14.816  15.544  0.00  0.00     0.018 C 
ENDBRANCH  11  13
ENDBRANCH   4  11
BRANCH   5  16
HETATM   16  C   UNK N   1      36.878  10.026  14.499  0.00  0.00     0.030 C 
HETATM   17  C   UNK N   1      36.335   8.615  14.339  0.00  0.00     0.016 C 
HETATM   18  C   UNK N   1      38.389   9.965  14.376  0.00  0.00     0.016 C 
ENDBRANCH   5  16
TORSDOF 3
ENDMDL
MODEL 9
REMARK VINA RESULT:      -5.5     11.623     13.397
REMARK  3 active torsions:
REMARK  status: ('A' for Active; 'I' for Inactive)
REMARK    1  A    between atoms: C_5  and  C_10 
REMARK    2  A    between atoms: C_6  and  C_7 
REMARK    3  A    between atoms: C_9  and  C_10 
ROOT
HETATM    1  N   UNK N   1      28.793  25.244  -4.859  0.00  0.00    -0.267 N 
HETATM    2  N   UNK N   1      30.030  25.452  -5.266  0.00  0.00    -0.297 N 
ATOM      3  HN  UNK N   1      30.322  26.105  -5.993  1.00  0.00     0.187 HD
HETATM    4  C   UNK N   1      30.065  23.893  -3.646  0.00  0.00     0.063 A 
HETATM    5  C   UNK N   1      30.845  24.641  -4.544  0.00  0.00     0.046 A 
HETATM    6  C   UNK N   1      28.767  24.315  -3.890  0.00  0.00     0.071 A 
HETATM    7  C   UNK N   1      27.566  23.930  -3.299  0.00  0.00     0.032 A 
HETATM    8  C   UNK N   1      27.681  25.866  -5.324  0.00  0.00     0.116 A 
HETATM    9  C   UNK N   1      26.389  24.551  -3.745  0.00  0.00     0.004 A 
HETATM   10  C   UNK N   1      26.443  25.523  -4.762  0.00  0.00     0.019 A 
ENDROOT
BRANCH   4  11
HETATM   11  C   UNK N   1      30.514  22.870  -2.660  0.00  0.00     0.167 C 
HETATM   12  O   UNK N   1      30.561  23.153  -1.472  0.00  0.00    -0.292 OA
BRANCH  11  13
HETATM   13  C   UNK N   1      30.957  21.503  -3.117  0.00  0.00     0.052 C 
HETATM   14  C   UNK N   1      30.473  21.163  -4.516  0.00  0.00     0.018 C 
HETATM   15  C   UNK N   1      32.468  21.375  -3.053  0.00  0.00     0.018 C 
ENDBRANCH  11  13
ENDBRANCH   4  11
BRANCH   5  16
HETATM   16  C   UNK N   1      32.344  24.603  -4.717  0.00  0.00     0.030 C 
HETATM   17  C   UNK N   1      32.917  25.996  -4.922  0.00  0.00     0.016 C 
HETATM   18  C   UNK N   1      32.748  23.748  -5.903  0.00  0.00     0.016 C 
ENDBRANCH   5  16
TORSDOF 3
ENDMDL
