MODEL 1
REMARK VINA RESULT:      -6.4      0.000      0.000
REMARK  14 active torsions:
REMARK  status: ('A' for Active; 'I' for Inactive)
REMARK    1  A    between atoms: C_11  and  C_5 
REMARK    2  A    between atoms: C_12  and  C_6 
REMARK    3  A    between atoms: O_25  and  C_13 
REMARK    4  A    between atoms: O_26  and  C_14 
REMARK    5  A    between atoms: O_27  and  C_15 
REMARK    6  A    between atoms: O_29  and  C_16 
REMARK    7  A    between atoms: O_28  and  C_17 
REMARK    8  A    between atoms: O_30  and  C_18 
REMARK    9  A    between atoms: P_31  and  O_19 
REMARK   10  A    between atoms: P_31  and  O_20 
REMARK   11  A    between atoms: P_32  and  O_22 
REMARK   12  A    between atoms: P_32  and  O_23 
REMARK   13  A    between atoms: P_31  and  O_29 
REMARK   14  A    between atoms: P_32  and  O_30 
ROOT
HETATM    1  C   UNK N   1      23.014  15.551   3.101  0.00  0.00     0.017 A 
HETATM    2  C   UNK N   1      24.361  15.533   3.369  0.00  0.00     0.040 A 
HETATM    3  C   UNK N   1      22.201  16.653   3.367  0.00  0.00     0.001 A 
HETATM    4  C   UNK N   1      24.976  16.650   3.903  0.00  0.00     0.105 A 
HETATM    5  C   UNK N   1      22.836  17.869   3.809  0.00  0.00     0.128 A 
HETATM    6  C   UNK N   1      24.246  17.833   4.104  0.00  0.00     0.148 A 
ENDROOT
BRANCH   3   7
HETATM    7  C   UNK N   1      20.729  16.447   3.137  0.00  0.00     0.015 C 
HETATM    8  C   UNK N   1      19.848  15.894   4.027  0.00  0.00     0.012 C 
BRANCH   8   9
HETATM    9  C   UNK N   1      20.107  15.505   5.452  0.00  0.00    -0.031 A 
HETATM   10  C   UNK N   1      20.321  14.162   5.763  0.00  0.00     0.051 A 
HETATM   11  C   UNK N   1      20.646  13.754   7.065  0.00  0.00     0.105 A 
HETATM   12  C   UNK N   1      20.742  14.726   8.105  0.00  0.00     0.135 A 
HETATM   13  C   UNK N   1      20.476  16.083   7.793  0.00  0.00     0.105 A 
HETATM   14  C   UNK N   1      20.145  16.440   6.490  0.00  0.00     0.051 A 
BRANCH  11  15
HETATM   15  O   UNK N   1      20.873  12.428   7.259  0.00  0.00    -0.353 OA
HETATM   16  C   UNK N   1      22.007  11.741   6.888  0.00  0.00     0.210 C 
ENDBRANCH  11  15
BRANCH  12  17
HETATM   17  O   UNK N   1      21.087  14.323   9.361  0.00  0.00    -0.351 OA
HETATM   18  C   UNK N   1      20.308  13.592  10.228  0.00  0.00     0.210 C 
ENDBRANCH  12  17
BRANCH  13  19
HETATM   19  O   UNK N   1      20.558  17.052   8.726  0.00  0.00    -0.353 OA
HETATM   20  C   UNK N   1      19.465  17.839   9.012  0.00  0.00     0.210 C 
ENDBRANCH  13  19
ENDBRANCH   8   9
ENDBRANCH   3   7
BRANCH   5  21
HETATM   21  O   UNK N   1      22.202  19.061   4.010  0.00  0.00    -0.251 OA
BRANCH  21  22
HETATM   22  P   UNK N   1      21.516  20.258   2.977  0.00  0.00     0.396 P 
HETATM   23  O   UNK N   1      22.592  21.349   2.715  0.00  0.00    -0.631 OA
BRANCH  22  24
HETATM   24  O   UNK N   1      20.215  21.056   3.803  0.00  0.00    -0.307 OA
HETATM   25  H   UNK N   1      19.588  21.630   3.337  0.00  0.00     0.222 HD
ENDBRANCH  22  24
BRANCH  22  26
HETATM   26  O   UNK N   1      20.962  19.620   1.461  0.00  0.00    -0.307 OA
HETATM   27  H   UNK N   1      20.287  19.865   0.808  0.00  0.00     0.222 HD
ENDBRANCH  22  26
ENDBRANCH  21  22
ENDBRANCH   5  21
BRANCH   6  28
HETATM   28  O   UNK N   1      24.954  18.883   4.606  0.00  0.00    -0.249 OA
BRANCH  28  29
HETATM   29  P   UNK N   1      26.044  19.970   3.834  0.00  0.00     0.396 P 
HETATM   30  O   UNK N   1      26.331  21.138   4.815  0.00  0.00    -0.631 OA
BRANCH  29  31
HETATM   31  O   UNK N   1      25.387  20.623   2.366  0.00  0.00    -0.307 OA
HETATM   32  H   UNK N   1      25.791  20.876   1.521  0.00  0.00     0.222 HD
ENDBRANCH  29  31
BRANCH  29  33
HETATM   33  O   UNK N   1      27.557  19.175   3.534  0.00  0.00    -0.307 OA
HETATM   34  H   UNK N   1      27.594  18.228   3.328  0.00  0.00     0.222 HD
ENDBRANCH  29  33
ENDBRANCH  28  29
ENDBRANCH   6  28
BRANCH   4  35
HETATM   35  O   UNK N   1      26.290  16.616   4.244  0.00  0.00    -0.353 OA
HETATM   36  C   UNK N   1      26.742  16.121   5.449  0.00  0.00     0.210 C 
ENDBRANCH   4  35
TORSDOF 14
ENDMDL
MODEL 2
REMARK VINA RESULT:      -6.2      2.187      3.937
REMARK  14 active torsions:
REMARK  status: ('A' for Active; 'I' for Inactive)
REMARK    1  A    between atoms: C_11  and  C_5 
REMARK    2  A    between atoms: C_12  and  C_6 
REMARK    3  A    between atoms: O_25  and  C_13 
REMARK    4  A    between atoms: O_26  and  C_14 
REMARK    5  A    between atoms: O_27  and  C_15 
REMARK    6  A    between atoms: O_29  and  C_16 
REMARK    7  A    between atoms: O_28  and  C_17 
REMARK    8  A    between atoms: O_30  and  C_18 
REMARK    9  A    between atoms: P_31  and  O_19 
REMARK   10  A    between atoms: P_31  and  O_20 
REMARK   11  A    between atoms: P_32  and  O_22 
REMARK   12  A    between atoms: P_32  and  O_23 
REMARK   13  A    between atoms: P_31  and  O_29 
REMARK   14  A    between atoms: P_32  and  O_30 
ROOT
HETATM    1  C   UNK N   1      24.684  15.923   3.579  0.00  0.00     0.017 A 
HETATM    2  C   UNK N   1      25.053  17.203   3.914  0.00  0.00     0.040 A 
HETATM    3  C   UNK N   1      23.354  15.530   3.426  0.00  0.00     0.001 A 
HETATM    4  C   UNK N   1      24.088  18.178   4.090  0.00  0.00     0.105 A 
HETATM    5  C   UNK N   1      22.337  16.552   3.485  0.00  0.00     0.128 A 
HETATM    6  C   UNK N   1      22.735  17.887   3.855  0.00  0.00     0.148 A 
ENDROOT
BRANCH   3   7
HETATM    7  C   UNK N   1      23.131  14.062   3.194  0.00  0.00     0.015 C 
HETATM    8  C   UNK N   1      22.846  13.131   4.156  0.00  0.00     0.012 C 
BRANCH   8   9
HETATM    9  C   UNK N   1      22.558  13.373   5.608  0.00  0.00    -0.031 A 
HETATM   10  C   UNK N   1      21.398  14.058   5.967  0.00  0.00     0.051 A 
HETATM   11  C   UNK N   1      21.041  14.240   7.312  0.00  0.00     0.105 A 
HETATM   12  C   UNK N   1      21.888  13.735   8.341  0.00  0.00     0.135 A 
HETATM   13  C   UNK N   1      23.091  13.081   7.971  0.00  0.00     0.105 A 
HETATM   14  C   UNK N   1      23.410  12.934   6.624  0.00  0.00     0.051 A 
BRANCH  11  15
HETATM   15  O   UNK N   1      19.871  14.888   7.559  0.00  0.00    -0.353 OA
HETATM   16  C   UNK N   1      19.556  16.166   7.155  0.00  0.00     0.210 C 
ENDBRANCH  11  15
BRANCH  12  17
HETATM   17  O   UNK N   1      21.518  13.891   9.644  0.00  0.00    -0.351 OA
HETATM   18  C   UNK N   1      20.888  12.955  10.432  0.00  0.00     0.210 C 
ENDBRANCH  12  17
BRANCH  13  19
HETATM   19  O   UNK N   1      23.932  12.572   8.893  0.00  0.00    -0.353 OA
HETATM   20  C   UNK N   1      24.977  13.326   9.376  0.00  0.00     0.210 C 
ENDBRANCH  13  19
ENDBRANCH   8   9
ENDBRANCH   3   7
BRANCH   5  21
HETATM   21  O   UNK N   1      21.007  16.354   3.252  0.00  0.00    -0.251 OA
BRANCH  21  22
HETATM   22  P   UNK N   1      20.059  16.020   1.852  0.00  0.00     0.396 P 
HETATM   23  O   UNK N   1      21.023  15.693   0.677  0.00  0.00    -0.631 OA
BRANCH  22  24
HETATM   24  O   UNK N   1      19.200  17.453   1.382  0.00  0.00    -0.307 OA
HETATM   25  H   UNK N   1      19.292  18.287   1.869  0.00  0.00     0.222 HD
ENDBRANCH  22  24
BRANCH  22  26
HETATM   26  O   UNK N   1      18.951  14.702   2.073  0.00  0.00    -0.307 OA
HETATM   27  H   UNK N   1      18.365  14.184   1.500  0.00  0.00     0.222 HD
ENDBRANCH  22  26
ENDBRANCH  21  22
ENDBRANCH   5  21
BRANCH   6  28
HETATM   28  O   UNK N   1      21.871  18.926   4.027  0.00  0.00    -0.249 OA
BRANCH  28  29
HETATM   29  P   UNK N   1      21.487  20.248   2.992  0.00  0.00     0.396 P 
HETATM   30  O   UNK N   1      21.014  19.668   1.631  0.00  0.00    -0.631 OA
BRANCH  29  31
HETATM   31  O   UNK N   1      22.855  21.279   2.713  0.00  0.00    -0.307 OA
HETATM   32  H   UNK N   1      23.103  21.857   1.974  0.00  0.00     0.222 HD
ENDBRANCH  29  31
BRANCH  29  33
HETATM   33  O   UNK N   1      20.158  21.148   3.650  0.00  0.00    -0.307 OA
HETATM   34  H   UNK N   1      19.984  22.060   3.372  0.00  0.00     0.222 HD
ENDBRANCH  29  33
ENDBRANCH  28  29
ENDBRANCH   6  28
BRANCH   4  35
HETATM   35  O   UNK N   1      24.437  19.426   4.497  0.00  0.00    -0.353 OA
HETATM   36  C   UNK N   1      25.699  19.745   4.951  0.00  0.00     0.210 C 
ENDBRANCH   4  35
TORSDOF 14
ENDMDL
MODEL 3
REMARK VINA RESULT:      -6.1      2.975      7.169
REMARK  14 active torsions:
REMARK  status: ('A' for Active; 'I' for Inactive)
REMARK    1  A    between atoms: C_11  and  C_5 
REMARK    2  A    between atoms: C_12  and  C_6 
REMARK    3  A    between atoms: O_25  and  C_13 
REMARK    4  A    between atoms: O_26  and  C_14 
REMARK    5  A    between atoms: O_27  and  C_15 
REMARK    6  A    between atoms: O_29  and  C_16 
REMARK    7  A    between atoms: O_28  and  C_17 
REMARK    8  A    between atoms: O_30  and  C_18 
REMARK    9  A    between atoms: P_31  and  O_19 
REMARK   10  A    between atoms: P_31  and  O_20 
REMARK   11  A    between atoms: P_32  and  O_22 
REMARK   12  A    between atoms: P_32  and  O_23 
REMARK   13  A    between atoms: P_31  and  O_29 
REMARK   14  A    between atoms: P_32  and  O_30 
ROOT
HETATM    1  C   UNK N   1      21.824  18.298   5.589  0.00  0.00     0.017 A 
HETATM    2  C   UNK N   1      21.599  17.277   6.480  0.00  0.00     0.040 A 
HETATM    3  C   UNK N   1      21.755  18.130   4.206  0.00  0.00     0.001 A 
HETATM    4  C   UNK N   1      21.260  16.019   6.019  0.00  0.00     0.105 A 
HETATM    5  C   UNK N   1      21.287  16.862   3.703  0.00  0.00     0.128 A 
HETATM    6  C   UNK N   1      21.071  15.794   4.646  0.00  0.00     0.148 A 
ENDROOT
BRANCH   3   7
HETATM    7  C   UNK N   1      22.166  19.320   3.383  0.00  0.00     0.015 C 
HETATM    8  C   UNK N   1      23.436  19.815   3.267  0.00  0.00     0.012 C 
BRANCH   8   9
HETATM    9  C   UNK N   1      24.705  19.221   3.804  0.00  0.00    -0.031 A 
HETATM   10  C   UNK N   1      25.402  19.897   4.805  0.00  0.00     0.051 A 
HETATM   11  C   UNK N   1      26.549  19.348   5.398  0.00  0.00     0.105 A 
HETATM   12  C   UNK N   1      27.031  18.079   4.959  0.00  0.00     0.135 A 
HETATM   13  C   UNK N   1      26.345  17.419   3.908  0.00  0.00     0.105 A 
HETATM   14  C   UNK N   1      25.219  18.008   3.341  0.00  0.00     0.051 A 
BRANCH  11  15
HETATM   15  O   UNK N   1      27.136  20.067   6.392  0.00  0.00    -0.353 OA
HETATM   16  C   UNK N   1      27.527  21.384   6.311  0.00  0.00     0.210 C 
ENDBRANCH  11  15
BRANCH  12  17
HETATM   17  O   UNK N   1      28.128  17.541   5.561  0.00  0.00    -0.351 OA
HETATM   18  C   UNK N   1      29.436  17.681   5.154  0.00  0.00     0.210 C 
ENDBRANCH  12  17
BRANCH  13  19
HETATM   19  O   UNK N   1      26.742  16.214   3.452  0.00  0.00    -0.353 OA
HETATM   20  C   UNK N   1      26.236  15.714   2.274  0.00  0.00     0.210 C 
ENDBRANCH  13  19
ENDBRANCH   8   9
ENDBRANCH   3   7
BRANCH   5  21
HETATM   21  O   UNK N   1      21.061  16.570   2.389  0.00  0.00    -0.251 OA
BRANCH  21  22
HETATM   22  P   UNK N   1      19.841  16.991   1.247  0.00  0.00     0.396 P 
HETATM   23  O   UNK N   1      20.527  17.667   0.027  0.00  0.00    -0.631 OA
BRANCH  22  24
HETATM   24  O   UNK N   1      18.797  18.194   1.937  0.00  0.00    -0.307 OA
HETATM   25  H   UNK N   1      19.094  18.783   2.648  0.00  0.00     0.222 HD
ENDBRANCH  22  24
BRANCH  22  26
HETATM   26  O   UNK N   1      18.910  15.630   0.704  0.00  0.00    -0.307 OA
HETATM   27  H   UNK N   1      19.046  14.671   0.653  0.00  0.00     0.222 HD
ENDBRANCH  22  26
ENDBRANCH  21  22
ENDBRANCH   5  21
BRANCH   6  28
HETATM   28  O   UNK N   1      20.710  14.526   4.302  0.00  0.00    -0.249 OA
BRANCH  28  29
HETATM   29  P   UNK N   1      19.158  13.780   4.248  0.00  0.00     0.396 P 
HETATM   30  O   UNK N   1      18.174  14.661   5.063  0.00  0.00    -0.631 OA
BRANCH  29  31
HETATM   31  O   UNK N   1      19.176  12.184   4.930  0.00  0.00    -0.307 OA
HETATM   32  H   UNK N   1      18.605  11.410   4.805  0.00  0.00     0.222 HD
ENDBRANCH  29  31
BRANCH  29  33
HETATM   33  O   UNK N   1      18.575  13.746   2.614  0.00  0.00    -0.307 OA
HETATM   34  H   UNK N   1      18.628  14.531   2.046  0.00  0.00     0.222 HD
ENDBRANCH  29  33
ENDBRANCH  28  29
ENDBRANCH   6  28
BRANCH   4  35
HETATM   35  O   UNK N   1      21.112  14.985   6.886  0.00  0.00    -0.353 OA
HETATM   36  C   UNK N   1      20.432  15.094   8.080  0.00  0.00     0.210 C 
ENDBRANCH   4  35
TORSDOF 14
ENDMDL
MODEL 4
REMARK VINA RESULT:      -6.1      7.217     11.046
REMARK  14 active torsions:
REMARK  status: ('A' for Active; 'I' for Inactive)
REMARK    1  A    between atoms: C_11  and  C_5 
REMARK    2  A    between atoms: C_12  and  C_6 
REMARK    3  A    between atoms: O_25  and  C_13 
REMARK    4  A    between atoms: O_26  and  C_14 
REMARK    5  A    between atoms: O_27  and  C_15 
REMARK    6  A    between atoms: O_29  and  C_16 
REMARK    7  A    between atoms: O_28  and  C_17 
REMARK    8  A    between atoms: O_30  and  C_18 
REMARK    9  A    between atoms: P_31  and  O_19 
REMARK   10  A    between atoms: P_31  and  O_20 
REMARK   11  A    between atoms: P_32  and  O_22 
REMARK   12  A    between atoms: P_32  and  O_23 
REMARK   13  A    between atoms: P_31  and  O_29 
REMARK   14  A    between atoms: P_32  and  O_30 
ROOT
HETATM    1  C   UNK N   1      33.294  14.726   4.702  0.00  0.00     0.017 A 
HETATM    2  C   UNK N   1      33.409  13.507   5.326  0.00  0.00     0.040 A 
HETATM    3  C   UNK N   1      33.689  15.925   5.298  0.00  0.00     0.001 A 
HETATM    4  C   UNK N   1      33.960  13.426   6.591  0.00  0.00     0.105 A 
HETATM    5  C   UNK N   1      34.375  15.855   6.564  0.00  0.00     0.128 A 
HETATM    6  C   UNK N   1      34.474  14.574   7.215  0.00  0.00     0.148 A 
ENDROOT
BRANCH   3   7
HETATM    7  C   UNK N   1      33.363  17.173   4.526  0.00  0.00     0.015 C 
HETATM    8  C   UNK N   1      32.107  17.640   4.248  0.00  0.00     0.012 C 
BRANCH   8   9
HETATM    9  C   UNK N   1      30.799  17.108   4.753  0.00  0.00    -0.031 A 
HETATM   10  C   UNK N   1      30.022  16.307   3.917  0.00  0.00     0.051 A 
HETATM   11  C   UNK N   1      28.829  15.719   4.367  0.00  0.00     0.105 A 
HETATM   12  C   UNK N   1      28.384  15.958   5.700  0.00  0.00     0.135 A 
HETATM   13  C   UNK N   1      29.154  16.813   6.530  0.00  0.00     0.105 A 
HETATM   14  C   UNK N   1      30.323  17.384   6.037  0.00  0.00     0.051 A 
BRANCH  11  15
HETATM   15  O   UNK N   1      28.162  14.923   3.488  0.00  0.00    -0.353 OA
HETATM   16  C   UNK N   1      27.398  15.356   2.429  0.00  0.00     0.210 C 
ENDBRANCH  11  15
BRANCH  12  17
HETATM   17  O   UNK N   1      27.241  15.359   6.137  0.00  0.00    -0.351 OA
HETATM   18  C   UNK N   1      25.968  15.877   6.063  0.00  0.00     0.210 C 
ENDBRANCH  12  17
BRANCH  13  19
HETATM   19  O   UNK N   1      28.795  17.074   7.803  0.00  0.00    -0.353 OA
HETATM   20  C   UNK N   1      29.186  18.245   8.411  0.00  0.00     0.210 C 
ENDBRANCH  13  19
ENDBRANCH   8   9
ENDBRANCH   3   7
BRANCH   5  21
HETATM   21  O   UNK N   1      34.918  16.919   7.225  0.00  0.00    -0.251 OA
BRANCH  21  22
HETATM   22  P   UNK N   1      34.459  17.854   8.597  0.00  0.00     0.396 P 
HETATM   23  O   UNK N   1      34.948  19.313   8.378  0.00  0.00    -0.631 OA
BRANCH  22  24
HETATM   24  O   UNK N   1      35.301  17.272   9.999  0.00  0.00    -0.307 OA
HETATM   25  H   UNK N   1      34.830  16.926  10.772  0.00  0.00     0.222 HD
ENDBRANCH  22  24
BRANCH  22  26
HETATM   26  O   UNK N   1      32.748  17.857   8.885  0.00  0.00    -0.307 OA
HETATM   27  H   UNK N   1      31.980  17.394   8.515  0.00  0.00     0.222 HD
ENDBRANCH  22  26
ENDBRANCH  21  22
ENDBRANCH   5  21
BRANCH   6  28
HETATM   28  O   UNK N   1      35.021  14.378   8.447  0.00  0.00    -0.249 OA
BRANCH  28  29
HETATM   29  P   UNK N   1      34.275  14.069   9.969  0.00  0.00     0.396 P 
HETATM   30  O   UNK N   1      35.284  14.455  11.084  0.00  0.00    -0.631 OA
BRANCH  29  31
HETATM   31  O   UNK N   1      33.844  12.399  10.159  0.00  0.00    -0.307 OA
HETATM   32  H   UNK N   1      34.029  11.608   9.628  0.00  0.00     0.222 HD
ENDBRANCH  29  31
BRANCH  29  33
HETATM   33  O   UNK N   1      32.887  15.092  10.164  0.00  0.00    -0.307 OA
HETATM   34  H   UNK N   1      32.103  14.986   9.602  0.00  0.00     0.222 HD
ENDBRANCH  29  33
ENDBRANCH  28  29
ENDBRANCH   6  28
BRANCH   4  35
HETATM   35  O   UNK N   1      34.006  12.238   7.247  0.00  0.00    -0.353 OA
HETATM   36  C   UNK N   1      33.448  11.080   6.748  0.00  0.00     0.210 C 
ENDBRANCH   4  35
TORSDOF 14
ENDMDL
MODEL 5
REMARK VINA RESULT:      -6.0      3.620      7.010
REMARK  14 active torsions:
REMARK  status: ('A' for Active; 'I' for Inactive)
REMARK    1  A    between atoms: C_11  and  C_5 
REMARK    2  A    between atoms: C_12  and  C_6 
REMARK    3  A    between atoms: O_25  and  C_13 
REMARK    4  A    between atoms: O_26  and  C_14 
REMARK    5  A    between atoms: O_27  and  C_15 
REMARK    6  A    between atoms: O_29  and  C_16 
REMARK    7  A    between atoms: O_28  and  C_17 
REMARK    8  A    between atoms: O_30  and  C_18 
REMARK    9  A    between atoms: P_31  and  O_19 
REMARK   10  A    between atoms: P_31  and  O_20 
REMARK   11  A    between atoms: P_32  and  O_22 
REMARK   12  A    between atoms: P_32  and  O_23 
REMARK   13  A    between atoms: P_31  and  O_29 
REMARK   14  A    between atoms: P_32  and  O_30 
ROOT
HETATM    1  C   UNK N   1      25.467  17.374   3.522  0.00  0.00     0.017 A 
HETATM    2  C   UNK N   1      24.958  16.100   3.588  0.00  0.00     0.040 A 
HETATM    3  C   UNK N   1      24.671  18.517   3.606  0.00  0.00     0.001 A 
HETATM    4  C   UNK N   1      23.602  15.905   3.772  0.00  0.00     0.105 A 
HETATM    5  C   UNK N   1      23.274  18.344   3.919  0.00  0.00     0.128 A 
HETATM    6  C   UNK N   1      22.748  17.003   3.968  0.00  0.00     0.148 A 
ENDROOT
BRANCH   3   7
HETATM    7  C   UNK N   1      25.379  19.823   3.377  0.00  0.00     0.015 C 
HETATM    8  C   UNK N   1      26.586  20.185   3.911  0.00  0.00     0.012 C 
BRANCH   8   9
HETATM    9  C   UNK N   1      27.526  19.336   4.714  0.00  0.00    -0.031 A 
HETATM   10  C   UNK N   1      27.547  19.470   6.102  0.00  0.00     0.051 A 
HETATM   11  C   UNK N   1      28.348  18.645   6.906  0.00  0.00     0.105 A 
HETATM   12  C   UNK N   1      29.178  17.658   6.296  0.00  0.00     0.135 A 
HETATM   13  C   UNK N   1      29.188  17.559   4.882  0.00  0.00     0.105 A 
HETATM   14  C   UNK N   1      28.386  18.407   4.124  0.00  0.00     0.051 A 
BRANCH  11  15
HETATM   15  O   UNK N   1      28.271  18.828   8.251  0.00  0.00    -0.353 OA
HETATM   16  C   UNK N   1      27.949  17.864   9.179  0.00  0.00     0.210 C 
ENDBRANCH  11  15
BRANCH  12  17
HETATM   17  O   UNK N   1      29.930  16.842   7.087  0.00  0.00    -0.351 OA
HETATM   18  C   UNK N   1      31.228  17.061   7.487  0.00  0.00     0.210 C 
ENDBRANCH  12  17
BRANCH  13  19
HETATM   19  O   UNK N   1      29.942  16.642   4.243  0.00  0.00    -0.353 OA
HETATM   20  C   UNK N   1      29.457  15.373   4.021  0.00  0.00     0.210 C 
ENDBRANCH  13  19
ENDBRANCH   8   9
ENDBRANCH   3   7
BRANCH   5  21
HETATM   21  O   UNK N   1      22.385  19.356   4.141  0.00  0.00    -0.251 OA
BRANCH  21  22
HETATM   22  P   UNK N   1      21.432  20.375   3.130  0.00  0.00     0.396 P 
HETATM   23  O   UNK N   1      20.074  20.633   3.839  0.00  0.00    -0.631 OA
BRANCH  22  24
HETATM   24  O   UNK N   1      21.054  19.536   1.658  0.00  0.00    -0.307 OA
HETATM   25  H   UNK N   1      21.746  19.180   1.080  0.00  0.00     0.222 HD
ENDBRANCH  22  24
BRANCH  22  26
HETATM   26  O   UNK N   1      22.194  21.894   2.774  0.00  0.00    -0.307 OA
HETATM   27  H   UNK N   1      22.080  22.813   3.062  0.00  0.00     0.222 HD
ENDBRANCH  22  26
ENDBRANCH  21  22
ENDBRANCH   5  21
BRANCH   6  28
HETATM   28  O   UNK N   1      21.436  16.699   4.170  0.00  0.00    -0.249 OA
BRANCH  28  29
HETATM   29  P   UNK N   1      20.139  16.532   3.049  0.00  0.00     0.396 P 
HETATM   30  O   UNK N   1      20.739  16.546   1.618  0.00  0.00    -0.631 OA
BRANCH  29  31
HETATM   31  O   UNK N   1      18.988  17.824   3.184  0.00  0.00    -0.307 OA
HETATM   32  H   UNK N   1      18.598  18.428   2.532  0.00  0.00     0.222 HD
ENDBRANCH  29  31
BRANCH  29  33
HETATM   33  O   UNK N   1      19.368  14.993   3.263  0.00  0.00    -0.307 OA
HETATM   34  H   UNK N   1      18.534  14.783   2.814  0.00  0.00     0.222 HD
ENDBRANCH  29  33
ENDBRANCH  28  29
ENDBRANCH   6  28
BRANCH   4  35
HETATM   35  O   UNK N   1      23.078  14.653   3.760  0.00  0.00    -0.353 OA
HETATM   36  C   UNK N   1      23.099  13.838   2.648  0.00  0.00     0.210 C 
ENDBRANCH   4  35
TORSDOF 14
ENDMDL
MODEL 6
REMARK VINA RESULT:      -6.0      7.521     11.295
REMARK  14 active torsions:
REMARK  status: ('A' for Active; 'I' for Inactive)
REMARK    1  A    between atoms: C_11  and  C_5 
REMARK    2  A    between atoms: C_12  and  C_6 
REMARK    3  A    between atoms: O_25  and  C_13 
REMARK    4  A    between atoms: O_26  and  C_14 
REMARK    5  A    between atoms: O_27  and  C_15 
REMARK    6  A    between atoms: O_29  and  C_16 
REMARK    7  A    between atoms: O_28  and  C_17 
REMARK    8  A    between atoms: O_30  and  C_18 
REMARK    9  A    between atoms: P_31  and  O_19 
REMARK   10  A    between atoms: P_31  and  O_20 
REMARK   11  A    between atoms: P_32  and  O_22 
REMARK   12  A    between atoms: P_32  and  O_23 
REMARK   13  A    between atoms: P_31  and  O_29 
REMARK   14  A    between atoms: P_32  and  O_30 
ROOT
HETATM    1  C   UNK N   1      32.799  17.068   5.676  0.00  0.00     0.017 A 
HETATM    2  C   UNK N   1      32.123  16.442   4.657  0.00  0.00     0.040 A 
HETATM    3  C   UNK N   1      32.220  17.346   6.915  0.00  0.00     0.001 A 
HETATM    4  C   UNK N   1      30.816  16.031   4.844  0.00  0.00     0.105 A 
HETATM    5  C   UNK N   1      30.902  16.822   7.177  0.00  0.00     0.128 A 
HETATM    6  C   UNK N   1      30.197  16.182   6.095  0.00  0.00     0.148 A 
ENDROOT
BRANCH   3   7
HETATM    7  C   UNK N   1      33.062  18.158   7.860  0.00  0.00     0.015 C 
HETATM    8  C   UNK N   1      33.908  17.658   8.812  0.00  0.00     0.012 C 
BRANCH   8   9
HETATM    9  C   UNK N   1      34.291  16.226   9.038  0.00  0.00    -0.031 A 
HETATM   10  C   UNK N   1      34.294  15.719  10.337  0.00  0.00     0.051 A 
HETATM   11  C   UNK N   1      34.567  14.367  10.595  0.00  0.00     0.105 A 
HETATM   12  C   UNK N   1      34.868  13.489   9.512  0.00  0.00     0.135 A 
HETATM   13  C   UNK N   1      34.910  14.021   8.198  0.00  0.00     0.105 A 
HETATM   14  C   UNK N   1      34.646  15.371   7.991  0.00  0.00     0.051 A 
BRANCH  11  15
HETATM   15  O   UNK N   1      34.509  13.960  11.891  0.00  0.00    -0.353 OA
HETATM   16  C   UNK N   1      35.534  14.036  12.806  0.00  0.00     0.210 C 
ENDBRANCH  11  15
BRANCH  12  17
HETATM   17  O   UNK N   1      35.103  12.171   9.769  0.00  0.00    -0.351 OA
HETATM   18  C   UNK N   1      34.155  11.179   9.880  0.00  0.00     0.210 C 
ENDBRANCH  12  17
BRANCH  13  19
HETATM   19  O   UNK N   1      35.180  13.245   7.129  0.00  0.00    -0.353 OA
HETATM   20  C   UNK N   1      34.157  12.730   6.366  0.00  0.00     0.210 C 
ENDBRANCH  13  19
ENDBRANCH   8   9
ENDBRANCH   3   7
BRANCH   5  21
HETATM   21  O   UNK N   1      30.241  16.910   8.367  0.00  0.00    -0.251 OA
BRANCH  21  22
HETATM   22  P   UNK N   1      29.092  18.006   9.036  0.00  0.00     0.396 P 
HETATM   23  O   UNK N   1      28.824  19.128   7.994  0.00  0.00    -0.631 OA
BRANCH  22  24
HETATM   24  O   UNK N   1      29.784  18.793  10.420  0.00  0.00    -0.307 OA
HETATM   25  H   UNK N   1      29.244  19.309  11.039  0.00  0.00     0.222 HD
ENDBRANCH  22  24
BRANCH  22  26
HETATM   26  O   UNK N   1      27.590  17.249   9.466  0.00  0.00    -0.307 OA
HETATM   27  H   UNK N   1      26.988  16.612   9.048  0.00  0.00     0.222 HD
ENDBRANCH  22  26
ENDBRANCH  21  22
ENDBRANCH   5  21
BRANCH   6  28
HETATM   28  O   UNK N   1      28.920  15.716   6.179  0.00  0.00    -0.249 OA
BRANCH  28  29
HETATM   29  P   UNK N   1      27.422  16.482   5.810  0.00  0.00     0.396 P 
HETATM   30  O   UNK N   1      26.826  15.790   4.555  0.00  0.00    -0.631 OA
BRANCH  29  31
HETATM   31  O   UNK N   1      27.617  18.174   5.474  0.00  0.00    -0.307 OA
HETATM   32  H   UNK N   1      27.966  18.912   5.998  0.00  0.00     0.222 HD
ENDBRANCH  29  31
BRANCH  29  33
HETATM   33  O   UNK N   1      26.297  16.236   7.109  0.00  0.00    -0.307 OA
HETATM   34  H   UNK N   1      25.351  16.415   6.993  0.00  0.00     0.222 HD
ENDBRANCH  29  33
ENDBRANCH  28  29
ENDBRANCH   6  28
BRANCH   4  35
HETATM   35  O   UNK N   1      30.115  15.482   3.819  0.00  0.00    -0.353 OA
HETATM   36  C   UNK N   1      29.778  16.179   2.678  0.00  0.00     0.210 C 
ENDBRANCH   4  35
TORSDOF 14
ENDMDL
MODEL 7
REMARK VINA RESULT:      -6.0     10.658     14.112
REMARK  14 active torsions:
REMARK  status: ('A' for Active; 'I' for Inactive)
REMARK    1  A    between atoms: C_11  and  C_5 
REMARK    2  A    between atoms: C_12  and  C_6 
REMARK    3  A    between atoms: O_25  and  C_13 
REMARK    4  A    between atoms: O_26  and  C_14 
REMARK    5  A    between atoms: O_27  and  C_15 
REMARK    6  A    between atoms: O_29  and  C_16 
REMARK    7  A    between atoms: O_28  and  C_17 
REMARK    8  A    between atoms: O_30  and  C_18 
REMARK    9  A    between atoms: P_31  and  O_19 
REMARK   10  A    between atoms: P_31  and  O_20 
REMARK   11  A    between atoms: P_32  and  O_22 
REMARK   12  A    between atoms: P_32  and  O_23 
REMARK   13  A    between atoms: P_31  and  O_29 
REMARK   14  A    between atoms: P_32  and  O_30 
ROOT
HETATM    1  C   UNK N   1      34.791  11.771   7.522  0.00  0.00     0.017 A 
HETATM    2  C   UNK N   1      33.580  12.041   6.934  0.00  0.00     0.040 A 
HETATM    3  C   UNK N   1      35.608  12.762   8.069  0.00  0.00     0.001 A 
HETATM    4  C   UNK N   1      33.106  13.339   6.887  0.00  0.00     0.105 A 
HETATM    5  C   UNK N   1      35.086  14.104   8.141  0.00  0.00     0.128 A 
HETATM    6  C   UNK N   1      33.822  14.377   7.505  0.00  0.00     0.148 A 
ENDROOT
BRANCH   3   7
HETATM    7  C   UNK N   1      36.958  12.302   8.547  0.00  0.00     0.015 C 
HETATM    8  C   UNK N   1      37.254  11.859   9.807  0.00  0.00     0.012 C 
BRANCH   8   9
HETATM    9  C   UNK N   1      36.301  11.601  10.936  0.00  0.00    -0.031 A 
HETATM   10  C   UNK N   1      35.734  10.335  11.073  0.00  0.00     0.051 A 
HETATM   11  C   UNK N   1      34.900  10.019  12.156  0.00  0.00     0.105 A 
HETATM   12  C   UNK N   1      34.604  11.015  13.133  0.00  0.00     0.135 A 
HETATM   13  C   UNK N   1      35.146  12.314  12.963  0.00  0.00     0.105 A 
HETATM   14  C   UNK N   1      35.958  12.586  11.866  0.00  0.00     0.051 A 
BRANCH  11  15
HETATM   15  O   UNK N   1      34.426   8.746  12.221  0.00  0.00    -0.353 OA
HETATM   16  C   UNK N   1      34.281   7.884  11.157  0.00  0.00     0.210 C 
ENDBRANCH  11  15
BRANCH  12  17
HETATM   17  O   UNK N   1      33.817  10.689  14.197  0.00  0.00    -0.351 OA
HETATM   18  C   UNK N   1      34.247  10.387  15.469  0.00  0.00     0.210 C 
ENDBRANCH  12  17
BRANCH  13  19
HETATM   19  O   UNK N   1      34.913  13.299  13.853  0.00  0.00    -0.353 OA
HETATM   20  C   UNK N   1      35.940  13.803  14.619  0.00  0.00     0.210 C 
ENDBRANCH  13  19
ENDBRANCH   8   9
ENDBRANCH   3   7
BRANCH   5  21
HETATM   21  O   UNK N   1      35.709  15.160   8.739  0.00  0.00    -0.251 OA
BRANCH  21  22
HETATM   22  P   UNK N   1      35.462  16.048  10.195  0.00  0.00     0.396 P 
HETATM   23  O   UNK N   1      35.234  17.540   9.824  0.00  0.00    -0.631 OA
BRANCH  22  24
HETATM   24  O   UNK N   1      36.912  16.006  11.148  0.00  0.00    -0.307 OA
HETATM   25  H   UNK N   1      37.136  15.245  11.706  0.00  0.00     0.222 HD
ENDBRANCH  22  24
BRANCH  22  26
HETATM   26  O   UNK N   1      34.115  15.474  11.128  0.00  0.00    -0.307 OA
HETATM   27  H   UNK N   1      34.001  15.017  11.976  0.00  0.00     0.222 HD
ENDBRANCH  22  26
ENDBRANCH  21  22
ENDBRANCH   5  21
BRANCH   6  28
HETATM   28  O   UNK N   1      33.253  15.613   7.426  0.00  0.00    -0.249 OA
BRANCH  28  29
HETATM   29  P   UNK N   1      33.540  16.910   6.330  0.00  0.00     0.396 P 
HETATM   30  O   UNK N   1      34.382  16.361   5.148  0.00  0.00    -0.631 OA
BRANCH  29  31
HETATM   31  O   UNK N   1      34.408  18.215   7.074  0.00  0.00    -0.307 OA
HETATM   32  H   UNK N   1      34.209  19.159   7.185  0.00  0.00     0.222 HD
ENDBRANCH  29  31
BRANCH  29  33
HETATM   33  O   UNK N   1      32.036  17.467   5.668  0.00  0.00    -0.307 OA
HETATM   34  H   UNK N   1      32.010  18.189   5.021  0.00  0.00     0.222 HD
ENDBRANCH  29  33
ENDBRANCH  28  29
ENDBRANCH   6  28
BRANCH   4  35
HETATM   35  O   UNK N   1      31.948  13.627   6.239  0.00  0.00    -0.353 OA
HETATM   36  C   UNK N   1      31.831  13.615   4.865  0.00  0.00     0.210 C 
ENDBRANCH   4  35
TORSDOF 14
ENDMDL
MODEL 8
REMARK VINA RESULT:      -5.9      2.965      6.174
REMARK  14 active torsions:
REMARK  status: ('A' for Active; 'I' for Inactive)
REMARK    1  A    between atoms: C_11  and  C_5 
REMARK    2  A    between atoms: C_12  and  C_6 
REMARK    3  A    between atoms: O_25  and  C_13 
REMARK    4  A    between atoms: O_26  and  C_14 
REMARK    5  A    between atoms: O_27  and  C_15 
REMARK    6  A    between atoms: O_29  and  C_16 
REMARK    7  A    between atoms: O_28  and  C_17 
REMARK    8  A    between atoms: O_30  and  C_18 
REMARK    9  A    between atoms: P_31  and  O_19 
REMARK   10  A    between atoms: P_31  and  O_20 
REMARK   11  A    between atoms: P_32  and  O_22 
REMARK   12  A    between atoms: P_32  and  O_23 
REMARK   13  A    between atoms: P_31  and  O_29 
REMARK   14  A    between atoms: P_32  and  O_30 
ROOT
HETATM    1  C   UNK N   1      22.388  16.803   5.633  0.00  0.00     0.017 A 
HETATM    2  C   UNK N   1      21.388  15.869   5.515  0.00  0.00     0.040 A 
HETATM    3  C   UNK N   1      22.617  17.796   4.679  0.00  0.00     0.001 A 
HETATM    4  C   UNK N   1      20.535  15.901   4.428  0.00  0.00     0.105 A 
HETATM    5  C   UNK N   1      21.669  17.926   3.599  0.00  0.00     0.128 A 
HETATM    6  C   UNK N   1      20.636  16.929   3.478  0.00  0.00     0.148 A 
ENDROOT
BRANCH   3   7
HETATM    7  C   UNK N   1      23.838  18.645   4.902  0.00  0.00     0.015 C 
HETATM    8  C   UNK N   1      25.124  18.189   5.004  0.00  0.00     0.012 C 
BRANCH   8   9
HETATM    9  C   UNK N   1      25.622  16.791   4.784  0.00  0.00    -0.031 A 
HETATM   10  C   UNK N   1      25.620  15.892   5.850  0.00  0.00     0.051 A 
HETATM   11  C   UNK N   1      25.999  14.552   5.679  0.00  0.00     0.105 A 
HETATM   12  C   UNK N   1      26.418  14.096   4.394  0.00  0.00     0.135 A 
HETATM   13  C   UNK N   1      26.464  15.027   3.325  0.00  0.00     0.105 A 
HETATM   14  C   UNK N   1      26.090  16.349   3.544  0.00  0.00     0.051 A 
BRANCH  11  15
HETATM   15  O   UNK N   1      25.927  13.745   6.771  0.00  0.00    -0.353 OA
HETATM   16  C   UNK N   1      24.833  13.597   7.593  0.00  0.00     0.210 C 
ENDBRANCH  11  15
BRANCH  12  17
HETATM   17  O   UNK N   1      26.756  12.786   4.231  0.00  0.00    -0.351 OA
HETATM   18  C   UNK N   1      27.979  12.218   4.507  0.00  0.00     0.210 C 
ENDBRANCH  12  17
BRANCH  13  19
HETATM   19  O   UNK N   1      26.841  14.660   2.084  0.00  0.00    -0.353 OA
HETATM   20  C   UNK N   1      28.172  14.642   1.737  0.00  0.00     0.210 C 
ENDBRANCH  13  19
ENDBRANCH   8   9
ENDBRANCH   3   7
BRANCH   5  21
HETATM   21  O   UNK N   1      21.687  18.905   2.649  0.00  0.00    -0.251 OA
BRANCH  21  22
HETATM   22  P   UNK N   1      21.151  20.542   2.585  0.00  0.00     0.396 P 
HETATM   23  O   UNK N   1      20.106  20.757   3.715  0.00  0.00    -0.631 OA
BRANCH  22  24
HETATM   24  O   UNK N   1      20.307  20.814   1.093  0.00  0.00    -0.307 OA
HETATM   25  H   UNK N   1      19.921  21.676   0.874  0.00  0.00     0.222 HD
ENDBRANCH  22  24
BRANCH  22  26
HETATM   26  O   UNK N   1      22.439  21.692   2.764  0.00  0.00    -0.307 OA
HETATM   27  H   UNK N   1      23.297  21.711   3.215  0.00  0.00     0.222 HD
ENDBRANCH  22  26
ENDBRANCH  21  22
ENDBRANCH   5  21
BRANCH   6  28
HETATM   28  O   UNK N   1      19.727  16.884   2.463  0.00  0.00    -0.249 OA
BRANCH  28  29
HETATM   29  P   UNK N   1      19.944  16.597   0.779  0.00  0.00     0.396 P 
HETATM   30  O   UNK N   1      21.068  15.539   0.613  0.00  0.00    -0.631 OA
BRANCH  29  31
HETATM   31  O   UNK N   1      20.402  18.036  -0.076  0.00  0.00    -0.307 OA
HETATM   32  H   UNK N   1      20.567  18.948   0.213  0.00  0.00     0.222 HD
ENDBRANCH  29  31
BRANCH  29  33
HETATM   33  O   UNK N   1      18.498  15.913   0.106  0.00  0.00    -0.307 OA
HETATM   34  H   UNK N   1      18.275  16.033  -0.830  0.00  0.00     0.222 HD
ENDBRANCH  29  33
ENDBRANCH  28  29
ENDBRANCH   6  28
BRANCH   4  35
HETATM   35  O   UNK N   1      19.594  14.935   4.263  0.00  0.00    -0.353 OA
HETATM   36  C   UNK N   1      19.597  13.752   4.970  0.00  0.00     0.210 C 
ENDBRANCH   4  35
TORSDOF 14
ENDMDL
MODEL 9
REMARK VINA RESULT:      -5.9     13.464     16.105
REMARK  14 active torsions:
REMARK  status: ('A' for Active; 'I' for Inactive)
REMARK    1  A    between atoms: C_11  and  C_5 
REMARK    2  A    between atoms: C_12  and  C_6 
REMARK    3  A    between atoms: O_25  and  C_13 
REMARK    4  A    between atoms: O_26  and  C_14 
REMARK    5  A    between atoms: O_27  and  C_15 
REMARK    6  A    between atoms: O_29  and  C_16 
REMARK    7  A    between atoms: O_28  and  C_17 
REMARK    8  A    between atoms: O_30  and  C_18 
REMARK    9  A    between atoms: P_31  and  O_19 
REMARK   10  A    between atoms: P_31  and  O_20 
REMARK   11  A    between atoms: P_32  and  O_22 
REMARK   12  A    between atoms: P_32  and  O_23 
REMARK   13  A    between atoms: P_31  and  O_29 
REMARK   14  A    between atoms: P_32  and  O_30 
ROOT
HETATM    1  C   UNK N   1      27.125  24.468  -3.758  0.00  0.00     0.017 A 
HETATM    2  C   UNK N   1      28.404  24.065  -3.462  0.00  0.00     0.040 A 
HETATM    3  C   UNK N   1      26.587  24.409  -5.045  0.00  0.00     0.001 A 
HETATM    4  C   UNK N   1      29.214  23.548  -4.455  0.00  0.00     0.105 A 
HETATM    5  C   UNK N   1      27.366  23.764  -6.072  0.00  0.00     0.128 A 
HETATM    6  C   UNK N   1      28.713  23.361  -5.753  0.00  0.00     0.148 A 
ENDROOT
BRANCH   3   7
HETATM    7  C   UNK N   1      25.223  25.020  -5.209  0.00  0.00     0.015 C 
HETATM    8  C   UNK N   1      24.954  26.353  -5.362  0.00  0.00     0.012 C 
BRANCH   8   9
HETATM    9  C   UNK N   1      25.936  27.473  -5.536  0.00  0.00    -0.031 A 
HETATM   10  C   UNK N   1      26.053  28.438  -4.536  0.00  0.00     0.051 A 
HETATM   11  C   UNK N   1      27.011  29.460  -4.612  0.00  0.00     0.105 A 
HETATM   12  C   UNK N   1      27.875  29.533  -5.745  0.00  0.00     0.135 A 
HETATM   13  C   UNK N   1      27.719  28.578  -6.781  0.00  0.00     0.105 A 
HETATM   14  C   UNK N   1      26.747  27.589  -6.668  0.00  0.00     0.051 A 
BRANCH  11  15
HETATM   15  O   UNK N   1      27.072  30.330  -3.569  0.00  0.00    -0.353 OA
HETATM   16  C   UNK N   1      27.736  30.121  -2.383  0.00  0.00     0.210 C 
ENDBRANCH  11  15
BRANCH  12  17
HETATM   17  O   UNK N   1      28.822  30.512  -5.796  0.00  0.00    -0.351 OA
HETATM   18  C   UNK N   1      30.115  30.424  -5.331  0.00  0.00     0.210 C 
ENDBRANCH  12  17
BRANCH  13  19
HETATM   19  O   UNK N   1      28.509  28.585  -7.873  0.00  0.00    -0.353 OA
HETATM   20  C   UNK N   1      28.422  27.572  -8.802  0.00  0.00     0.210 C 
ENDBRANCH  13  19
ENDBRANCH   8   9
ENDBRANCH   3   7
BRANCH   5  21
HETATM   21  O   UNK N   1      26.946  23.529  -7.349  0.00  0.00    -0.251 OA
BRANCH  21  22
HETATM   22  P   UNK N   1      25.678  22.600  -8.055  0.00  0.00     0.396 P 
HETATM   23  O   UNK N   1      24.713  23.572  -8.791  0.00  0.00    -0.631 OA
BRANCH  22  24
HETATM   24  O   UNK N   1      24.740  21.855  -6.798  0.00  0.00    -0.307 OA
HETATM   25  H   UNK N   1      25.006  21.017  -6.391  0.00  0.00     0.222 HD
ENDBRANCH  22  24
BRANCH  22  26
HETATM   26  O   UNK N   1      26.246  21.399  -9.171  0.00  0.00    -0.307 OA
HETATM   27  H   UNK N   1      25.936  21.028 -10.012  0.00  0.00     0.222 HD
ENDBRANCH  22  26
ENDBRANCH  21  22
ENDBRANCH   5  21
BRANCH   6  28
HETATM   28  O   UNK N   1      29.584  22.817  -6.648  0.00  0.00    -0.249 OA
BRANCH  28  29
HETATM   29  P   UNK N   1      29.968  21.170  -6.978  0.00  0.00     0.396 P 
HETATM   30  O   UNK N   1      31.139  21.146  -7.997  0.00  0.00    -0.631 OA
BRANCH  29  31
HETATM   31  O   UNK N   1      28.622  20.309  -7.655  0.00  0.00    -0.307 OA
HETATM   32  H   UNK N   1      28.435  19.363  -7.764  0.00  0.00     0.222 HD
ENDBRANCH  29  31
BRANCH  29  33
HETATM   33  O   UNK N   1      30.535  20.395  -5.533  0.00  0.00    -0.307 OA
HETATM   34  H   UNK N   1      29.915  20.073  -4.860  0.00  0.00     0.222 HD
ENDBRANCH  29  33
ENDBRANCH  28  29
ENDBRANCH   6  28
BRANCH   4  35
HETATM   35  O   UNK N   1      30.505  23.220  -4.189  0.00  0.00    -0.353 OA
HETATM   36  C   UNK N   1      30.954  22.888  -2.929  0.00  0.00     0.210 C 
ENDBRANCH   4  35
TORSDOF 14
ENDMDL
