MODEL 1
REMARK VINA RESULT:      -4.1      0.000      0.000
REMARK  3 active torsions:
REMARK  status: ('A' for Active; 'I' for Inactive)
REMARK    1  A    between atoms: O_1  and  C_4 
REMARK    2  A    between atoms: O_1  and  C_6 
REMARK    3  A    between atoms: C_6  and  C_7 
ROOT
HETATM    1  O   UNK N   1      35.309  19.244   8.458  0.00  0.00    -0.256 OA
HETATM    2  C   UNK N   1      34.620  18.234   8.493  0.00  0.00     0.329 C 
ENDROOT
BRANCH   2   3
HETATM    3  O   UNK N   1      34.571  17.462   9.607  0.00  0.00    -0.316 OA
BRANCH   3   4
HETATM    4  C   UNK N   1      35.107  16.201   9.680  0.00  0.00     0.175 C 
HETATM    5  C   UNK N   1      35.850  16.069  10.993  0.00  0.00     0.034 C 
ENDBRANCH   3   4
ENDBRANCH   2   3
BRANCH   2   6
HETATM    6  C   UNK N   1      33.824  17.831   7.321  0.00  0.00     0.220 C 
HETATM    7  O   UNK N   1      34.351  17.772   6.223  0.00  0.00    -0.287 OA
HETATM    8  C   UNK N   1      32.376  17.494   7.455  0.00  0.00     0.103 C 
ENDBRANCH   2   6
TORSDOF 3
ENDMDL
MODEL 2
REMARK VINA RESULT:      -4.0      1.796      3.373
REMARK  3 active torsions:
REMARK  status: ('A' for Active; 'I' for Inactive)
REMARK    1  A    between atoms: O_1  and  C_4 
REMARK    2  A    between atoms: O_1  and  C_6 
REMARK    3  A    between atoms: C_6  and  C_7 
ROOT
HETATM    1  O   UNK N   1      34.980  19.081   8.389  0.00  0.00    -0.256 OA
HETATM    2  C   UNK N   1      34.306  18.233   7.821  0.00  0.00     0.329 C 
ENDROOT
BRANCH   2   3
HETATM    3  O   UNK N   1      34.490  17.966   6.504  0.00  0.00    -0.316 OA
BRANCH   3   4
HETATM    4  C   UNK N   1      33.880  16.925   5.850  0.00  0.00     0.175 C 
HETATM    5  C   UNK N   1      33.005  17.492   4.753  0.00  0.00     0.034 C 
ENDBRANCH   3   4
ENDBRANCH   2   3
BRANCH   2   6
HETATM    6  C   UNK N   1      33.276  17.480   8.557  0.00  0.00     0.220 C 
HETATM    7  O   UNK N   1      33.597  16.513   9.226  0.00  0.00    -0.287 OA
HETATM    8  C   UNK N   1      31.840  17.884   8.498  0.00  0.00     0.103 C 
ENDBRANCH   2   6
TORSDOF 3
ENDMDL
MODEL 3
REMARK VINA RESULT:      -3.8      1.509      2.310
REMARK  3 active torsions:
REMARK  status: ('A' for Active; 'I' for Inactive)
REMARK    1  A    between atoms: O_1  and  C_4 
REMARK    2  A    between atoms: O_1  and  C_6 
REMARK    3  A    between atoms: C_6  and  C_7 
ROOT
HETATM    1  O   UNK N   1      35.481  17.376  10.340  0.00  0.00    -0.256 OA
HETATM    2  C   UNK N   1      34.878  17.093   9.314  0.00  0.00     0.329 C 
ENDROOT
BRANCH   2   3
HETATM    3  O   UNK N   1      34.482  15.819   9.068  0.00  0.00    -0.316 OA
BRANCH   3   4
HETATM    4  C   UNK N   1      33.682  15.097   9.917  0.00  0.00     0.175 C 
HETATM    5  C   UNK N   1      32.282  15.058   9.341  0.00  0.00     0.034 C 
ENDBRANCH   3   4
ENDBRANCH   2   3
BRANCH   2   6
HETATM    6  C   UNK N   1      34.567  18.133   8.318  0.00  0.00     0.220 C 
HETATM    7  O   UNK N   1      35.095  19.229   8.404  0.00  0.00    -0.287 OA
HETATM    8  C   UNK N   1      33.613  17.867   7.201  0.00  0.00     0.103 C 
ENDBRANCH   2   6
TORSDOF 3
ENDMDL
MODEL 4
REMARK VINA RESULT:      -3.8      1.180      3.399
REMARK  3 active torsions:
REMARK  status: ('A' for Active; 'I' for Inactive)
REMARK    1  A    between atoms: O_1  and  C_4 
REMARK    2  A    between atoms: O_1  and  C_6 
REMARK    3  A    between atoms: C_6  and  C_7 
ROOT
HETATM    1  O   UNK N   1      34.154  17.971   6.056  0.00  0.00    -0.256 OA
HETATM    2  C   UNK N   1      33.826  17.606   7.176  0.00  0.00     0.329 C 
ENDROOT
BRANCH   2   3
HETATM    3  O   UNK N   1      32.746  16.805   7.360  0.00  0.00    -0.316 OA
BRANCH   3   4
HETATM    4  C   UNK N   1      31.450  17.239   7.231  0.00  0.00     0.175 C 
HETATM    5  C   UNK N   1      31.009  17.836   8.550  0.00  0.00     0.034 C 
ENDBRANCH   3   4
ENDBRANCH   2   3
BRANCH   2   6
HETATM    6  C   UNK N   1      34.599  18.029   8.357  0.00  0.00     0.220 C 
HETATM    7  O   UNK N   1      35.077  19.150   8.396  0.00  0.00    -0.287 OA
HETATM    8  C   UNK N   1      34.808  17.104   9.510  0.00  0.00     0.103 C 
ENDBRANCH   2   6
TORSDOF 3
ENDMDL
MODEL 5
REMARK VINA RESULT:      -3.5     13.242     13.977
REMARK  3 active torsions:
REMARK  status: ('A' for Active; 'I' for Inactive)
REMARK    1  A    between atoms: O_1  and  C_4 
REMARK    2  A    between atoms: O_1  and  C_6 
REMARK    3  A    between atoms: C_6  and  C_7 
ROOT
HETATM    1  O   UNK N   1      19.973  12.959  10.631  0.00  0.00    -0.256 OA
HETATM    2  C   UNK N   1      20.894  13.457   9.999  0.00  0.00     0.329 C 
ENDROOT
BRANCH   2   3
HETATM    3  O   UNK N   1      22.180  13.291  10.395  0.00  0.00    -0.316 OA
BRANCH   3   4
HETATM    4  C   UNK N   1      22.748  12.064  10.634  0.00  0.00     0.175 C 
HETATM    5  C   UNK N   1      23.051  11.954  12.113  0.00  0.00     0.034 C 
ENDBRANCH   3   4
ENDBRANCH   2   3
BRANCH   2   6
HETATM    6  C   UNK N   1      20.626  14.252   8.788  0.00  0.00     0.220 C 
HETATM    7  O   UNK N   1      20.339  13.687   7.746  0.00  0.00    -0.287 OA
HETATM    8  C   UNK N   1      20.700  15.743   8.815  0.00  0.00     0.103 C 
ENDBRANCH   2   6
TORSDOF 3
ENDMDL
MODEL 6
REMARK VINA RESULT:      -3.3      2.335      3.409
REMARK  3 active torsions:
REMARK  status: ('A' for Active; 'I' for Inactive)
REMARK    1  A    between atoms: O_1  and  C_4 
REMARK    2  A    between atoms: O_1  and  C_6 
REMARK    3  A    between atoms: C_6  and  C_7 
ROOT
HETATM    1  O   UNK N   1      35.095  15.936   6.206  0.00  0.00    -0.256 OA
HETATM    2  C   UNK N   1      34.277  16.788   5.886  0.00  0.00     0.329 C 
ENDROOT
BRANCH   2   3
HETATM    3  O   UNK N   1      34.245  17.991   6.510  0.00  0.00    -0.316 OA
BRANCH   3   4
HETATM    4  C   UNK N   1      34.140  18.137   7.871  0.00  0.00     0.175 C 
HETATM    5  C   UNK N   1      32.691  17.945   8.266  0.00  0.00     0.034 C 
ENDBRANCH   3   4
ENDBRANCH   2   3
BRANCH   2   6
HETATM    6  C   UNK N   1      33.306  16.524   4.810  0.00  0.00     0.220 C 
HETATM    7  O   UNK N   1      33.181  15.393   4.372  0.00  0.00    -0.287 OA
HETATM    8  C   UNK N   1      32.468  17.624   4.246  0.00  0.00     0.103 C 
ENDBRANCH   2   6
TORSDOF 3
ENDMDL
MODEL 7
REMARK VINA RESULT:      -3.3      2.256      3.605
REMARK  3 active torsions:
REMARK  status: ('A' for Active; 'I' for Inactive)
REMARK    1  A    between atoms: O_1  and  C_4 
REMARK    2  A    between atoms: O_1  and  C_6 
REMARK    3  A    between atoms: C_6  and  C_7 
ROOT
HETATM    1  O   UNK N   1      32.983  16.024   8.498  0.00  0.00    -0.256 OA
HETATM    2  C   UNK N   1      32.860  17.182   8.122  0.00  0.00     0.329 C 
ENDROOT
BRANCH   2   3
HETATM    3  O   UNK N   1      31.921  17.995   8.666  0.00  0.00    -0.316 OA
BRANCH   3   4
HETATM    4  C   UNK N   1      30.572  17.764   8.571  0.00  0.00     0.175 C 
HETATM    5  C   UNK N   1      29.856  18.689   9.533  0.00  0.00     0.034 C 
ENDBRANCH   3   4
ENDBRANCH   2   3
BRANCH   2   6
HETATM    6  C   UNK N   1      33.735  17.721   7.066  0.00  0.00     0.220 C 
HETATM    7  O   UNK N   1      34.685  18.422   7.368  0.00  0.00    -0.287 OA
HETATM    8  C   UNK N   1      33.473  17.423   5.627  0.00  0.00     0.103 C 
ENDBRANCH   2   6
TORSDOF 3
ENDMDL
MODEL 8
REMARK VINA RESULT:      -3.3     10.187     11.273
REMARK  3 active torsions:
REMARK  status: ('A' for Active; 'I' for Inactive)
REMARK    1  A    between atoms: O_1  and  C_4 
REMARK    2  A    between atoms: O_1  and  C_6 
REMARK    3  A    between atoms: C_6  and  C_7 
ROOT
HETATM    1  O   UNK N   1      41.823  23.874   1.854  0.00  0.00    -0.256 OA
HETATM    2  C   UNK N   1      42.232  22.850   2.383  0.00  0.00     0.329 C 
ENDROOT
BRANCH   2   3
HETATM    3  O   UNK N   1      41.676  21.647   2.094  0.00  0.00    -0.316 OA
BRANCH   3   4
HETATM    4  C   UNK N   1      40.378  21.320   2.395  0.00  0.00     0.175 C 
HETATM    5  C   UNK N   1      39.750  20.674   1.179  0.00  0.00     0.034 C 
ENDBRANCH   3   4
ENDBRANCH   2   3
BRANCH   2   6
HETATM    6  C   UNK N   1      43.343  22.900   3.349  0.00  0.00     0.220 C 
HETATM    7  O   UNK N   1      43.877  23.967   3.602  0.00  0.00    -0.287 OA
HETATM    8  C   UNK N   1      43.828  21.662   4.027  0.00  0.00     0.103 C 
ENDBRANCH   2   6
TORSDOF 3
ENDMDL
MODEL 9
REMARK VINA RESULT:      -3.3     11.113     12.193
REMARK  3 active torsions:
REMARK  status: ('A' for Active; 'I' for Inactive)
REMARK    1  A    between atoms: O_1  and  C_4 
REMARK    2  A    between atoms: O_1  and  C_6 
REMARK    3  A    between atoms: C_6  and  C_7 
ROOT
HETATM    1  O   UNK N   1      41.982  21.662   2.500  0.00  0.00    -0.256 OA
HETATM    2  C   UNK N   1      42.478  22.775   2.608  0.00  0.00     0.329 C 
ENDROOT
BRANCH   2   3
HETATM    3  O   UNK N   1      41.966  23.834   1.933  0.00  0.00    -0.316 OA
BRANCH   3   4
HETATM    4  C   UNK N   1      40.969  23.726   0.996  0.00  0.00     0.175 C 
HETATM    5  C   UNK N   1      40.595  25.117   0.529  0.00  0.00     0.034 C 
ENDBRANCH   3   4
ENDBRANCH   2   3
BRANCH   2   6
HETATM    6  C   UNK N   1      43.649  22.990   3.476  0.00  0.00     0.220 C 
HETATM    7  O   UNK N   1      44.067  24.120   3.657  0.00  0.00    -0.287 OA
HETATM    8  C   UNK N   1      44.333  21.842   4.141  0.00  0.00     0.103 C 
ENDBRANCH   2   6
TORSDOF 3
ENDMDL
