MODEL 1
REMARK VINA RESULT:      -7.8      0.000      0.000
REMARK  3 active torsions:
REMARK  status: ('A' for Active; 'I' for Inactive)
REMARK    1  A    between atoms: C_5  and  O_24 
REMARK    2  A    between atoms: C_9  and  O_23 
REMARK    3  A    between atoms: C_18  and  O_21 
ROOT
HETATM    1  C   UNK N   1      30.242  24.125  -5.976  0.00  0.00     0.020 C 
HETATM    2  C   UNK N   1      29.261  23.078  -5.448  0.00  0.00    -0.017 C 
HETATM    3  C   UNK N   1      28.346  22.645  -6.604  0.00  0.00     0.016 C 
HETATM    4  C   UNK N   1      27.223  23.642  -6.854  0.00  0.00     0.033 C 
HETATM    5  C   UNK N   1      26.318  23.614  -5.634  0.00  0.00     0.122 C 
HETATM    6  C   UNK N   1      27.039  24.115  -4.401  0.00  0.00     0.066 C 
HETATM    7  C   UNK N   1      28.462  23.673  -4.281  0.00  0.00    -0.070 C 
HETATM    8  C   UNK N   1      29.005  23.791  -3.067  0.00  0.00     0.008 C 
HETATM    9  C   UNK N   1      30.384  23.332  -2.773  0.00  0.00     0.146 C 
HETATM   10  C   UNK N   1      30.849  22.161  -3.634  0.00  0.00     0.028 C 
HETATM   11  C   UNK N   1      30.006  21.846  -4.891  0.00  0.00     0.005 C 
HETATM   12  C   UNK N   1      30.798  21.004  -5.886  0.00  0.00     0.007 C 
HETATM   13  C   UNK N   1      32.025  21.788  -6.291  0.00  0.00     0.014 C 
HETATM   14  C   UNK N   1      33.019  22.015  -5.137  0.00  0.00     0.003 C 
HETATM   15  C   UNK N   1      32.358  22.328  -3.769  0.00  0.00     0.005 C 
HETATM   16  C   UNK N   1      32.909  21.298  -2.799  0.00  0.00     0.010 C 
HETATM   17  C   UNK N   1      33.206  20.105  -3.686  0.00  0.00     0.052 C 
HETATM   18  C   UNK N   1      33.897  20.765  -4.852  0.00  0.00     0.128 C 
HETATM   19  C   UNK N   1      35.272  21.092  -4.416  0.00  0.00    -0.078 C 
HETATM   20  C   UNK N   1      36.398  21.375  -4.098  0.00  0.00     0.015 C 
HETATM   21  C   UNK N   1      33.833  23.234  -5.564  0.00  0.00     0.020 C 
ENDROOT
BRANCH  18  22
HETATM   22  O   UNK N   1      33.972  19.908  -5.953  0.00  0.00    -0.377 OA
HETATM   23  H   UNK N   1      34.069  20.198  -6.873  0.00  0.00     0.211 HD
ENDBRANCH  18  22
BRANCH   9  24
HETATM   24  O   UNK N   1      30.496  22.998  -1.424  0.00  0.00    -0.391 OA
HETATM   25  H   UNK N   1      30.173  22.176  -1.023  0.00  0.00     0.210 HD
ENDBRANCH   9  24
BRANCH   5  26
HETATM   26  O   UNK N   1      25.201  24.419  -5.839  0.00  0.00    -0.395 OA
HETATM   27  H   UNK N   1      25.248  25.256  -6.327  0.00  0.00     0.210 HD
ENDBRANCH   5  26
TORSDOF 3
ENDMDL
MODEL 2
REMARK VINA RESULT:      -7.7     14.291     15.915
REMARK  3 active torsions:
REMARK  status: ('A' for Active; 'I' for Inactive)
REMARK    1  A    between atoms: C_5  and  O_24 
REMARK    2  A    between atoms: C_9  and  O_23 
REMARK    3  A    between atoms: C_18  and  O_21 
ROOT
HETATM    1  C   UNK N   1      22.558  15.863   3.745  0.00  0.00     0.020 C 
HETATM    2  C   UNK N   1      21.098  16.311   3.685  0.00  0.00    -0.017 C 
HETATM    3  C   UNK N   1      20.449  15.682   2.443  0.00  0.00     0.016 C 
HETATM    4  C   UNK N   1      20.786  16.444   1.169  0.00  0.00     0.033 C 
HETATM    5  C   UNK N   1      20.131  17.811   1.277  0.00  0.00     0.122 C 
HETATM    6  C   UNK N   1      20.731  18.621   2.405  0.00  0.00     0.066 C 
HETATM    7  C   UNK N   1      21.038  17.844   3.645  0.00  0.00    -0.070 C 
HETATM    8  C   UNK N   1      21.225  18.567   4.751  0.00  0.00     0.008 C 
HETATM    9  C   UNK N   1      21.469  17.938   6.071  0.00  0.00     0.146 C 
HETATM   10  C   UNK N   1      20.824  16.565   6.237  0.00  0.00     0.028 C 
HETATM   11  C   UNK N   1      20.327  15.871   4.948  0.00  0.00     0.005 C 
HETATM   12  C   UNK N   1      20.147  14.373   5.166  0.00  0.00     0.007 C 
HETATM   13  C   UNK N   1      21.485  13.792   5.561  0.00  0.00     0.014 C 
HETATM   14  C   UNK N   1      21.997  14.297   6.923  0.00  0.00     0.003 C 
HETATM   15  C   UNK N   1      21.733  15.801   7.193  0.00  0.00     0.005 C 
HETATM   16  C   UNK N   1      20.977  15.857   8.509  0.00  0.00     0.010 C 
HETATM   17  C   UNK N   1      20.235  14.536   8.544  0.00  0.00     0.052 C 
HETATM   18  C   UNK N   1      21.317  13.576   8.120  0.00  0.00     0.128 C 
HETATM   19  C   UNK N   1      22.211  13.383   9.282  0.00  0.00    -0.078 C 
HETATM   20  C   UNK N   1      22.961  13.202  10.206  0.00  0.00     0.015 C 
HETATM   21  C   UNK N   1      23.507  14.079   6.871  0.00  0.00     0.020 C 
ENDROOT
BRANCH  18  22
HETATM   22  O   UNK N   1      20.785  12.335   7.758  0.00  0.00    -0.377 OA
HETATM   23  H   UNK N   1      20.995  11.496   8.197  0.00  0.00     0.211 HD
ENDBRANCH  18  22
BRANCH   9  24
HETATM   24  O   UNK N   1      21.035  18.787   7.089  0.00  0.00    -0.391 OA
HETATM   25  H   UNK N   1      21.613  19.269   7.700  0.00  0.00     0.210 HD
ENDBRANCH   9  24
BRANCH   5  26
HETATM   26  O   UNK N   1      20.300  18.525   0.094  0.00  0.00    -0.395 OA
HETATM   27  H   UNK N   1      20.113  18.139  -0.776  0.00  0.00     0.210 HD
ENDBRANCH   5  26
TORSDOF 3
ENDMDL
MODEL 3
REMARK VINA RESULT:      -7.2     15.378     17.333
REMARK  3 active torsions:
REMARK  status: ('A' for Active; 'I' for Inactive)
REMARK    1  A    between atoms: C_5  and  O_24 
REMARK    2  A    between atoms: C_9  and  O_23 
REMARK    3  A    between atoms: C_18  and  O_21 
ROOT
HETATM    1  C   UNK N   1      21.092  12.748   7.079  0.00  0.00     0.020 C 
HETATM    2  C   UNK N   1      22.206  13.375   7.916  0.00  0.00    -0.017 C 
HETATM    3  C   UNK N   1      23.342  12.350   8.055  0.00  0.00     0.016 C 
HETATM    4  C   UNK N   1      23.052  11.311   9.129  0.00  0.00     0.033 C 
HETATM    5  C   UNK N   1      23.043  12.037  10.464  0.00  0.00     0.122 C 
HETATM    6  C   UNK N   1      21.904  13.030  10.543  0.00  0.00     0.066 C 
HETATM    7  C   UNK N   1      21.644  13.791   9.282  0.00  0.00    -0.070 C 
HETATM    8  C   UNK N   1      20.909  14.897   9.414  0.00  0.00     0.008 C 
HETATM    9  C   UNK N   1      20.623  15.794   8.268  0.00  0.00     0.146 C 
HETATM   10  C   UNK N   1      21.708  15.801   7.195  0.00  0.00     0.028 C 
HETATM   11  C   UNK N   1      22.749  14.659   7.252  0.00  0.00     0.005 C 
HETATM   12  C   UNK N   1      23.464  14.501   5.915  0.00  0.00     0.007 C 
HETATM   13  C   UNK N   1      22.428  14.180   4.864  0.00  0.00     0.014 C 
HETATM   14  C   UNK N   1      21.433  15.327   4.609  0.00  0.00     0.003 C 
HETATM   15  C   UNK N   1      20.984  16.086   5.885  0.00  0.00     0.005 C 
HETATM   16  C   UNK N   1      21.297  17.549   5.626  0.00  0.00     0.010 C 
HETATM   17  C   UNK N   1      22.480  17.492   4.679  0.00  0.00     0.052 C 
HETATM   18  C   UNK N   1      22.027  16.439   3.700  0.00  0.00     0.128 C 
HETATM   19  C   UNK N   1      21.031  17.072   2.808  0.00  0.00    -0.078 C 
HETATM   20  C   UNK N   1      20.216  17.551   2.063  0.00  0.00     0.015 C 
HETATM   21  C   UNK N   1      20.208  14.648   4.001  0.00  0.00     0.020 C 
ENDROOT
BRANCH  18  22
HETATM   22  O   UNK N   1      23.090  15.976   2.921  0.00  0.00    -0.377 OA
HETATM   23  H   UNK N   1      23.964  16.393   2.876  0.00  0.00     0.211 HD
ENDBRANCH  18  22
BRANCH   9  24
HETATM   24  O   UNK N   1      20.405  17.093   8.724  0.00  0.00    -0.391 OA
HETATM   25  H   UNK N   1      19.634  17.384   9.236  0.00  0.00     0.210 HD
ENDBRANCH   9  24
BRANCH   5  26
HETATM   26  O   UNK N   1      22.897  11.129  11.509  0.00  0.00    -0.395 OA
HETATM   27  H   UNK N   1      23.068  11.370  12.433  0.00  0.00     0.210 HD
ENDBRANCH   5  26
TORSDOF 3
ENDMDL
MODEL 4
REMARK VINA RESULT:      -7.0     10.661     13.326
REMARK  3 active torsions:
REMARK  status: ('A' for Active; 'I' for Inactive)
REMARK    1  A    between atoms: C_5  and  O_24 
REMARK    2  A    between atoms: C_9  and  O_23 
REMARK    3  A    between atoms: C_18  and  O_21 
ROOT
HETATM    1  C   UNK N   1      31.547  15.194   6.561  0.00  0.00     0.020 C 
HETATM    2  C   UNK N   1      31.641  16.702   6.337  0.00  0.00    -0.017 C 
HETATM    3  C   UNK N   1      33.029  17.021   5.761  0.00  0.00     0.016 C 
HETATM    4  C   UNK N   1      34.104  17.064   6.838  0.00  0.00     0.033 C 
HETATM    5  C   UNK N   1      33.793  18.251   7.734  0.00  0.00     0.122 C 
HETATM    6  C   UNK N   1      32.487  18.058   8.472  0.00  0.00     0.066 C 
HETATM    7  C   UNK N   1      31.395  17.430   7.665  0.00  0.00    -0.070 C 
HETATM    8  C   UNK N   1      30.160  17.570   8.154  0.00  0.00     0.008 C 
HETATM    9  C   UNK N   1      28.967  17.062   7.434  0.00  0.00     0.146 C 
HETATM   10  C   UNK N   1      29.118  17.037   5.916  0.00  0.00     0.028 C 
HETATM   11  C   UNK N   1      30.552  17.191   5.358  0.00  0.00     0.005 C 
HETATM   12  C   UNK N   1      30.637  16.693   3.919  0.00  0.00     0.007 C 
HETATM   13  C   UNK N   1      30.250  15.232   3.905  0.00  0.00     0.014 C 
HETATM   14  C   UNK N   1      28.780  14.981   4.288  0.00  0.00     0.003 C 
HETATM   15  C   UNK N   1      28.252  15.876   5.439  0.00  0.00     0.005 C 
HETATM   16  C   UNK N   1      27.017  16.568   4.892  0.00  0.00     0.010 C 
HETATM   17  C   UNK N   1      27.294  16.654   3.403  0.00  0.00     0.052 C 
HETATM   18  C   UNK N   1      27.801  15.264   3.115  0.00  0.00     0.128 C 
HETATM   19  C   UNK N   1      26.626  14.366   3.091  0.00  0.00    -0.078 C 
HETATM   20  C   UNK N   1      25.695  13.604   3.065  0.00  0.00     0.015 C 
HETATM   21  C   UNK N   1      28.747  13.529   4.759  0.00  0.00     0.020 C 
ENDROOT
BRANCH  18  22
HETATM   22  O   UNK N   1      28.433  15.200   1.870  0.00  0.00    -0.377 OA
HETATM   23  H   UNK N   1      29.381  15.039   1.739  0.00  0.00     0.211 HD
ENDBRANCH  18  22
BRANCH   9  24
HETATM   24  O   UNK N   1      27.847  17.815   7.782  0.00  0.00    -0.391 OA
HETATM   25  H   UNK N   1      27.452  17.856   8.667  0.00  0.00     0.210 HD
ENDBRANCH   9  24
BRANCH   5  26
HETATM   26  O   UNK N   1      34.801  18.424   8.678  0.00  0.00    -0.395 OA
HETATM   27  H   UNK N   1      34.759  19.110   9.363  0.00  0.00     0.210 HD
ENDBRANCH   5  26
TORSDOF 3
ENDMDL
MODEL 5
REMARK VINA RESULT:      -6.9     20.667     23.398
REMARK  3 active torsions:
REMARK  status: ('A' for Active; 'I' for Inactive)
REMARK    1  A    between atoms: C_5  and  O_24 
REMARK    2  A    between atoms: C_9  and  O_23 
REMARK    3  A    between atoms: C_18  and  O_21 
ROOT
HETATM    1  C   UNK N   1      34.134  11.068  15.760  0.00  0.00     0.020 C 
HETATM    2  C   UNK N   1      35.484  11.406  16.391  0.00  0.00    -0.017 C 
HETATM    3  C   UNK N   1      35.641  10.576  17.674  0.00  0.00     0.016 C 
HETATM    4  C   UNK N   1      34.886  11.183  18.848  0.00  0.00     0.033 C 
HETATM    5  C   UNK N   1      35.557  12.506  19.178  0.00  0.00     0.122 C 
HETATM    6  C   UNK N   1      35.408  13.496  18.044  0.00  0.00     0.066 C 
HETATM    7  C   UNK N   1      35.550  12.913  16.675  0.00  0.00    -0.070 C 
HETATM    8  C   UNK N   1      35.778  13.787  15.693  0.00  0.00     0.008 C 
HETATM    9  C   UNK N   1      36.009  13.357  14.293  0.00  0.00     0.146 C 
HETATM   10  C   UNK N   1      36.650  11.978  14.162  0.00  0.00     0.028 C 
HETATM   11  C   UNK N   1      36.647  11.088  15.426  0.00  0.00     0.005 C 
HETATM   12  C   UNK N   1      36.870   9.623  15.066  0.00  0.00     0.007 C 
HETATM   13  C   UNK N   1      35.750   9.190  14.148  0.00  0.00     0.014 C 
HETATM   14  C   UNK N   1      35.762   9.903  12.783  0.00  0.00     0.003 C 
HETATM   15  C   UNK N   1      36.128  11.409  12.847  0.00  0.00     0.005 C 
HETATM   16  C   UNK N   1      37.301  11.589  11.901  0.00  0.00     0.010 C 
HETATM   17  C   UNK N   1      37.987  10.238  11.933  0.00  0.00     0.052 C 
HETATM   18  C   UNK N   1      36.811   9.304  11.807  0.00  0.00     0.128 C 
HETATM   19  C   UNK N   1      36.385   9.327  10.390  0.00  0.00    -0.078 C 
HETATM   20  C   UNK N   1      36.008   9.320   9.247  0.00  0.00     0.015 C 
HETATM   21  C   UNK N   1      34.329   9.781  12.273  0.00  0.00     0.020 C 
ENDROOT
BRANCH  18  22
HETATM   22  O   UNK N   1      37.161   7.993  12.143  0.00  0.00    -0.377 OA
HETATM   23  H   UNK N   1      36.626   7.403  12.696  0.00  0.00     0.211 HD
ENDBRANCH  18  22
BRANCH   9  24
HETATM   24  O   UNK N   1      36.788  14.302  13.628  0.00  0.00    -0.391 OA
HETATM   25  H   UNK N   1      37.418  14.906  14.050  0.00  0.00     0.210 HD
ENDBRANCH   9  24
BRANCH   5  26
HETATM   26  O   UNK N   1      34.990  13.066  20.319  0.00  0.00    -0.395 OA
HETATM   27  H   UNK N   1      35.525  13.477  21.016  0.00  0.00     0.210 HD
ENDBRANCH   5  26
TORSDOF 3
ENDMDL
MODEL 6
REMARK VINA RESULT:      -6.8     20.861     23.608
REMARK  3 active torsions:
REMARK  status: ('A' for Active; 'I' for Inactive)
REMARK    1  A    between atoms: C_5  and  O_24 
REMARK    2  A    between atoms: C_9  and  O_23 
REMARK    3  A    between atoms: C_18  and  O_21 
ROOT
HETATM    1  C   UNK N   1      36.732  12.264  15.441  0.00  0.00     0.020 C 
HETATM    2  C   UNK N   1      35.547  11.642  16.178  0.00  0.00    -0.017 C 
HETATM    3  C   UNK N   1      34.686  12.776  16.756  0.00  0.00     0.016 C 
HETATM    4  C   UNK N   1      35.262  13.332  18.051  0.00  0.00     0.033 C 
HETATM    5  C   UNK N   1      35.171  12.230  19.093  0.00  0.00     0.122 C 
HETATM    6  C   UNK N   1      36.051  11.054  18.729  0.00  0.00     0.066 C 
HETATM    7  C   UNK N   1      36.065  10.704  17.276  0.00  0.00    -0.070 C 
HETATM    8  C   UNK N   1      36.530   9.489  16.977  0.00  0.00     0.008 C 
HETATM    9  C   UNK N   1      36.544   8.970  15.588  0.00  0.00     0.146 C 
HETATM   10  C   UNK N   1      35.434   9.529  14.702  0.00  0.00     0.028 C 
HETATM   11  C   UNK N   1      34.689  10.778  15.227  0.00  0.00     0.005 C 
HETATM   12  C   UNK N   1      33.964  11.500  14.097  0.00  0.00     0.007 C 
HETATM   13  C   UNK N   1      34.993  11.925  13.075  0.00  0.00     0.014 C 
HETATM   14  C   UNK N   1      35.681  10.744  12.367  0.00  0.00     0.003 C 
HETATM   15  C   UNK N   1      36.006   9.540  13.289  0.00  0.00     0.005 C 
HETATM   16  C   UNK N   1      35.351   8.335  12.641  0.00  0.00     0.010 C 
HETATM   17  C   UNK N   1      34.168   8.932  11.905  0.00  0.00     0.052 C 
HETATM   18  C   UNK N   1      34.802  10.129  11.243  0.00  0.00     0.128 C 
HETATM   19  C   UNK N   1      35.579   9.628  10.088  0.00  0.00    -0.078 C 
HETATM   20  C   UNK N   1      36.223   9.260   9.141  0.00  0.00     0.015 C 
HETATM   21  C   UNK N   1      36.998  11.319  11.851  0.00  0.00     0.020 C 
ENDROOT
BRANCH  18  22
HETATM   22  O   UNK N   1      33.837  11.024  10.775  0.00  0.00    -0.377 OA
HETATM   23  H   UNK N   1      33.075  11.333  11.289  0.00  0.00     0.211 HD
ENDBRANCH  18  22
BRANCH   9  24
HETATM   24  O   UNK N   1      36.479   7.578  15.600  0.00  0.00    -0.391 OA
HETATM   25  H   UNK N   1      35.730   7.055  15.927  0.00  0.00     0.210 HD
ENDBRANCH   9  24
BRANCH   5  26
HETATM   26  O   UNK N   1      35.574  12.703  20.338  0.00  0.00    -0.395 OA
HETATM   27  H   UNK N   1      36.494  12.947  20.527  0.00  0.00     0.210 HD
ENDBRANCH   5  26
TORSDOF 3
ENDMDL
MODEL 7
REMARK VINA RESULT:      -6.7     19.483     22.240
REMARK  3 active torsions:
REMARK  status: ('A' for Active; 'I' for Inactive)
REMARK    1  A    between atoms: C_5  and  O_24 
REMARK    2  A    between atoms: C_9  and  O_23 
REMARK    3  A    between atoms: C_18  and  O_21 
ROOT
HETATM    1  C   UNK N   1      34.187  11.054  14.353  0.00  0.00     0.020 C 
HETATM    2  C   UNK N   1      35.505  11.077  15.126  0.00  0.00    -0.017 C 
HETATM    3  C   UNK N   1      35.645   9.748  15.885  0.00  0.00     0.016 C 
HETATM    4  C   UNK N   1      34.833   9.734  17.173  0.00  0.00     0.033 C 
HETATM    5  C   UNK N   1      35.453  10.760  18.106  0.00  0.00     0.122 C 
HETATM    6  C   UNK N   1      35.313  12.162  17.553  0.00  0.00     0.066 C 
HETATM    7  C   UNK N   1      35.517  12.281  16.077  0.00  0.00    -0.070 C 
HETATM    8  C   UNK N   1      35.751  13.513  15.621  0.00  0.00     0.008 C 
HETATM    9  C   UNK N   1      36.040  13.783  14.192  0.00  0.00     0.146 C 
HETATM   10  C   UNK N   1      36.726  12.629  13.466  0.00  0.00     0.028 C 
HETATM   11  C   UNK N   1      36.708  11.255  14.174  0.00  0.00     0.005 C 
HETATM   12  C   UNK N   1      36.987  10.126  13.187  0.00  0.00     0.007 C 
HETATM   13  C   UNK N   1      35.911  10.154  12.126  0.00  0.00     0.014 C 
HETATM   14  C   UNK N   1      35.947  11.419  11.248  0.00  0.00     0.003 C 
HETATM   15  C   UNK N   1      36.265  12.728  12.016  0.00  0.00     0.005 C 
HETATM   16  C   UNK N   1      37.463  13.339  11.312  0.00  0.00     0.010 C 
HETATM   17  C   UNK N   1      38.188  12.135  10.745  0.00  0.00     0.052 C 
HETATM   18  C   UNK N   1      37.045  11.352  10.151  0.00  0.00     0.128 C 
HETATM   19  C   UNK N   1      36.665  12.024   8.889  0.00  0.00    -0.078 C 
HETATM   20  C   UNK N   1      36.327  12.543   7.857  0.00  0.00     0.015 C 
HETATM   21  C   UNK N   1      34.535  11.531  10.677  0.00  0.00     0.020 C 
ENDROOT
BRANCH  18  22
HETATM   22  O   UNK N   1      37.423  10.039   9.858  0.00  0.00    -0.377 OA
HETATM   23  H   UNK N   1      37.136   9.258  10.356  0.00  0.00     0.211 HD
ENDBRANCH  18  22
BRANCH   9  24
HETATM   24  O   UNK N   1      36.812  14.937  14.074  0.00  0.00    -0.391 OA
HETATM   25  H   UNK N   1      36.551  15.820  14.380  0.00  0.00     0.210 HD
ENDBRANCH   9  24
BRANCH   5  26
HETATM   26  O   UNK N   1      34.833  10.722  19.351  0.00  0.00    -0.395 OA
HETATM   27  H   UNK N   1      34.919  11.442  19.996  0.00  0.00     0.210 HD
ENDBRANCH   5  26
TORSDOF 3
ENDMDL
MODEL 8
REMARK VINA RESULT:      -6.4     19.660     22.197
REMARK  3 active torsions:
REMARK  status: ('A' for Active; 'I' for Inactive)
REMARK    1  A    between atoms: C_5  and  O_24 
REMARK    2  A    between atoms: C_9  and  O_23 
REMARK    3  A    between atoms: C_18  and  O_21 
ROOT
HETATM    1  C   UNK N   1      37.285  12.420  12.078  0.00  0.00     0.020 C 
HETATM    2  C   UNK N   1      35.905  13.033  12.309  0.00  0.00    -0.017 C 
HETATM    3  C   UNK N   1      35.085  12.880  11.018  0.00  0.00     0.016 C 
HETATM    4  C   UNK N   1      35.437  13.940   9.984  0.00  0.00     0.033 C 
HETATM    5  C   UNK N   1      34.995  15.280  10.546  0.00  0.00     0.122 C 
HETATM    6  C   UNK N   1      35.784  15.644  11.785  0.00  0.00     0.066 C 
HETATM    7  C   UNK N   1      36.063  14.505  12.712  0.00  0.00    -0.070 C 
HETATM    8  C   UNK N   1      36.430  14.842  13.950  0.00  0.00     0.008 C 
HETATM    9  C   UNK N   1      36.674  13.827  15.003  0.00  0.00     0.146 C 
HETATM   10  C   UNK N   1      35.852  12.551  14.843  0.00  0.00     0.028 C 
HETATM   11  C   UNK N   1      35.170  12.333  13.472  0.00  0.00     0.005 C 
HETATM   12  C   UNK N   1      34.792  10.869  13.275  0.00  0.00     0.007 C 
HETATM   13  C   UNK N   1      36.057  10.045  13.339  0.00  0.00     0.014 C 
HETATM   14  C   UNK N   1      36.731  10.061  14.723  0.00  0.00     0.003 C 
HETATM   15  C   UNK N   1      36.706  11.438  15.437  0.00  0.00     0.005 C 
HETATM   16  C   UNK N   1      36.063  11.190  16.789  0.00  0.00     0.010 C 
HETATM   17  C   UNK N   1      35.142  10.014  16.529  0.00  0.00     0.052 C 
HETATM   18  C   UNK N   1      36.041   9.103  15.733  0.00  0.00     0.128 C 
HETATM   19  C   UNK N   1      36.979   8.472  16.688  0.00  0.00    -0.078 C 
HETATM   20  C   UNK N   1      37.759   7.939  17.434  0.00  0.00     0.015 C 
HETATM   21  C   UNK N   1      38.187   9.693  14.446  0.00  0.00     0.020 C 
ENDROOT
BRANCH  18  22
HETATM   22  O   UNK N   1      35.313   8.095  15.096  0.00  0.00    -0.377 OA
HETATM   23  H   UNK N   1      34.473   7.733  15.418  0.00  0.00     0.211 HD
ENDBRANCH  18  22
BRANCH   9  24
HETATM   24  O   UNK N   1      36.440  14.381  16.261  0.00  0.00    -0.391 OA
HETATM   25  H   UNK N   1      36.476  15.327  16.471  0.00  0.00     0.210 HD
ENDBRANCH   9  24
BRANCH   5  26
HETATM   26  O   UNK N   1      35.181  16.287   9.604  0.00  0.00    -0.395 OA
HETATM   27  H   UNK N   1      35.517  16.107   8.712  0.00  0.00     0.210 HD
ENDBRANCH   5  26
TORSDOF 3
ENDMDL
MODEL 9
REMARK VINA RESULT:      -6.4     10.180     13.166
REMARK  3 active torsions:
REMARK  status: ('A' for Active; 'I' for Inactive)
REMARK    1  A    between atoms: C_5  and  O_24 
REMARK    2  A    between atoms: C_9  and  O_23 
REMARK    3  A    between atoms: C_18  and  O_21 
ROOT
HETATM    1  C   UNK N   1      30.507  17.749   5.101  0.00  0.00     0.020 C 
HETATM    2  C   UNK N   1      30.016  16.507   5.843  0.00  0.00    -0.017 C 
HETATM    3  C   UNK N   1      30.588  16.537   7.269  0.00  0.00     0.016 C 
HETATM    4  C   UNK N   1      32.031  16.057   7.321  0.00  0.00     0.033 C 
HETATM    5  C   UNK N   1      32.028  14.583   6.954  0.00  0.00     0.122 C 
HETATM    6  C   UNK N   1      31.581  14.372   5.524  0.00  0.00     0.066 C 
HETATM    7  C   UNK N   1      30.456  15.251   5.079  0.00  0.00    -0.070 C 
HETATM    8  C   UNK N   1      29.815  14.858   3.976  0.00  0.00     0.008 C 
HETATM    9  C   UNK N   1      28.636  15.587   3.450  0.00  0.00     0.146 C 
HETATM   10  C   UNK N   1      27.812  16.297   4.520  0.00  0.00     0.028 C 
HETATM   11  C   UNK N   1      28.474  16.468   5.907  0.00  0.00     0.005 C 
HETATM   12  C   UNK N   1      27.784  17.562   6.714  0.00  0.00     0.007 C 
HETATM   13  C   UNK N   1      27.899  18.857   5.943  0.00  0.00     0.014 C 
HETATM   14  C   UNK N   1      27.129  18.850   4.610  0.00  0.00     0.003 C 
HETATM   15  C   UNK N   1      27.206  17.513   3.828  0.00  0.00     0.005 C 
HETATM   16  C   UNK N   1      25.767  17.093   3.586  0.00  0.00     0.010 C 
HETATM   17  C   UNK N   1      25.024  17.695   4.762  0.00  0.00     0.052 C 
HETATM   18  C   UNK N   1      25.605  19.085   4.801  0.00  0.00     0.128 C 
HETATM   19  C   UNK N   1      24.980  19.851   3.700  0.00  0.00    -0.078 C 
HETATM   20  C   UNK N   1      24.494  20.506   2.815  0.00  0.00     0.015 C 
HETATM   21  C   UNK N   1      27.802  19.933   3.771  0.00  0.00     0.020 C 
ENDROOT
BRANCH  18  22
HETATM   22  O   UNK N   1      25.314  19.727   6.008  0.00  0.00    -0.377 OA
HETATM   23  H   UNK N   1      25.917  19.775   6.766  0.00  0.00     0.211 HD
ENDBRANCH  18  22
BRANCH   9  24
HETATM   24  O   UNK N   1      27.820  14.714   2.732  0.00  0.00    -0.391 OA
HETATM   25  H   UNK N   1      26.863  14.613   2.855  0.00  0.00     0.210 HD
ENDBRANCH   9  24
BRANCH   5  26
HETATM   26  O   UNK N   1      33.304  14.045   7.092  0.00  0.00    -0.395 OA
HETATM   27  H   UNK N   1      33.933  14.366   7.756  0.00  0.00     0.210 HD
ENDBRANCH   5  26
TORSDOF 3
ENDMDL
