MODEL 1
REMARK VINA RESULT:      -7.7      0.000      0.000
REMARK  8 active torsions:
REMARK  status: ('A' for Active; 'I' for Inactive)
REMARK    1  A    between atoms: C_2  and  C_4 
REMARK    2  A    between atoms: C_4  and  O_5 
REMARK    3  A    between atoms: O_5  and  C_6 
REMARK    4  A    between atoms: C_9  and  C_10 
REMARK    5  A    between atoms: C_10  and  N_11 
REMARK       I    between atoms: N_11  and  C_12 
REMARK       I    between atoms: C_12  and  N_14 
REMARK    6  A    between atoms: N_14  and  C_15 
REMARK    7  A    between atoms: N_14  and  C_23 
REMARK    8  A    between atoms: C_15  and  C_16 
ROOT
HETATM    1  N   UNK N   1      20.506  16.755   5.966  0.00  0.00    -0.339 N 
HETATM    2  C   UNK N   1      20.983  17.908   5.450  0.00  0.00     0.319 C 
HETATM    3  O   UNK N   1      21.026  18.909   6.155  0.00  0.00    -0.247 OA
HETATM    4  N   UNK N   1      21.384  17.971   4.133  0.00  0.00    -0.325 N 
HETATM    5  H   UNK N   1      20.632  15.936   5.436  0.00  0.00     0.164 HD
ENDROOT
BRANCH   1   6
HETATM    6  C   UNK N   1      19.826  16.631   7.230  0.00  0.00     0.162 C 
BRANCH   6   7
HETATM    7  C   UNK N   1      20.503  15.528   7.992  0.00  0.00    -0.040 A 
HETATM    8  C   UNK N   1      21.599  14.860   7.443  0.00  0.00     0.011 A 
HETATM    9  C   UNK N   1      22.155  13.762   8.113  0.00  0.00     0.037 A 
HETATM   10  C   UNK N   1      21.607  13.312   9.320  0.00  0.00     0.068 A 
HETATM   11  C   UNK N   1      20.519  13.995   9.880  0.00  0.00     0.037 A 
HETATM   12  C   UNK N   1      19.978  15.096   9.222  0.00  0.00     0.011 A 
BRANCH  10  13
HETATM   13  O   UNK N   1      22.138  12.220   9.918  0.00  0.00    -0.351 OA
BRANCH  13  14
HETATM   14  C   UNK N   1      22.008  11.940  11.264  0.00  0.00     0.179 C 
BRANCH  14  15
HETATM   15  C   UNK N   1      23.361  11.600  11.885  0.00  0.00     0.002 C 
HETATM   16  C   UNK N   1      24.504  12.225  11.109  0.00  0.00     0.011 C 
HETATM   17  C   UNK N   1      23.416  12.042  13.337  0.00  0.00     0.011 C 
ENDBRANCH  14  15
ENDBRANCH  13  14
ENDBRANCH  10  13
ENDBRANCH   6   7
ENDBRANCH   1   6
BRANCH   4  18
HETATM   18  C   UNK N   1      21.872  19.267   3.654  0.00  0.00     0.166 C 
BRANCH  18  19
HETATM   19  C   UNK N   1      23.360  19.446   3.623  0.00  0.00    -0.040 A 
HETATM   20  C   UNK N   1      24.154  18.630   4.435  0.00  0.00     0.012 A 
HETATM   21  C   UNK N   1      25.544  18.760   4.415  0.00  0.00     0.043 A 
HETATM   22  C   UNK N   1      26.146  19.709   3.584  0.00  0.00     0.116 A 
HETATM   23  F   UNK N   1      27.494  19.824   3.559  0.00  0.00    -0.206 F 
HETATM   24  C   UNK N   1      25.355  20.537   2.780  0.00  0.00     0.043 A 
HETATM   25  C   UNK N   1      23.963  20.411   2.804  0.00  0.00     0.012 A 
ENDBRANCH  18  19
ENDBRANCH   4  18
BRANCH   4  26
HETATM   26  C   UNK N   1      21.219  16.847   3.181  0.00  0.00     0.092 C 
HETATM   27  C   UNK N   1      20.650  17.235   1.816  0.00  0.00     0.055 C 
HETATM   28  C   UNK N   1      20.239  15.968   1.027  0.00  0.00     0.274 C 
HETATM   29  N   UNK N   1      20.647  14.727   1.700  0.00  0.00     0.084 N 
HETATM   30  C   UNK N   1      20.411  13.618   0.796  0.00  0.00     0.309 C 
HETATM   31  C   UNK N   1      22.081  14.780   1.962  0.00  0.00     0.274 C 
HETATM   32  C   UNK N   1      22.395  15.873   2.984  0.00  0.00     0.055 C 
ENDBRANCH   4  26
TORSDOF 8
ENDMDL
MODEL 2
REMARK VINA RESULT:      -7.4     10.408     13.934
REMARK  8 active torsions:
REMARK  status: ('A' for Active; 'I' for Inactive)
REMARK    1  A    between atoms: C_2  and  C_4 
REMARK    2  A    between atoms: C_4  and  O_5 
REMARK    3  A    between atoms: O_5  and  C_6 
REMARK    4  A    between atoms: C_9  and  C_10 
REMARK    5  A    between atoms: C_10  and  N_11 
REMARK       I    between atoms: N_11  and  C_12 
REMARK       I    between atoms: C_12  and  N_14 
REMARK    6  A    between atoms: N_14  and  C_15 
REMARK    7  A    between atoms: N_14  and  C_23 
REMARK    8  A    between atoms: C_15  and  C_16 
ROOT
HETATM    1  N   UNK N   1      33.798  16.589   8.919  0.00  0.00    -0.339 N 
HETATM    2  C   UNK N   1      34.943  16.351   9.593  0.00  0.00     0.319 C 
HETATM    3  O   UNK N   1      35.500  17.274  10.175  0.00  0.00    -0.247 OA
HETATM    4  N   UNK N   1      35.502  15.090   9.599  0.00  0.00    -0.325 N 
HETATM    5  H   UNK N   1      33.290  15.809   8.601  0.00  0.00     0.164 HD
ENDROOT
BRANCH   1   6
HETATM    6  C   UNK N   1      33.263  17.894   8.628  0.00  0.00     0.162 C 
BRANCH   6   7
HETATM    7  C   UNK N   1      31.923  17.691   7.982  0.00  0.00    -0.040 A 
HETATM    8  C   UNK N   1      31.835  17.209   6.675  0.00  0.00     0.011 A 
HETATM    9  C   UNK N   1      30.587  17.126   6.043  0.00  0.00     0.037 A 
HETATM   10  C   UNK N   1      29.425  17.545   6.705  0.00  0.00     0.068 A 
HETATM   11  C   UNK N   1      29.512  18.010   8.023  0.00  0.00     0.037 A 
HETATM   12  C   UNK N   1      30.751  18.076   8.656  0.00  0.00     0.011 A 
BRANCH  10  13
HETATM   13  O   UNK N   1      28.241  17.495   6.050  0.00  0.00    -0.351 OA
BRANCH  13  14
HETATM   14  C   UNK N   1      27.322  18.526   6.044  0.00  0.00     0.179 C 
BRANCH  14  15
HETATM   15  C   UNK N   1      27.862  19.735   5.282  0.00  0.00     0.002 C 
HETATM   16  C   UNK N   1      27.280  19.819   3.884  0.00  0.00     0.011 C 
HETATM   17  C   UNK N   1      27.581  21.021   6.040  0.00  0.00     0.011 C 
ENDBRANCH  14  15
ENDBRANCH  13  14
ENDBRANCH  10  13
ENDBRANCH   6   7
ENDBRANCH   1   6
BRANCH   4  18
HETATM   18  C   UNK N   1      36.754  14.928  10.342  0.00  0.00     0.166 C 
BRANCH  18  19
HETATM   19  C   UNK N   1      36.676  14.127  11.608  0.00  0.00    -0.040 A 
HETATM   20  C   UNK N   1      37.275  12.865  11.644  0.00  0.00     0.012 A 
HETATM   21  C   UNK N   1      37.233  12.103  12.814  0.00  0.00     0.043 A 
HETATM   22  C   UNK N   1      36.592  12.601  13.951  0.00  0.00     0.116 A 
HETATM   23  F   UNK N   1      36.564  11.864  15.086  0.00  0.00    -0.206 F 
HETATM   24  C   UNK N   1      35.979  13.858  13.915  0.00  0.00     0.043 A 
HETATM   25  C   UNK N   1      36.014  14.619  12.743  0.00  0.00     0.012 A 
ENDBRANCH  18  19
ENDBRANCH   4  18
BRANCH   4  26
HETATM   26  C   UNK N   1      34.969  13.964   8.796  0.00  0.00     0.092 C 
HETATM   27  C   UNK N   1      36.018  13.184   8.002  0.00  0.00     0.055 C 
HETATM   28  C   UNK N   1      35.329  12.247   6.981  0.00  0.00     0.274 C 
HETATM   29  N   UNK N   1      33.869  12.212   7.143  0.00  0.00     0.084 N 
HETATM   30  C   UNK N   1      33.340  11.161   6.295  0.00  0.00     0.309 C 
HETATM   31  C   UNK N   1      33.553  11.862   8.522  0.00  0.00     0.274 C 
HETATM   32  C   UNK N   1      34.001  12.975   9.470  0.00  0.00     0.055 C 
ENDBRANCH   4  26
TORSDOF 8
ENDMDL
MODEL 3
REMARK VINA RESULT:      -7.4      9.260     11.435
REMARK  8 active torsions:
REMARK  status: ('A' for Active; 'I' for Inactive)
REMARK    1  A    between atoms: C_2  and  C_4 
REMARK    2  A    between atoms: C_4  and  O_5 
REMARK    3  A    between atoms: O_5  and  C_6 
REMARK    4  A    between atoms: C_9  and  C_10 
REMARK    5  A    between atoms: C_10  and  N_11 
REMARK       I    between atoms: N_11  and  C_12 
REMARK       I    between atoms: C_12  and  N_14 
REMARK    6  A    between atoms: N_14  and  C_15 
REMARK    7  A    between atoms: N_14  and  C_23 
REMARK    8  A    between atoms: C_15  and  C_16 
ROOT
HETATM    1  N   UNK N   1      33.527  17.715   7.437  0.00  0.00    -0.339 N 
HETATM    2  C   UNK N   1      32.196  17.563   7.600  0.00  0.00     0.319 C 
HETATM    3  O   UNK N   1      31.668  17.957   8.632  0.00  0.00    -0.247 OA
HETATM    4  N   UNK N   1      31.441  16.936   6.631  0.00  0.00    -0.325 N 
HETATM    5  H   UNK N   1      33.897  17.540   6.543  0.00  0.00     0.164 HD
ENDROOT
BRANCH   1   6
HETATM    6  C   UNK N   1      34.448  18.113   8.471  0.00  0.00     0.162 C 
BRANCH   6   7
HETATM    7  C   UNK N   1      34.891  16.863   9.176  0.00  0.00    -0.040 A 
HETATM    8  C   UNK N   1      34.869  15.634   8.514  0.00  0.00     0.011 A 
HETATM    9  C   UNK N   1      35.180  14.459   9.212  0.00  0.00     0.037 A 
HETATM   10  C   UNK N   1      35.492  14.503  10.577  0.00  0.00     0.068 A 
HETATM   11  C   UNK N   1      35.532  15.739  11.235  0.00  0.00     0.037 A 
HETATM   12  C   UNK N   1      35.239  16.908  10.537  0.00  0.00     0.011 A 
BRANCH  10  13
HETATM   13  O   UNK N   1      35.742  13.346  11.233  0.00  0.00    -0.351 OA
BRANCH  13  14
HETATM   14  C   UNK N   1      36.828  13.151  12.063  0.00  0.00     0.179 C 
BRANCH  14  15
HETATM   15  C   UNK N   1      36.377  12.823  13.485  0.00  0.00     0.002 C 
HETATM   16  C   UNK N   1      36.477  14.031  14.396  0.00  0.00     0.011 C 
HETATM   17  C   UNK N   1      34.957  12.284  13.491  0.00  0.00     0.011 C 
ENDBRANCH  14  15
ENDBRANCH  13  14
ENDBRANCH  10  13
ENDBRANCH   6   7
ENDBRANCH   1   6
BRANCH   4  18
HETATM   18  C   UNK N   1      30.006  16.799   6.900  0.00  0.00     0.166 C 
BRANCH  18  19
HETATM   19  C   UNK N   1      29.135  17.929   6.440  0.00  0.00    -0.040 A 
HETATM   20  C   UNK N   1      28.503  18.726   7.399  0.00  0.00     0.012 A 
HETATM   21  C   UNK N   1      27.699  19.797   7.001  0.00  0.00     0.043 A 
HETATM   22  C   UNK N   1      27.523  20.073   5.643  0.00  0.00     0.116 A 
HETATM   23  F   UNK N   1      26.752  21.118   5.262  0.00  0.00    -0.206 F 
HETATM   24  C   UNK N   1      28.142  19.269   4.679  0.00  0.00     0.043 A 
HETATM   25  C   UNK N   1      28.942  18.193   5.076  0.00  0.00     0.012 A 
ENDBRANCH  18  19
ENDBRANCH   4  18
BRANCH   4  26
HETATM   26  C   UNK N   1      32.031  16.299   5.430  0.00  0.00     0.092 C 
HETATM   27  C   UNK N   1      31.313  15.037   4.949  0.00  0.00     0.055 C 
HETATM   28  C   UNK N   1      32.175  14.297   3.899  0.00  0.00     0.274 C 
HETATM   29  N   UNK N   1      33.366  15.064   3.505  0.00  0.00     0.084 N 
HETATM   30  C   UNK N   1      33.988  14.396   2.378  0.00  0.00     0.309 C 
HETATM   31  C   UNK N   1      32.949  16.387   3.053  0.00  0.00     0.274 C 
HETATM   32  C   UNK N   1      32.365  17.187   4.217  0.00  0.00     0.055 C 
ENDBRANCH   4  26
TORSDOF 8
ENDMDL
MODEL 4
REMARK VINA RESULT:      -7.1     11.081     13.487
REMARK  8 active torsions:
REMARK  status: ('A' for Active; 'I' for Inactive)
REMARK    1  A    between atoms: C_2  and  C_4 
REMARK    2  A    between atoms: C_4  and  O_5 
REMARK    3  A    between atoms: O_5  and  C_6 
REMARK    4  A    between atoms: C_9  and  C_10 
REMARK    5  A    between atoms: C_10  and  N_11 
REMARK       I    between atoms: N_11  and  C_12 
REMARK       I    between atoms: C_12  and  N_14 
REMARK    6  A    between atoms: N_14  and  C_15 
REMARK    7  A    between atoms: N_14  and  C_23 
REMARK    8  A    between atoms: C_15  and  C_16 
ROOT
HETATM    1  N   UNK N   1      35.617  15.442  10.638  0.00  0.00    -0.339 N 
HETATM    2  C   UNK N   1      35.213  16.370   9.745  0.00  0.00     0.319 C 
HETATM    3  O   UNK N   1      35.231  17.554  10.060  0.00  0.00    -0.247 OA
HETATM    4  N   UNK N   1      34.747  15.990   8.505  0.00  0.00    -0.325 N 
HETATM    5  H   UNK N   1      35.745  14.524  10.310  0.00  0.00     0.164 HD
ENDROOT
BRANCH   1   6
HETATM    6  C   UNK N   1      35.875  15.691  12.033  0.00  0.00     0.162 C 
BRANCH   6   7
HETATM    7  C   UNK N   1      35.867  14.361  12.730  0.00  0.00    -0.040 A 
HETATM    8  C   UNK N   1      35.168  13.282  12.185  0.00  0.00     0.011 A 
HETATM    9  C   UNK N   1      35.076  12.078  12.895  0.00  0.00     0.037 A 
HETATM   10  C   UNK N   1      35.661  11.952  14.162  0.00  0.00     0.068 A 
HETATM   11  C   UNK N   1      36.378  13.029  14.700  0.00  0.00     0.037 A 
HETATM   12  C   UNK N   1      36.483  14.219  13.985  0.00  0.00     0.011 A 
BRANCH  10  13
HETATM   13  O   UNK N   1      35.514  10.791  14.842  0.00  0.00    -0.351 OA
BRANCH  13  14
HETATM   14  C   UNK N   1      34.561  10.589  15.821  0.00  0.00     0.179 C 
BRANCH  14  15
HETATM   15  C   UNK N   1      35.215  10.360  17.182  0.00  0.00     0.002 C 
HETATM   16  C   UNK N   1      36.605   9.771  17.041  0.00  0.00     0.011 C 
HETATM   17  C   UNK N   1      35.277  11.654  17.976  0.00  0.00     0.011 C 
ENDBRANCH  14  15
ENDBRANCH  13  14
ENDBRANCH  10  13
ENDBRANCH   6   7
ENDBRANCH   1   6
BRANCH   4  18
HETATM   18  C   UNK N   1      34.313  17.064   7.606  0.00  0.00     0.166 C 
BRANCH  18  19
HETATM   19  C   UNK N   1      32.832  17.224   7.431  0.00  0.00    -0.040 A 
HETATM   20  C   UNK N   1      32.268  16.951   6.182  0.00  0.00     0.012 A 
HETATM   21  C   UNK N   1      30.890  17.075   5.993  0.00  0.00     0.043 A 
HETATM   22  C   UNK N   1      30.071  17.473   7.053  0.00  0.00     0.116 A 
HETATM   23  F   UNK N   1      28.734  17.580   6.869  0.00  0.00    -0.206 F 
HETATM   24  C   UNK N   1      30.633  17.760   8.301  0.00  0.00     0.043 A 
HETATM   25  C   UNK N   1      32.013  17.643   8.490  0.00  0.00     0.012 A 
ENDBRANCH  18  19
ENDBRANCH   4  18
BRANCH   4  26
HETATM   26  C   UNK N   1      34.552  14.575   8.111  0.00  0.00     0.092 C 
HETATM   27  C   UNK N   1      33.272  13.927   8.640  0.00  0.00     0.055 C 
HETATM   28  C   UNK N   1      33.321  12.395   8.432  0.00  0.00     0.274 C 
HETATM   29  N   UNK N   1      34.484  11.970   7.639  0.00  0.00     0.084 N 
HETATM   30  C   UNK N   1      34.331  10.563   7.321  0.00  0.00     0.309 C 
HETATM   31  C   UNK N   1      34.492  12.704   6.379  0.00  0.00     0.274 C 
HETATM   32  C   UNK N   1      34.742  14.192   6.632  0.00  0.00     0.055 C 
ENDBRANCH   4  26
TORSDOF 8
ENDMDL
MODEL 5
REMARK VINA RESULT:      -6.8     10.921     13.269
REMARK  8 active torsions:
REMARK  status: ('A' for Active; 'I' for Inactive)
REMARK    1  A    between atoms: C_2  and  C_4 
REMARK    2  A    between atoms: C_4  and  O_5 
REMARK    3  A    between atoms: O_5  and  C_6 
REMARK    4  A    between atoms: C_9  and  C_10 
REMARK    5  A    between atoms: C_10  and  N_11 
REMARK       I    between atoms: N_11  and  C_12 
REMARK       I    between atoms: C_12  and  N_14 
REMARK    6  A    between atoms: N_14  and  C_15 
REMARK    7  A    between atoms: N_14  and  C_23 
REMARK    8  A    between atoms: C_15  and  C_16 
ROOT
HETATM    1  N   UNK N   1      35.539  15.483   9.838  0.00  0.00    -0.339 N 
HETATM    2  C   UNK N   1      34.568  16.286   9.355  0.00  0.00     0.319 C 
HETATM    3  O   UNK N   1      34.456  17.424   9.794  0.00  0.00    -0.247 OA
HETATM    4  N   UNK N   1      33.685  15.820   8.404  0.00  0.00    -0.325 N 
HETATM    5  H   UNK N   1      35.709  14.640   9.361  0.00  0.00     0.164 HD
ENDROOT
BRANCH   1   6
HETATM    6  C   UNK N   1      36.344  15.763  10.999  0.00  0.00     0.162 C 
BRANCH   6   7
HETATM    7  C   UNK N   1      36.011  14.724  12.032  0.00  0.00    -0.040 A 
HETATM    8  C   UNK N   1      36.385  14.909  13.365  0.00  0.00     0.011 A 
HETATM    9  C   UNK N   1      36.167  13.888  14.299  0.00  0.00     0.037 A 
HETATM   10  C   UNK N   1      35.595  12.671  13.904  0.00  0.00     0.068 A 
HETATM   11  C   UNK N   1      35.202  12.495  12.571  0.00  0.00     0.037 A 
HETATM   12  C   UNK N   1      35.405  13.517  11.647  0.00  0.00     0.011 A 
BRANCH  10  13
HETATM   13  O   UNK N   1      35.440  11.689  14.822  0.00  0.00    -0.351 OA
BRANCH  13  14
HETATM   14  C   UNK N   1      36.146  11.626  16.008  0.00  0.00     0.179 C 
BRANCH  14  15
HETATM   15  C   UNK N   1      35.204  11.692  17.209  0.00  0.00     0.002 C 
HETATM   16  C   UNK N   1      35.684  10.808  18.344  0.00  0.00     0.011 C 
HETATM   17  C   UNK N   1      35.046  13.122  17.694  0.00  0.00     0.011 C 
ENDBRANCH  14  15
ENDBRANCH  13  14
ENDBRANCH  10  13
ENDBRANCH   6   7
ENDBRANCH   1   6
BRANCH   4  18
HETATM   18  C   UNK N   1      32.653  16.756   7.949  0.00  0.00     0.166 C 
BRANCH  18  19
HETATM   19  C   UNK N   1      32.482  16.885   6.465  0.00  0.00    -0.040 A 
HETATM   20  C   UNK N   1      31.292  16.439   5.882  0.00  0.00     0.012 A 
HETATM   21  C   UNK N   1      31.097  16.562   4.504  0.00  0.00     0.043 A 
HETATM   22  C   UNK N   1      32.091  17.132   3.705  0.00  0.00     0.116 A 
HETATM   23  F   UNK N   1      31.893  17.260   2.372  0.00  0.00    -0.206 F 
HETATM   24  C   UNK N   1      33.289  17.568   4.282  0.00  0.00     0.043 A 
HETATM   25  C   UNK N   1      33.488  17.439   5.660  0.00  0.00     0.012 A 
ENDBRANCH  18  19
ENDBRANCH   4  18
BRANCH   4  26
HETATM   26  C   UNK N   1      33.663  14.413   7.938  0.00  0.00     0.092 C 
HETATM   27  C   UNK N   1      34.888  13.979   7.134  0.00  0.00     0.055 C 
HETATM   28  C   UNK N   1      34.625  12.616   6.450  0.00  0.00     0.274 C 
HETATM   29  N   UNK N   1      33.356  12.008   6.873  0.00  0.00     0.084 N 
HETATM   30  C   UNK N   1      33.299  10.657   6.350  0.00  0.00     0.309 C 
HETATM   31  C   UNK N   1      33.338  11.915   8.329  0.00  0.00     0.274 C 
HETATM   32  C   UNK N   1      33.303  13.311   8.951  0.00  0.00     0.055 C 
ENDBRANCH   4  26
TORSDOF 8
ENDMDL
MODEL 6
REMARK VINA RESULT:      -6.8     11.978     16.426
REMARK  8 active torsions:
REMARK  status: ('A' for Active; 'I' for Inactive)
REMARK    1  A    between atoms: C_2  and  C_4 
REMARK    2  A    between atoms: C_4  and  O_5 
REMARK    3  A    between atoms: O_5  and  C_6 
REMARK    4  A    between atoms: C_9  and  C_10 
REMARK    5  A    between atoms: C_10  and  N_11 
REMARK       I    between atoms: N_11  and  C_12 
REMARK       I    between atoms: C_12  and  N_14 
REMARK    6  A    between atoms: N_14  and  C_15 
REMARK    7  A    between atoms: N_14  and  C_23 
REMARK    8  A    between atoms: C_15  and  C_16 
ROOT
HETATM    1  N   UNK N   1      34.637  14.176  11.587  0.00  0.00    -0.339 N 
HETATM    2  C   UNK N   1      35.527  14.000  12.587  0.00  0.00     0.319 C 
HETATM    3  O   UNK N   1      36.006  14.981  13.144  0.00  0.00    -0.247 OA
HETATM    4  N   UNK N   1      35.923  12.732  12.955  0.00  0.00    -0.325 N 
HETATM    5  H   UNK N   1      34.150  13.382  11.269  0.00  0.00     0.164 HD
ENDROOT
BRANCH   1   6
HETATM    6  C   UNK N   1      34.346  15.433  10.948  0.00  0.00     0.162 C 
BRANCH   6   7
HETATM    7  C   UNK N   1      34.155  15.154   9.485  0.00  0.00    -0.040 A 
HETATM    8  C   UNK N   1      34.777  15.958   8.526  0.00  0.00     0.011 A 
HETATM    9  C   UNK N   1      34.507  15.758   7.166  0.00  0.00     0.037 A 
HETATM   10  C   UNK N   1      33.600  14.772   6.757  0.00  0.00     0.068 A 
HETATM   11  C   UNK N   1      32.992  13.954   7.719  0.00  0.00     0.037 A 
HETATM   12  C   UNK N   1      33.273  14.142   9.069  0.00  0.00     0.011 A 
BRANCH  10  13
HETATM   13  O   UNK N   1      33.326  14.636   5.439  0.00  0.00    -0.351 OA
BRANCH  13  14
HETATM   14  C   UNK N   1      33.984  15.328   4.441  0.00  0.00     0.179 C 
BRANCH  14  15
HETATM   15  C   UNK N   1      33.011  16.194   3.644  0.00  0.00     0.002 C 
HETATM   16  C   UNK N   1      31.673  15.504   3.459  0.00  0.00     0.011 C 
HETATM   17  C   UNK N   1      32.812  17.542   4.314  0.00  0.00     0.011 C 
ENDBRANCH  14  15
ENDBRANCH  13  14
ENDBRANCH  10  13
ENDBRANCH   6   7
ENDBRANCH   1   6
BRANCH   4  18
HETATM   18  C   UNK N   1      36.905  12.637  14.039  0.00  0.00     0.166 C 
BRANCH  18  19
HETATM   19  C   UNK N   1      36.378  12.214  15.377  0.00  0.00    -0.040 A 
HETATM   20  C   UNK N   1      35.701  13.153  16.161  0.00  0.00     0.012 A 
HETATM   21  C   UNK N   1      35.183  12.784  17.405  0.00  0.00     0.043 A 
HETATM   22  C   UNK N   1      35.341  11.476  17.869  0.00  0.00     0.116 A 
HETATM   23  F   UNK N   1      34.828  11.119  19.070  0.00  0.00    -0.206 F 
HETATM   24  C   UNK N   1      36.030  10.537  17.093  0.00  0.00     0.043 A 
HETATM   25  C   UNK N   1      36.554  10.906  15.851  0.00  0.00     0.012 A 
ENDBRANCH  18  19
ENDBRANCH   4  18
BRANCH   4  26
HETATM   26  C   UNK N   1      35.505  11.509  12.229  0.00  0.00     0.092 C 
HETATM   27  C   UNK N   1      36.629  10.514  11.940  0.00  0.00     0.055 C 
HETATM   28  C   UNK N   1      36.150   9.444  10.929  0.00  0.00     0.274 C 
HETATM   29  N   UNK N   1      34.713   9.547  10.637  0.00  0.00     0.084 N 
HETATM   30  C   UNK N   1      34.322   8.388   9.857  0.00  0.00     0.309 C 
HETATM   31  C   UNK N   1      33.970   9.502  11.891  0.00  0.00     0.274 C 
HETATM   32  C   UNK N   1      34.265  10.746  12.729  0.00  0.00     0.055 C 
ENDBRANCH   4  26
TORSDOF 8
ENDMDL
MODEL 7
REMARK VINA RESULT:      -6.7     14.166     15.688
REMARK  8 active torsions:
REMARK  status: ('A' for Active; 'I' for Inactive)
REMARK    1  A    between atoms: C_2  and  C_4 
REMARK    2  A    between atoms: C_4  and  O_5 
REMARK    3  A    between atoms: O_5  and  C_6 
REMARK    4  A    between atoms: C_9  and  C_10 
REMARK    5  A    between atoms: C_10  and  N_11 
REMARK       I    between atoms: N_11  and  C_12 
REMARK       I    between atoms: C_12  and  N_14 
REMARK    6  A    between atoms: N_14  and  C_15 
REMARK    7  A    between atoms: N_14  and  C_23 
REMARK    8  A    between atoms: C_15  and  C_16 
ROOT
HETATM    1  N   UNK N   1      29.596  22.949  -3.719  0.00  0.00    -0.339 N 
HETATM    2  C   UNK N   1      28.425  23.588  -3.516  0.00  0.00     0.319 C 
HETATM    3  O   UNK N   1      28.097  23.895  -2.376  0.00  0.00    -0.247 OA
HETATM    4  N   UNK N   1      27.585  23.861  -4.575  0.00  0.00    -0.325 N 
HETATM    5  H   UNK N   1      29.908  22.859  -4.647  0.00  0.00     0.164 HD
ENDROOT
BRANCH   1   6
HETATM    6  C   UNK N   1      30.423  22.387  -2.683  0.00  0.00     0.162 C 
BRANCH   6   7
HETATM    7  C   UNK N   1      31.400  21.459  -3.348  0.00  0.00    -0.040 A 
HETATM    8  C   UNK N   1      32.716  21.374  -2.890  0.00  0.00     0.011 A 
HETATM    9  C   UNK N   1      33.647  20.589  -3.583  0.00  0.00     0.037 A 
HETATM   10  C   UNK N   1      33.275  19.905  -4.748  0.00  0.00     0.068 A 
HETATM   11  C   UNK N   1      31.949  19.976  -5.195  0.00  0.00     0.037 A 
HETATM   12  C   UNK N   1      31.021  20.743  -4.496  0.00  0.00     0.011 A 
BRANCH  10  13
HETATM   13  O   UNK N   1      34.210  19.193  -5.420  0.00  0.00    -0.351 OA
BRANCH  13  14
HETATM   14  C   UNK N   1      35.425  18.819  -4.881  0.00  0.00     0.179 C 
BRANCH  14  15
HETATM   15  C   UNK N   1      35.598  17.301  -4.923  0.00  0.00     0.002 C 
HETATM   16  C   UNK N   1      34.795  16.618  -3.833  0.00  0.00     0.011 C 
HETATM   17  C   UNK N   1      35.204  16.750  -6.282  0.00  0.00     0.011 C 
ENDBRANCH  14  15
ENDBRANCH  13  14
ENDBRANCH  10  13
ENDBRANCH   6   7
ENDBRANCH   1   6
BRANCH   4  18
HETATM   18  C   UNK N   1      26.326  24.543  -4.259  0.00  0.00     0.166 C 
BRANCH  18  19
HETATM   19  C   UNK N   1      26.337  26.038  -4.368  0.00  0.00    -0.040 A 
HETATM   20  C   UNK N   1      26.321  26.799  -3.195  0.00  0.00     0.012 A 
HETATM   21  C   UNK N   1      26.348  28.194  -3.263  0.00  0.00     0.043 A 
HETATM   22  C   UNK N   1      26.390  28.832  -4.505  0.00  0.00     0.116 A 
HETATM   23  F   UNK N   1      26.428  30.184  -4.567  0.00  0.00    -0.206 F 
HETATM   24  C   UNK N   1      26.392  28.076  -5.682  0.00  0.00     0.043 A 
HETATM   25  C   UNK N   1      26.358  26.680  -5.615  0.00  0.00     0.012 A 
ENDBRANCH  18  19
ENDBRANCH   4  18
BRANCH   4  26
HETATM   26  C   UNK N   1      27.841  23.386  -5.956  0.00  0.00     0.092 C 
HETATM   27  C   UNK N   1      26.597  22.948  -6.729  0.00  0.00     0.055 C 
HETATM   28  C   UNK N   1      27.004  22.197  -8.019  0.00  0.00     0.274 C 
HETATM   29  N   UNK N   1      28.453  22.241  -8.263  0.00  0.00     0.084 N 
HETATM   30  C   UNK N   1      28.711  21.701  -9.585  0.00  0.00     0.309 C 
HETATM   31  C   UNK N   1      28.891  23.631  -8.265  0.00  0.00     0.274 C 
HETATM   32  C   UNK N   1      28.735  24.241  -6.872  0.00  0.00     0.055 C 
ENDBRANCH   4  26
TORSDOF 8
ENDMDL
MODEL 8
REMARK VINA RESULT:      -6.7     14.319     15.854
REMARK  8 active torsions:
REMARK  status: ('A' for Active; 'I' for Inactive)
REMARK    1  A    between atoms: C_2  and  C_4 
REMARK    2  A    between atoms: C_4  and  O_5 
REMARK    3  A    between atoms: O_5  and  C_6 
REMARK    4  A    between atoms: C_9  and  C_10 
REMARK    5  A    between atoms: C_10  and  N_11 
REMARK       I    between atoms: N_11  and  C_12 
REMARK       I    between atoms: C_12  and  N_14 
REMARK    6  A    between atoms: N_14  and  C_15 
REMARK    7  A    between atoms: N_14  and  C_23 
REMARK    8  A    between atoms: C_15  and  C_16 
ROOT
HETATM    1  N   UNK N   1      28.432  23.564  -4.333  0.00  0.00    -0.339 N 
HETATM    2  C   UNK N   1      27.466  24.506  -4.308  0.00  0.00     0.319 C 
HETATM    3  O   UNK N   1      27.283  25.151  -3.283  0.00  0.00    -0.247 OA
HETATM    4  N   UNK N   1      26.667  24.717  -5.411  0.00  0.00    -0.325 N 
HETATM    5  H   UNK N   1      28.665  23.177  -5.207  0.00  0.00     0.164 HD
ENDROOT
BRANCH   1   6
HETATM    6  C   UNK N   1      29.147  23.079  -3.181  0.00  0.00     0.162 C 
BRANCH   6   7
HETATM    7  C   UNK N   1      30.242  22.182  -3.683  0.00  0.00    -0.040 A 
HETATM    8  C   UNK N   1      30.080  21.466  -4.871  0.00  0.00     0.011 A 
HETATM    9  C   UNK N   1      31.061  20.551  -5.274  0.00  0.00     0.037 A 
HETATM   10  C   UNK N   1      32.196  20.329  -4.483  0.00  0.00     0.068 A 
HETATM   11  C   UNK N   1      32.367  21.061  -3.302  0.00  0.00     0.037 A 
HETATM   12  C   UNK N   1      31.399  21.983  -2.910  0.00  0.00     0.011 A 
BRANCH  10  13
HETATM   13  O   UNK N   1      33.102  19.403  -4.878  0.00  0.00    -0.351 OA
BRANCH  13  14
HETATM   14  C   UNK N   1      34.231  19.075  -4.154  0.00  0.00     0.179 C 
BRANCH  14  15
HETATM   15  C   UNK N   1      35.490  19.616  -4.830  0.00  0.00     0.002 C 
HETATM   16  C   UNK N   1      35.352  19.627  -6.340  0.00  0.00     0.011 C 
HETATM   17  C   UNK N   1      35.816  21.012  -4.328  0.00  0.00     0.011 C 
ENDBRANCH  14  15
ENDBRANCH  13  14
ENDBRANCH  10  13
ENDBRANCH   6   7
ENDBRANCH   1   6
BRANCH   4  18
HETATM   18  C   UNK N   1      25.632  25.748  -5.288  0.00  0.00     0.166 C 
BRANCH  18  19
HETATM   19  C   UNK N   1      26.117  27.160  -5.151  0.00  0.00    -0.040 A 
HETATM   20  C   UNK N   1      25.611  27.948  -4.113  0.00  0.00     0.012 A 
HETATM   21  C   UNK N   1      26.055  29.262  -3.948  0.00  0.00     0.043 A 
HETATM   22  C   UNK N   1      27.008  29.792  -4.823  0.00  0.00     0.116 A 
HETATM   23  F   UNK N   1      27.445  31.062  -4.653  0.00  0.00    -0.206 F 
HETATM   24  C   UNK N   1      27.507  29.012  -5.871  0.00  0.00     0.043 A 
HETATM   25  C   UNK N   1      27.057  27.699  -6.041  0.00  0.00     0.012 A 
ENDBRANCH  18  19
ENDBRANCH   4  18
BRANCH   4  26
HETATM   26  C   UNK N   1      26.728  23.874  -6.630  0.00  0.00     0.092 C 
HETATM   27  C   UNK N   1      25.734  22.712  -6.662  0.00  0.00     0.055 C 
HETATM   28  C   UNK N   1      26.087  21.737  -7.810  0.00  0.00     0.274 C 
HETATM   29  N   UNK N   1      27.162  22.248  -8.674  0.00  0.00     0.084 N 
HETATM   30  C   UNK N   1      27.274  21.376  -9.828  0.00  0.00     0.309 C 
HETATM   31  C   UNK N   1      26.790  23.572  -9.160  0.00  0.00     0.274 C 
HETATM   32  C   UNK N   1      26.742  24.570  -8.003  0.00  0.00     0.055 C 
ENDBRANCH   4  26
TORSDOF 8
ENDMDL
MODEL 9
REMARK VINA RESULT:      -6.7     13.760     16.375
REMARK  8 active torsions:
REMARK  status: ('A' for Active; 'I' for Inactive)
REMARK    1  A    between atoms: C_2  and  C_4 
REMARK    2  A    between atoms: C_4  and  O_5 
REMARK    3  A    between atoms: O_5  and  C_6 
REMARK    4  A    between atoms: C_9  and  C_10 
REMARK    5  A    between atoms: C_10  and  N_11 
REMARK       I    between atoms: N_11  and  C_12 
REMARK       I    between atoms: C_12  and  N_14 
REMARK    6  A    between atoms: N_14  and  C_15 
REMARK    7  A    between atoms: N_14  and  C_23 
REMARK    8  A    between atoms: C_15  and  C_16 
ROOT
HETATM    1  N   UNK N   1      35.957  13.006  15.052  0.00  0.00    -0.339 N 
HETATM    2  C   UNK N   1      36.374  13.638  13.934  0.00  0.00     0.319 C 
HETATM    3  O   UNK N   1      36.576  14.846  13.967  0.00  0.00    -0.247 OA
HETATM    4  N   UNK N   1      36.535  12.940  12.756  0.00  0.00    -0.325 N 
HETATM    5  H   UNK N   1      35.958  12.023  15.043  0.00  0.00     0.164 HD
ENDROOT
BRANCH   1   6
HETATM    6  C   UNK N   1      35.509  13.659  16.255  0.00  0.00     0.162 C 
BRANCH   6   7
HETATM    7  C   UNK N   1      35.368  12.600  17.310  0.00  0.00    -0.040 A 
HETATM    8  C   UNK N   1      35.269  11.254  16.950  0.00  0.00     0.011 A 
HETATM    9  C   UNK N   1      35.029  10.284  17.932  0.00  0.00     0.037 A 
HETATM   10  C   UNK N   1      34.864  10.654  19.273  0.00  0.00     0.068 A 
HETATM   11  C   UNK N   1      34.983  12.002  19.635  0.00  0.00     0.037 A 
HETATM   12  C   UNK N   1      35.238  12.963  18.661  0.00  0.00     0.011 A 
BRANCH  10  13
HETATM   13  O   UNK N   1      34.587   9.698  20.190  0.00  0.00    -0.351 OA
BRANCH  13  14
HETATM   14  C   UNK N   1      33.770   8.611  19.945  0.00  0.00     0.179 C 
BRANCH  14  15
HETATM   15  C   UNK N   1      32.570   8.606  20.890  0.00  0.00     0.002 C 
HETATM   16  C   UNK N   1      32.538   9.849  21.759  0.00  0.00     0.011 C 
HETATM   17  C   UNK N   1      31.271   8.482  20.113  0.00  0.00     0.011 C 
ENDBRANCH  14  15
ENDBRANCH  13  14
ENDBRANCH  10  13
ENDBRANCH   6   7
ENDBRANCH   1   6
BRANCH   4  18
HETATM   18  C   UNK N   1      36.975  13.710  11.589  0.00  0.00     0.166 C 
BRANCH  18  19
HETATM   19  C   UNK N   1      35.916  14.499  10.878  0.00  0.00    -0.040 A 
HETATM   20  C   UNK N   1      36.047  15.889  10.805  0.00  0.00     0.012 A 
HETATM   21  C   UNK N   1      35.086  16.649  10.134  0.00  0.00     0.043 A 
HETATM   22  C   UNK N   1      33.991  16.021   9.534  0.00  0.00     0.116 A 
HETATM   23  F   UNK N   1      33.068  16.760   8.875  0.00  0.00    -0.206 F 
HETATM   24  C   UNK N   1      33.849  14.632   9.616  0.00  0.00     0.043 A 
HETATM   25  C   UNK N   1      34.807  13.871  10.293  0.00  0.00     0.012 A 
ENDBRANCH  18  19
ENDBRANCH   4  18
BRANCH   4  26
HETATM   26  C   UNK N   1      36.164  11.513  12.602  0.00  0.00     0.092 C 
HETATM   27  C   UNK N   1      34.662  11.231  12.622  0.00  0.00     0.055 C 
HETATM   28  C   UNK N   1      34.404   9.711  12.762  0.00  0.00     0.274 C 
HETATM   29  N   UNK N   1      35.639   8.919  12.668  0.00  0.00     0.084 N 
HETATM   30  C   UNK N   1      35.277   7.516  12.597  0.00  0.00     0.309 C 
HETATM   31  C   UNK N   1      36.325   9.257  11.427  0.00  0.00     0.274 C 
HETATM   32  C   UNK N   1      36.819  10.703  11.468  0.00  0.00     0.055 C 
ENDBRANCH   4  26
TORSDOF 8
ENDMDL
