REMARK  24 active torsions:
REMARK  status: ('A' for Active; 'I' for Inactive)
REMARK    1  A    between atoms: N_4  and  C_6 
REMARK    2  A    between atoms: N_4  and  C_9 
REMARK    3  A    between atoms: N_5  and  C_23 
REMARK    4  A    between atoms: C_6  and  C_7 
REMARK    5  A    between atoms: C_7  and  C_8 
REMARK    6  A    between atoms: C_8  and  C_10 
REMARK    7  A    between atoms: C_9  and  C_20 
REMARK    8  A    between atoms: C_10  and  C_13 
REMARK    9  A    between atoms: C_13  and  C_14 
REMARK   10  A    between atoms: C_14  and  C_15 
REMARK   11  A    between atoms: C_15  and  C_16 
REMARK   12  A    between atoms: C_16  and  C_25 
REMARK   13  A    between atoms: C_17  and  C_18 
REMARK   14  A    between atoms: C_17  and  C_19 
REMARK   15  A    between atoms: C_18  and  C_21 
REMARK   16  A    between atoms: C_19  and  C_22 
REMARK   17  A    between atoms: C_21  and  C_23 
REMARK   18  A    between atoms: C_22  and  C_24 
REMARK   19  A    between atoms: C_24  and  C_26 
REMARK   20  A    between atoms: C_25  and  C_28 
REMARK   21  A    between atoms: C_26  and  C_27 
REMARK   22  A    between atoms: C_27  and  C_29 
REMARK   23  A    between atoms: C_28  and  C_32 
REMARK   24  A    between atoms: C_29  and  C_33 
ROOT
HETATM    1  C   UNK N   1       3.803   5.814  -0.314  0.00  0.00     0.000 C 
ENDROOT
BRANCH   1   2
HETATM    2  C   UNK N   1       2.778   6.932  -0.336  0.00  0.00     0.002 C 
BRANCH   2   3
HETATM    3  C   UNK N   1       1.503   6.485   0.345  0.00  0.00     0.036 C 
BRANCH   3   4
HETATM    4  C   UNK N   1       0.661   5.644  -0.612  0.00  0.00     0.311 C 
BRANCH   4   5
HETATM    5  N   UNK N   1      -0.353   4.848   0.081  0.00  0.00     0.005 N 
HETATM    6  O   UNK N   1      -1.062   4.170  -0.852  0.00  0.00    -0.065 OA
HETATM    7  C   UNK N   1       0.267   3.880   0.972  0.00  0.00     0.355 C 
HETATM    8  C   UNK N   1      -1.277   5.686   0.829  0.00  0.00     0.355 C 
ENDBRANCH   4   5
ENDBRANCH   3   4
ENDBRANCH   2   3
ENDBRANCH   1   2
BRANCH   1   9
HETATM    9  C   UNK N   1       5.124   6.412   0.107  0.00  0.00     0.000 C 
BRANCH   9  10
HETATM   10  C   UNK N   1       6.264   5.436  -0.084  0.00  0.00     0.000 C 
BRANCH  10  11
HETATM   11  C   UNK N   1       7.538   6.226   0.104  0.00  0.00     0.000 C 
BRANCH  11  12
HETATM   12  C   UNK N   1       8.773   5.374  -0.079  0.00  0.00     0.000 C 
BRANCH  12  13
HETATM   13  C   UNK N   1       9.961   6.306   0.019  0.00  0.00     0.000 C 
BRANCH  13  14
HETATM   14  C   UNK N   1      11.269   5.552  -0.055  0.00  0.00    -0.000 C 
BRANCH  14  15
HETATM   15  C   UNK N   1      12.394   6.564   0.023  0.00  0.00    -0.005 C 
HETATM   16  C   UNK N   1      13.735   5.866  -0.014  0.00  0.00     0.005 C 
ENDBRANCH  14  15
ENDBRANCH  13  14
ENDBRANCH  12  13
ENDBRANCH  11  12
ENDBRANCH  10  11
ENDBRANCH   9  10
ENDBRANCH   1   9
TORSDOF 24
