MODEL 1
REMARK VINA RESULT:      -5.9      0.000      0.000
REMARK  15 active torsions:
REMARK  status: ('A' for Active; 'I' for Inactive)
REMARK    1  A    between atoms: S_1  and  C_17 
REMARK    2  A    between atoms: S_1  and  C_21 
REMARK    3  A    between atoms: O_4  and  C_19 
REMARK    4  A    between atoms: O_6  and  C_21 
REMARK    5  A    between atoms: O_7  and  C_22 
REMARK    6  A    between atoms: N_9  and  C_12 
REMARK       I    between atoms: N_9  and  C_16 
REMARK       I    between atoms: N_10  and  C_18 
REMARK    7  A    between atoms: N_10  and  C_20 
REMARK    8  A    between atoms: N_11  and  C_15 
REMARK    9  A    between atoms: C_12  and  C_17 
REMARK   10  A    between atoms: C_12  and  C_18 
REMARK   11  A    between atoms: C_13  and  C_14 
REMARK   12  A    between atoms: C_13  and  C_15 
REMARK   13  A    between atoms: C_14  and  C_16 
REMARK   14  A    between atoms: C_15  and  C_19 
REMARK   15  A    between atoms: C_20  and  C_22 
ROOT
HETATM    1  C   UNK N   1      19.664  16.110   7.484  0.00  0.00     0.185 C 
ENDROOT
BRANCH   1   2
HETATM    2  N   UNK N   1      20.609  15.067   7.816  0.00  0.00    -0.347 N 
HETATM    3  C   UNK N   1      20.463  14.232   8.870  0.00  0.00     0.218 C 
HETATM    4  O   UNK N   1      19.522  14.350   9.639  0.00  0.00    -0.274 OA
HETATM    5  H   UNK N   1      21.402  14.959   7.244  0.00  0.00     0.163 HD
BRANCH   3   6
HETATM    6  C   UNK N   1      21.422  13.094   9.013  0.00  0.00     0.105 C 
BRANCH   6   7
HETATM    7  C   UNK N   1      22.362  13.236  10.201  0.00  0.00     0.044 C 
BRANCH   7   8
HETATM    8  C   UNK N   1      22.415  11.987  11.079  0.00  0.00     0.173 C 
BRANCH   8   9
HETATM    9  N   UNK N   1      21.126  11.833  11.733  0.00  0.00    -0.418 N 
HETATM   10  H   UNK N   1      20.366  11.327  11.279  0.00  0.00     0.150 HD
HETATM   11  H   UNK N   1      20.981  12.236  12.659  0.00  0.00     0.150 HD
ENDBRANCH   8   9
BRANCH   8  12
HETATM   12  C   UNK N   1      23.521  12.046  12.105  0.00  0.00     0.163 C 
HETATM   13  O   UNK N   1      23.261  11.919  13.290  0.00  0.00    -0.648 OA
BRANCH  12  14
HETATM   14  O   UNK N   1      24.794  12.270  11.727  0.00  0.00    -0.775 OA
HETATM   15  H   UNK N   1      25.075  12.043  10.862  0.00  0.00     0.167 HD
ENDBRANCH  12  14
ENDBRANCH   8  12
ENDBRANCH   7   8
ENDBRANCH   6   7
ENDBRANCH   3   6
ENDBRANCH   1   2
BRANCH   1  16
HETATM   16  C   UNK N   1      19.304  15.929   6.019  0.00  0.00     0.111 C 
BRANCH  16  17
HETATM   17  S   UNK N   1      20.305  14.596   5.290  0.00  0.00    -0.141 SA
BRANCH  17  18
HETATM   18  C   UNK N   1      18.872  13.736   4.582  0.00  0.00     0.238 C 
BRANCH  18  19
HETATM   19  O   UNK N   1      18.962  12.373   4.864  0.00  0.00    -0.391 OA
HETATM   20  H   UNK N   1      18.641  11.909   5.654  0.00  0.00     0.210 HD
ENDBRANCH  18  19
ENDBRANCH  17  18
ENDBRANCH  16  17
ENDBRANCH   1  16
BRANCH   1  21
HETATM   21  C   UNK N   1      20.273  17.482   7.734  0.00  0.00     0.241 C 
HETATM   22  O   UNK N   1      21.202  17.861   7.042  0.00  0.00    -0.271 OA
HETATM   23  N   UNK N   1      19.807  18.307   8.711  0.00  0.00    -0.349 N 
HETATM   24  H   UNK N   1      20.253  19.175   8.836  0.00  0.00     0.163 HD
BRANCH  23  25
HETATM   25  C   UNK N   1      18.699  17.980   9.575  0.00  0.00     0.232 C 
BRANCH  25  26
HETATM   26  C   UNK N   1      18.484  19.091  10.555  0.00  0.00     0.158 C 
HETATM   27  O   UNK N   1      19.439  19.713  10.992  0.00  0.00    -0.649 OA
BRANCH  26  28
HETATM   28  O   UNK N   1      17.240  19.401  10.967  0.00  0.00    -0.775 OA
HETATM   29  H   UNK N   1      16.460  19.075  10.563  0.00  0.00     0.167 HD
ENDBRANCH  26  28
ENDBRANCH  25  26
ENDBRANCH  23  25
ENDBRANCH   1  21
TORSDOF 15
ENDMDL
MODEL 2
REMARK VINA RESULT:      -5.7      2.084      2.460
REMARK  15 active torsions:
REMARK  status: ('A' for Active; 'I' for Inactive)
REMARK    1  A    between atoms: S_1  and  C_17 
REMARK    2  A    between atoms: S_1  and  C_21 
REMARK    3  A    between atoms: O_4  and  C_19 
REMARK    4  A    between atoms: O_6  and  C_21 
REMARK    5  A    between atoms: O_7  and  C_22 
REMARK    6  A    between atoms: N_9  and  C_12 
REMARK       I    between atoms: N_9  and  C_16 
REMARK       I    between atoms: N_10  and  C_18 
REMARK    7  A    between atoms: N_10  and  C_20 
REMARK    8  A    between atoms: N_11  and  C_15 
REMARK    9  A    between atoms: C_12  and  C_17 
REMARK   10  A    between atoms: C_12  and  C_18 
REMARK   11  A    between atoms: C_13  and  C_14 
REMARK   12  A    between atoms: C_13  and  C_15 
REMARK   13  A    between atoms: C_14  and  C_16 
REMARK   14  A    between atoms: C_15  and  C_19 
REMARK   15  A    between atoms: C_20  and  C_22 
ROOT
HETATM    1  C   UNK N   1      20.885  16.370   6.502  0.00  0.00     0.185 C 
ENDROOT
BRANCH   1   2
HETATM    2  N   UNK N   1      21.966  15.605   7.082  0.00  0.00    -0.347 N 
HETATM    3  C   UNK N   1      21.835  14.328   7.509  0.00  0.00     0.218 C 
HETATM    4  O   UNK N   1      20.755  13.758   7.465  0.00  0.00    -0.274 OA
HETATM    5  H   UNK N   1      22.847  16.036   7.171  0.00  0.00     0.163 HD
BRANCH   3   6
HETATM    6  C   UNK N   1      23.064  13.593   7.941  0.00  0.00     0.105 C 
BRANCH   6   7
HETATM    7  C   UNK N   1      22.780  12.439   8.890  0.00  0.00     0.044 C 
BRANCH   7   8
HETATM    8  C   UNK N   1      22.621  12.881  10.344  0.00  0.00     0.173 C 
BRANCH   8   9
HETATM    9  N   UNK N   1      23.773  12.409  11.093  0.00  0.00    -0.418 N 
HETATM   10  H   UNK N   1      23.872  11.423  11.335  0.00  0.00     0.150 HD
HETATM   11  H   UNK N   1      24.492  13.072  11.382  0.00  0.00     0.150 HD
ENDBRANCH   8   9
BRANCH   8  12
HETATM   12  C   UNK N   1      21.344  12.372  10.968  0.00  0.00     0.163 C 
HETATM   13  O   UNK N   1      20.265  12.690  10.497  0.00  0.00    -0.648 OA
BRANCH  12  14
HETATM   14  O   UNK N   1      21.382  11.591  12.066  0.00  0.00    -0.775 OA
HETATM   15  H   UNK N   1      22.194  11.446  12.512  0.00  0.00     0.167 HD
ENDBRANCH  12  14
ENDBRANCH   8  12
ENDBRANCH   7   8
ENDBRANCH   6   7
ENDBRANCH   3   6
ENDBRANCH   1   2
BRANCH   1  16
HETATM   16  C   UNK N   1      21.239  16.596   5.041  0.00  0.00     0.111 C 
BRANCH  16  17
HETATM   17  S   UNK N   1      19.735  16.552   4.019  0.00  0.00    -0.141 SA
BRANCH  17  18
HETATM   18  C   UNK N   1      18.959  15.232   4.994  0.00  0.00     0.238 C 
BRANCH  18  19
HETATM   19  O   UNK N   1      17.689  15.639   5.400  0.00  0.00    -0.391 OA
HETATM   20  H   UNK N   1      17.336  15.664   6.304  0.00  0.00     0.210 HD
ENDBRANCH  18  19
ENDBRANCH  17  18
ENDBRANCH  16  17
ENDBRANCH   1  16
BRANCH   1  21
HETATM   21  C   UNK N   1      20.713  17.691   7.236  0.00  0.00     0.241 C 
HETATM   22  O   UNK N   1      21.308  18.680   6.840  0.00  0.00    -0.271 OA
HETATM   23  N   UNK N   1      19.906  17.807   8.325  0.00  0.00    -0.349 N 
HETATM   24  H   UNK N   1      19.848  18.685   8.768  0.00  0.00     0.163 HD
BRANCH  23  25
HETATM   25  C   UNK N   1      19.133  16.719   8.870  0.00  0.00     0.232 C 
BRANCH  25  26
HETATM   26  C   UNK N   1      17.678  17.065   8.823  0.00  0.00     0.158 C 
HETATM   27  O   UNK N   1      17.155  17.629   9.771  0.00  0.00    -0.649 OA
BRANCH  26  28
HETATM   28  O   UNK N   1      16.939  16.747   7.744  0.00  0.00    -0.775 OA
HETATM   29  H   UNK N   1      17.037  17.155   6.906  0.00  0.00     0.167 HD
ENDBRANCH  26  28
ENDBRANCH  25  26
ENDBRANCH  23  25
ENDBRANCH   1  21
TORSDOF 15
ENDMDL
MODEL 3
REMARK VINA RESULT:      -5.6     10.524     13.123
REMARK  15 active torsions:
REMARK  status: ('A' for Active; 'I' for Inactive)
REMARK    1  A    between atoms: S_1  and  C_17 
REMARK    2  A    between atoms: S_1  and  C_21 
REMARK    3  A    between atoms: O_4  and  C_19 
REMARK    4  A    between atoms: O_6  and  C_21 
REMARK    5  A    between atoms: O_7  and  C_22 
REMARK    6  A    between atoms: N_9  and  C_12 
REMARK       I    between atoms: N_9  and  C_16 
REMARK       I    between atoms: N_10  and  C_18 
REMARK    7  A    between atoms: N_10  and  C_20 
REMARK    8  A    between atoms: N_11  and  C_15 
REMARK    9  A    between atoms: C_12  and  C_17 
REMARK   10  A    between atoms: C_12  and  C_18 
REMARK   11  A    between atoms: C_13  and  C_14 
REMARK   12  A    between atoms: C_13  and  C_15 
REMARK   13  A    between atoms: C_14  and  C_16 
REMARK   14  A    between atoms: C_15  and  C_19 
REMARK   15  A    between atoms: C_20  and  C_22 
ROOT
HETATM    1  C   UNK N   1      32.775  16.816   7.723  0.00  0.00     0.185 C 
ENDROOT
BRANCH   1   2
HETATM    2  N   UNK N   1      31.656  17.672   8.050  0.00  0.00    -0.347 N 
HETATM    3  C   UNK N   1      30.397  17.461   7.603  0.00  0.00     0.218 C 
HETATM    4  O   UNK N   1      30.145  16.536   6.846  0.00  0.00    -0.274 OA
HETATM    5  H   UNK N   1      31.819  18.451   8.628  0.00  0.00     0.163 HD
BRANCH   3   6
HETATM    6  C   UNK N   1      29.298  18.323   8.141  0.00  0.00     0.105 C 
BRANCH   6   7
HETATM    7  C   UNK N   1      28.114  18.457   7.196  0.00  0.00     0.044 C 
BRANCH   7   8
HETATM    8  C   UNK N   1      27.834  19.902   6.785  0.00  0.00     0.173 C 
BRANCH   8   9
HETATM    9  N   UNK N   1      26.591  20.322   7.410  0.00  0.00    -0.418 N 
HETATM   10  H   UNK N   1      26.259  19.877   8.265  0.00  0.00     0.150 HD
HETATM   11  H   UNK N   1      26.043  21.072   6.987  0.00  0.00     0.150 HD
ENDBRANCH   8   9
BRANCH   8  12
HETATM   12  C   UNK N   1      27.752  20.073   5.287  0.00  0.00     0.163 C 
HETATM   13  O   UNK N   1      26.980  20.886   4.807  0.00  0.00    -0.648 OA
BRANCH  12  14
HETATM   14  O   UNK N   1      28.504  19.310   4.469  0.00  0.00    -0.775 OA
HETATM   15  H   UNK N   1      28.582  18.390   4.625  0.00  0.00     0.167 HD
ENDBRANCH  12  14
ENDBRANCH   8  12
ENDBRANCH   7   8
ENDBRANCH   6   7
ENDBRANCH   3   6
ENDBRANCH   1   2
BRANCH   1  16
HETATM   16  C   UNK N   1      33.437  16.436   9.037  0.00  0.00     0.111 C 
BRANCH  16  17
HETATM   17  S   UNK N   1      34.525  14.998   8.795  0.00  0.00    -0.141 SA
BRANCH  17  18
HETATM   18  C   UNK N   1      34.283  14.372  10.482  0.00  0.00     0.238 C 
BRANCH  18  19
HETATM   19  O   UNK N   1      33.231  15.060  11.086  0.00  0.00    -0.391 OA
HETATM   20  H   UNK N   1      32.940  15.969  10.912  0.00  0.00     0.210 HD
ENDBRANCH  18  19
ENDBRANCH  17  18
ENDBRANCH  16  17
ENDBRANCH   1  16
BRANCH   1  21
HETATM   21  C   UNK N   1      33.750  17.539   6.807  0.00  0.00     0.241 C 
HETATM   22  O   UNK N   1      34.557  18.319   7.284  0.00  0.00    -0.271 OA
HETATM   23  N   UNK N   1      33.753  17.340   5.461  0.00  0.00    -0.349 N 
HETATM   24  H   UNK N   1      34.397  17.849   4.918  0.00  0.00     0.163 HD
BRANCH  23  25
HETATM   25  C   UNK N   1      32.866  16.426   4.784  0.00  0.00     0.232 C 
BRANCH  25  26
HETATM   26  C   UNK N   1      32.017  17.181   3.809  0.00  0.00     0.158 C 
HETATM   27  O   UNK N   1      32.240  17.095   2.612  0.00  0.00    -0.649 OA
BRANCH  26  28
HETATM   28  O   UNK N   1      31.015  17.965   4.247  0.00  0.00    -0.775 OA
HETATM   29  H   UNK N   1      30.241  17.640   4.663  0.00  0.00     0.167 HD
ENDBRANCH  26  28
ENDBRANCH  25  26
ENDBRANCH  23  25
ENDBRANCH   1  21
TORSDOF 15
ENDMDL
MODEL 4
REMARK VINA RESULT:      -5.6     11.308     12.881
REMARK  15 active torsions:
REMARK  status: ('A' for Active; 'I' for Inactive)
REMARK    1  A    between atoms: S_1  and  C_17 
REMARK    2  A    between atoms: S_1  and  C_21 
REMARK    3  A    between atoms: O_4  and  C_19 
REMARK    4  A    between atoms: O_6  and  C_21 
REMARK    5  A    between atoms: O_7  and  C_22 
REMARK    6  A    between atoms: N_9  and  C_12 
REMARK       I    between atoms: N_9  and  C_16 
REMARK       I    between atoms: N_10  and  C_18 
REMARK    7  A    between atoms: N_10  and  C_20 
REMARK    8  A    between atoms: N_11  and  C_15 
REMARK    9  A    between atoms: C_12  and  C_17 
REMARK   10  A    between atoms: C_12  and  C_18 
REMARK   11  A    between atoms: C_13  and  C_14 
REMARK   12  A    between atoms: C_13  and  C_15 
REMARK   13  A    between atoms: C_14  and  C_16 
REMARK   14  A    between atoms: C_15  and  C_19 
REMARK   15  A    between atoms: C_20  and  C_22 
ROOT
HETATM    1  C   UNK N   1      32.235  16.224   8.387  0.00  0.00     0.185 C 
ENDROOT
BRANCH   1   2
HETATM    2  N   UNK N   1      33.655  15.980   8.507  0.00  0.00    -0.347 N 
HETATM    3  C   UNK N   1      34.225  15.394   9.584  0.00  0.00     0.218 C 
HETATM    4  O   UNK N   1      33.554  15.072  10.553  0.00  0.00    -0.274 OA
HETATM    5  H   UNK N   1      34.239  16.256   7.765  0.00  0.00     0.163 HD
BRANCH   3   6
HETATM    6  C   UNK N   1      35.679  15.051   9.521  0.00  0.00     0.105 C 
BRANCH   6   7
HETATM    7  C   UNK N   1      36.007  13.681  10.094  0.00  0.00     0.044 C 
BRANCH   7   8
HETATM    8  C   UNK N   1      36.569  13.741  11.514  0.00  0.00     0.173 C 
BRANCH   8   9
HETATM    9  N   UNK N   1      37.922  13.211  11.492  0.00  0.00    -0.418 N 
HETATM   10  H   UNK N   1      38.469  13.139  12.350  0.00  0.00     0.150 HD
HETATM   11  H   UNK N   1      38.330  12.908  10.608  0.00  0.00     0.150 HD
ENDBRANCH   8   9
BRANCH   8  12
HETATM   12  C   UNK N   1      35.723  12.979  12.505  0.00  0.00     0.163 C 
HETATM   13  O   UNK N   1      36.165  11.977  13.042  0.00  0.00    -0.648 OA
BRANCH  12  14
HETATM   14  O   UNK N   1      34.465  13.377  12.781  0.00  0.00    -0.775 OA
HETATM   15  H   UNK N   1      33.738  12.840  12.537  0.00  0.00     0.167 HD
ENDBRANCH  12  14
ENDBRANCH   8  12
ENDBRANCH   7   8
ENDBRANCH   6   7
ENDBRANCH   3   6
ENDBRANCH   1   2
BRANCH   1  16
HETATM   16  C   UNK N   1      31.829  15.784   6.990  0.00  0.00     0.111 C 
BRANCH  16  17
HETATM   17  S   UNK N   1      33.307  15.385   6.007  0.00  0.00    -0.141 SA
BRANCH  17  18
HETATM   18  C   UNK N   1      33.372  17.014   5.210  0.00  0.00     0.238 C 
BRANCH  18  19
HETATM   19  O   UNK N   1      34.183  17.866   5.959  0.00  0.00    -0.391 OA
HETATM   20  H   UNK N   1      35.153  17.882   5.994  0.00  0.00     0.210 HD
ENDBRANCH  18  19
ENDBRANCH  17  18
ENDBRANCH  16  17
ENDBRANCH   1  16
BRANCH   1  21
HETATM   21  C   UNK N   1      31.925  17.697   8.610  0.00  0.00     0.241 C 
HETATM   22  O   UNK N   1      32.746  18.539   8.285  0.00  0.00    -0.271 OA
HETATM   23  N   UNK N   1      30.751  18.108   9.160  0.00  0.00    -0.349 N 
HETATM   24  H   UNK N   1      30.615  19.074   9.295  0.00  0.00     0.163 HD
BRANCH  23  25
HETATM   25  C   UNK N   1      29.695  17.211   9.559  0.00  0.00     0.232 C 
BRANCH  25  26
HETATM   26  C   UNK N   1      28.455  17.517   8.779  0.00  0.00     0.158 C 
HETATM   27  O   UNK N   1      28.382  17.201   7.602  0.00  0.00    -0.649 OA
BRANCH  26  28
HETATM   28  O   UNK N   1      27.423  18.151   9.366  0.00  0.00    -0.775 OA
HETATM   29  H   UNK N   1      26.611  17.737   9.584  0.00  0.00     0.167 HD
ENDBRANCH  26  28
ENDBRANCH  25  26
ENDBRANCH  23  25
ENDBRANCH   1  21
TORSDOF 15
ENDMDL
MODEL 5
REMARK VINA RESULT:      -5.5      5.993      8.219
REMARK  15 active torsions:
REMARK  status: ('A' for Active; 'I' for Inactive)
REMARK    1  A    between atoms: S_1  and  C_17 
REMARK    2  A    between atoms: S_1  and  C_21 
REMARK    3  A    between atoms: O_4  and  C_19 
REMARK    4  A    between atoms: O_6  and  C_21 
REMARK    5  A    between atoms: O_7  and  C_22 
REMARK    6  A    between atoms: N_9  and  C_12 
REMARK       I    between atoms: N_9  and  C_16 
REMARK       I    between atoms: N_10  and  C_18 
REMARK    7  A    between atoms: N_10  and  C_20 
REMARK    8  A    between atoms: N_11  and  C_15 
REMARK    9  A    between atoms: C_12  and  C_17 
REMARK   10  A    between atoms: C_12  and  C_18 
REMARK   11  A    between atoms: C_13  and  C_14 
REMARK   12  A    between atoms: C_13  and  C_15 
REMARK   13  A    between atoms: C_14  and  C_16 
REMARK   14  A    between atoms: C_15  and  C_19 
REMARK   15  A    between atoms: C_20  and  C_22 
ROOT
HETATM    1  C   UNK N   1      22.680  18.575   4.345  0.00  0.00     0.185 C 
ENDROOT
BRANCH   1   2
HETATM    2  N   UNK N   1      24.031  18.741   3.856  0.00  0.00    -0.347 N 
HETATM    3  C   UNK N   1      24.535  19.922   3.435  0.00  0.00     0.218 C 
HETATM    4  O   UNK N   1      23.840  20.927   3.405  0.00  0.00    -0.274 OA
HETATM    5  H   UNK N   1      24.616  17.950   3.828  0.00  0.00     0.163 HD
BRANCH   3   6
HETATM    6  C   UNK N   1      25.991  19.997   3.105  0.00  0.00     0.105 C 
BRANCH   6   7
HETATM    7  C   UNK N   1      26.842  20.564   4.231  0.00  0.00     0.044 C 
BRANCH   7   8
HETATM    8  C   UNK N   1      27.851  19.560   4.787  0.00  0.00     0.173 C 
BRANCH   8   9
HETATM    9  N   UNK N   1      28.158  18.596   3.745  0.00  0.00    -0.418 N 
HETATM   10  H   UNK N   1      28.118  17.594   3.931  0.00  0.00     0.150 HD
HETATM   11  H   UNK N   1      28.417  18.925   2.815  0.00  0.00     0.150 HD
ENDBRANCH   8   9
BRANCH   8  12
HETATM   12  C   UNK N   1      27.346  18.855   6.023  0.00  0.00     0.163 C 
HETATM   13  O   UNK N   1      27.881  19.053   7.101  0.00  0.00    -0.648 OA
BRANCH  12  14
HETATM   14  O   UNK N   1      26.324  17.980   5.942  0.00  0.00    -0.775 OA
HETATM   15  H   UNK N   1      26.314  17.330   5.267  0.00  0.00     0.167 HD
ENDBRANCH  12  14
ENDBRANCH   8  12
ENDBRANCH   7   8
ENDBRANCH   6   7
ENDBRANCH   3   6
ENDBRANCH   1   2
BRANCH   1  16
HETATM   16  C   UNK N   1      22.783  17.899   5.703  0.00  0.00     0.111 C 
BRANCH  16  17
HETATM   17  S   UNK N   1      21.127  17.711   6.433  0.00  0.00    -0.141 SA
BRANCH  17  18
HETATM   18  C   UNK N   1      21.377  15.965   6.861  0.00  0.00     0.238 C 
BRANCH  18  19
HETATM   19  O   UNK N   1      21.281  15.185   5.709  0.00  0.00    -0.391 OA
HETATM   20  H   UNK N   1      20.878  15.430   4.861  0.00  0.00     0.210 HD
ENDBRANCH  18  19
ENDBRANCH  17  18
ENDBRANCH  16  17
ENDBRANCH   1  16
BRANCH   1  21
HETATM   21  C   UNK N   1      21.860  17.737   3.375  0.00  0.00     0.241 C 
HETATM   22  O   UNK N   1      22.193  16.586   3.147  0.00  0.00    -0.271 OA
HETATM   23  N   UNK N   1      20.757  18.233   2.753  0.00  0.00    -0.349 N 
HETATM   24  H   UNK N   1      20.277  17.648   2.123  0.00  0.00     0.163 HD
BRANCH  23  25
HETATM   25  C   UNK N   1      20.251  19.567   2.961  0.00  0.00     0.232 C 
BRANCH  25  26
HETATM   26  C   UNK N   1      20.899  20.506   1.991  0.00  0.00     0.158 C 
HETATM   27  O   UNK N   1      21.002  20.193   0.816  0.00  0.00    -0.649 OA
BRANCH  26  28
HETATM   28  O   UNK N   1      21.379  21.691   2.412  0.00  0.00    -0.775 OA
HETATM   29  H   UNK N   1      21.997  21.786   3.110  0.00  0.00     0.167 HD
ENDBRANCH  26  28
ENDBRANCH  25  26
ENDBRANCH  23  25
ENDBRANCH   1  21
TORSDOF 15
ENDMDL
MODEL 6
REMARK VINA RESULT:      -5.5      6.019      8.198
REMARK  15 active torsions:
REMARK  status: ('A' for Active; 'I' for Inactive)
REMARK    1  A    between atoms: S_1  and  C_17 
REMARK    2  A    between atoms: S_1  and  C_21 
REMARK    3  A    between atoms: O_4  and  C_19 
REMARK    4  A    between atoms: O_6  and  C_21 
REMARK    5  A    between atoms: O_7  and  C_22 
REMARK    6  A    between atoms: N_9  and  C_12 
REMARK       I    between atoms: N_9  and  C_16 
REMARK       I    between atoms: N_10  and  C_18 
REMARK    7  A    between atoms: N_10  and  C_20 
REMARK    8  A    between atoms: N_11  and  C_15 
REMARK    9  A    between atoms: C_12  and  C_17 
REMARK   10  A    between atoms: C_12  and  C_18 
REMARK   11  A    between atoms: C_13  and  C_14 
REMARK   12  A    between atoms: C_13  and  C_15 
REMARK   13  A    between atoms: C_14  and  C_16 
REMARK   14  A    between atoms: C_15  and  C_19 
REMARK   15  A    between atoms: C_20  and  C_22 
ROOT
HETATM    1  C   UNK N   1      20.669  16.269   3.188  0.00  0.00     0.185 C 
ENDROOT
BRANCH   1   2
HETATM    2  N   UNK N   1      22.078  16.582   3.269  0.00  0.00    -0.347 N 
HETATM    3  C   UNK N   1      22.601  17.457   4.157  0.00  0.00     0.218 C 
HETATM    4  O   UNK N   1      21.882  18.075   4.928  0.00  0.00    -0.274 OA
HETATM    5  H   UNK N   1      22.692  16.134   2.643  0.00  0.00     0.163 HD
BRANCH   3   6
HETATM    6  C   UNK N   1      24.089  17.575   4.249  0.00  0.00     0.105 C 
BRANCH   6   7
HETATM    7  C   UNK N   1      24.560  18.906   4.813  0.00  0.00     0.044 C 
BRANCH   7   8
HETATM    8  C   UNK N   1      25.459  19.682   3.851  0.00  0.00     0.173 C 
BRANCH   8   9
HETATM    9  N   UNK N   1      26.319  20.555   4.632  0.00  0.00    -0.418 N 
HETATM   10  H   UNK N   1      27.216  20.871   4.264  0.00  0.00     0.150 HD
HETATM   11  H   UNK N   1      26.021  20.855   5.561  0.00  0.00     0.150 HD
ENDBRANCH   8   9
BRANCH   8  12
HETATM   12  C   UNK N   1      24.673  20.485   2.843  0.00  0.00     0.163 C 
HETATM   13  O   UNK N   1      25.129  20.679   1.728  0.00  0.00    -0.648 OA
BRANCH  12  14
HETATM   14  O   UNK N   1      23.480  21.019   3.172  0.00  0.00    -0.775 OA
HETATM   15  H   UNK N   1      23.293  21.914   2.967  0.00  0.00     0.167 HD
ENDBRANCH  12  14
ENDBRANCH   8  12
ENDBRANCH   7   8
ENDBRANCH   6   7
ENDBRANCH   3   6
ENDBRANCH   1   2
BRANCH   1  16
HETATM   16  C   UNK N   1      20.536  14.774   3.426  0.00  0.00     0.111 C 
BRANCH  16  17
HETATM   17  S   UNK N   1      20.097  14.455   5.163  0.00  0.00    -0.141 SA
BRANCH  17  18
HETATM   18  C   UNK N   1      19.045  15.928   5.299  0.00  0.00     0.238 C 
BRANCH  18  19
HETATM   19  O   UNK N   1      17.706  15.542   5.324  0.00  0.00    -0.391 OA
HETATM   20  H   UNK N   1      17.138  15.322   4.567  0.00  0.00     0.210 HD
ENDBRANCH  18  19
ENDBRANCH  17  18
ENDBRANCH  16  17
ENDBRANCH   1  16
BRANCH   1  21
HETATM   21  C   UNK N   1      20.113  16.659   1.826  0.00  0.00     0.241 C 
HETATM   22  O   UNK N   1      20.230  15.890   0.887  0.00  0.00    -0.271 OA
HETATM   23  N   UNK N   1      19.481  17.847   1.623  0.00  0.00    -0.349 N 
HETATM   24  H   UNK N   1      19.157  18.050   0.716  0.00  0.00     0.163 HD
BRANCH  23  25
HETATM   25  C   UNK N   1      19.260  18.825   2.659  0.00  0.00     0.232 C 
BRANCH  25  26
HETATM   26  C   UNK N   1      20.150  20.006   2.432  0.00  0.00     0.158 C 
HETATM   27  O   UNK N   1      20.589  20.631   3.384  0.00  0.00    -0.649 OA
BRANCH  26  28
HETATM   28  O   UNK N   1      20.460  20.391   1.180  0.00  0.00    -0.775 OA
HETATM   29  H   UNK N   1      20.210  19.918   0.411  0.00  0.00     0.167 HD
ENDBRANCH  26  28
ENDBRANCH  25  26
ENDBRANCH  23  25
ENDBRANCH   1  21
TORSDOF 15
ENDMDL
MODEL 7
REMARK VINA RESULT:      -5.5     17.626     18.959
REMARK  15 active torsions:
REMARK  status: ('A' for Active; 'I' for Inactive)
REMARK    1  A    between atoms: S_1  and  C_17 
REMARK    2  A    between atoms: S_1  and  C_21 
REMARK    3  A    between atoms: O_4  and  C_19 
REMARK    4  A    between atoms: O_6  and  C_21 
REMARK    5  A    between atoms: O_7  and  C_22 
REMARK    6  A    between atoms: N_9  and  C_12 
REMARK       I    between atoms: N_9  and  C_16 
REMARK       I    between atoms: N_10  and  C_18 
REMARK    7  A    between atoms: N_10  and  C_20 
REMARK    8  A    between atoms: N_11  and  C_15 
REMARK    9  A    between atoms: C_12  and  C_17 
REMARK   10  A    between atoms: C_12  and  C_18 
REMARK   11  A    between atoms: C_13  and  C_14 
REMARK   12  A    between atoms: C_13  and  C_15 
REMARK   13  A    between atoms: C_14  and  C_16 
REMARK   14  A    between atoms: C_15  and  C_19 
REMARK   15  A    between atoms: C_20  and  C_22 
ROOT
HETATM    1  C   UNK N   1      27.715  24.963  -5.496  0.00  0.00     0.185 C 
ENDROOT
BRANCH   1   2
HETATM    2  N   UNK N   1      28.653  23.892  -5.240  0.00  0.00    -0.347 N 
HETATM    3  C   UNK N   1      29.159  23.094  -6.207  0.00  0.00     0.218 C 
HETATM    4  O   UNK N   1      28.806  23.214  -7.370  0.00  0.00    -0.274 OA
HETATM    5  H   UNK N   1      28.938  23.735  -4.311  0.00  0.00     0.163 HD
BRANCH   3   6
HETATM    6  C   UNK N   1      30.241  22.129  -5.838  0.00  0.00     0.105 C 
BRANCH   6   7
HETATM    7  C   UNK N   1      30.170  21.659  -4.393  0.00  0.00     0.044 C 
BRANCH   7   8
HETATM    8  C   UNK N   1      31.291  22.224  -3.521  0.00  0.00     0.173 C 
BRANCH   8   9
HETATM    9  N   UNK N   1      31.934  21.120  -2.831  0.00  0.00    -0.418 N 
HETATM   10  H   UNK N   1      32.945  20.989  -2.882  0.00  0.00     0.150 HD
HETATM   11  H   UNK N   1      31.368  20.467  -2.289  0.00  0.00     0.150 HD
ENDBRANCH   8   9
BRANCH   8  12
HETATM   12  C   UNK N   1      30.792  23.246  -2.527  0.00  0.00     0.163 C 
HETATM   13  O   UNK N   1      30.498  22.901  -1.394  0.00  0.00    -0.648 OA
BRANCH  12  14
HETATM   14  O   UNK N   1      30.638  24.535  -2.888  0.00  0.00    -0.775 OA
HETATM   15  H   UNK N   1      29.914  25.031  -2.560  0.00  0.00     0.167 HD
ENDBRANCH  12  14
ENDBRANCH   8  12
ENDBRANCH   7   8
ENDBRANCH   6   7
ENDBRANCH   3   6
ENDBRANCH   1   2
BRANCH   1  16
HETATM   16  C   UNK N   1      28.134  26.134  -4.622  0.00  0.00     0.111 C 
BRANCH  16  17
HETATM   17  S   UNK N   1      27.154  27.608  -5.040  0.00  0.00    -0.141 SA
BRANCH  17  18
HETATM   18  C   UNK N   1      26.737  27.976  -3.312  0.00  0.00     0.238 C 
BRANCH  18  19
HETATM   19  O   UNK N   1      25.375  28.260  -3.213  0.00  0.00    -0.391 OA
HETATM   20  H   UNK N   1      24.637  27.763  -3.599  0.00  0.00     0.210 HD
ENDBRANCH  18  19
ENDBRANCH  17  18
ENDBRANCH  16  17
ENDBRANCH   1  16
BRANCH   1  21
HETATM   21  C   UNK N   1      26.296  24.519  -5.175  0.00  0.00     0.241 C 
HETATM   22  O   UNK N   1      25.971  24.341  -4.012  0.00  0.00    -0.271 OA
HETATM   23  N   UNK N   1      25.370  24.314  -6.150  0.00  0.00    -0.349 N 
HETATM   24  H   UNK N   1      24.473  24.011  -5.881  0.00  0.00     0.163 HD
BRANCH  23  25
HETATM   25  C   UNK N   1      25.627  24.516  -7.554  0.00  0.00     0.232 C 
BRANCH  25  26
HETATM   26  C   UNK N   1      25.406  23.233  -8.294  0.00  0.00     0.158 C 
HETATM   27  O   UNK N   1      24.290  22.743  -8.344  0.00  0.00    -0.649 OA
BRANCH  26  28
HETATM   28  O   UNK N   1      26.437  22.610  -8.895  0.00  0.00    -0.775 OA
HETATM   29  H   UNK N   1      26.802  21.800  -8.597  0.00  0.00     0.167 HD
ENDBRANCH  26  28
ENDBRANCH  25  26
ENDBRANCH  23  25
ENDBRANCH   1  21
TORSDOF 15
ENDMDL
MODEL 8
REMARK VINA RESULT:      -5.5      3.793      7.776
REMARK  15 active torsions:
REMARK  status: ('A' for Active; 'I' for Inactive)
REMARK    1  A    between atoms: S_1  and  C_17 
REMARK    2  A    between atoms: S_1  and  C_21 
REMARK    3  A    between atoms: O_4  and  C_19 
REMARK    4  A    between atoms: O_6  and  C_21 
REMARK    5  A    between atoms: O_7  and  C_22 
REMARK    6  A    between atoms: N_9  and  C_12 
REMARK       I    between atoms: N_9  and  C_16 
REMARK       I    between atoms: N_10  and  C_18 
REMARK    7  A    between atoms: N_10  and  C_20 
REMARK    8  A    between atoms: N_11  and  C_15 
REMARK    9  A    between atoms: C_12  and  C_17 
REMARK   10  A    between atoms: C_12  and  C_18 
REMARK   11  A    between atoms: C_13  and  C_14 
REMARK   12  A    between atoms: C_13  and  C_15 
REMARK   13  A    between atoms: C_14  and  C_16 
REMARK   14  A    between atoms: C_15  and  C_19 
REMARK   15  A    between atoms: C_20  and  C_22 
ROOT
HETATM    1  C   UNK N   1      21.517  15.237   5.775  0.00  0.00     0.185 C 
ENDROOT
BRANCH   1   2
HETATM    2  N   UNK N   1      21.381  16.454   5.006  0.00  0.00    -0.347 N 
HETATM    3  C   UNK N   1      21.484  17.692   5.539  0.00  0.00     0.218 C 
HETATM    4  O   UNK N   1      21.658  17.848   6.738  0.00  0.00    -0.274 OA
HETATM    5  H   UNK N   1      21.204  16.377   4.041  0.00  0.00     0.163 HD
BRANCH   3   6
HETATM    6  C   UNK N   1      21.485  18.867   4.613  0.00  0.00     0.105 C 
BRANCH   6   7
HETATM    7  C   UNK N   1      21.176  18.504   3.169  0.00  0.00     0.044 C 
BRANCH   7   8
HETATM    8  C   UNK N   1      20.097  19.388   2.544  0.00  0.00     0.173 C 
BRANCH   8   9
HETATM    9  N   UNK N   1      19.008  18.536   2.100  0.00  0.00    -0.418 N 
HETATM   10  H   UNK N   1      18.759  18.477   1.113  0.00  0.00     0.150 HD
HETATM   11  H   UNK N   1      18.485  17.990   2.785  0.00  0.00     0.150 HD
ENDBRANCH   8   9
BRANCH   8  12
HETATM   12  C   UNK N   1      20.621  20.213   1.393  0.00  0.00     0.163 C 
HETATM   13  O   UNK N   1      21.079  21.325   1.598  0.00  0.00    -0.648 OA
BRANCH  12  14
HETATM   14  O   UNK N   1      20.557  19.746   0.130  0.00  0.00    -0.775 OA
HETATM   15  H   UNK N   1      20.950  20.229  -0.570  0.00  0.00     0.167 HD
ENDBRANCH  12  14
ENDBRANCH   8  12
ENDBRANCH   7   8
ENDBRANCH   6   7
ENDBRANCH   3   6
ENDBRANCH   1   2
BRANCH   1  16
HETATM   16  C   UNK N   1      21.754  14.112   4.782  0.00  0.00     0.111 C 
BRANCH  16  17
HETATM   17  S   UNK N   1      21.791  14.772   3.087  0.00  0.00    -0.141 SA
BRANCH  17  18
HETATM   18  C   UNK N   1      20.042  14.404   2.771  0.00  0.00     0.238 C 
BRANCH  18  19
HETATM   19  O   UNK N   1      19.272  15.533   3.049  0.00  0.00    -0.391 OA
HETATM   20  H   UNK N   1      19.446  16.220   3.713  0.00  0.00     0.210 HD
ENDBRANCH  18  19
ENDBRANCH  17  18
ENDBRANCH  16  17
ENDBRANCH   1  16
BRANCH   1  21
HETATM   21  C   UNK N   1      20.265  14.985   6.602  0.00  0.00     0.241 C 
HETATM   22  O   UNK N   1      19.168  15.156   6.096  0.00  0.00    -0.271 OA
HETATM   23  N   UNK N   1      20.330  14.569   7.895  0.00  0.00    -0.349 N 
HETATM   24  H   UNK N   1      19.485  14.439   8.384  0.00  0.00     0.163 HD
BRANCH  23  25
HETATM   25  C   UNK N   1      21.565  14.308   8.592  0.00  0.00     0.232 C 
BRANCH  25  26
HETATM   26  C   UNK N   1      21.279  13.560   9.857  0.00  0.00     0.158 C 
HETATM   27  O   UNK N   1      22.199  13.198  10.572  0.00  0.00    -0.649 OA
BRANCH  26  28
HETATM   28  O   UNK N   1      20.010  13.275  10.204  0.00  0.00    -0.775 OA
HETATM   29  H   UNK N   1      19.262  13.720   9.858  0.00  0.00     0.167 HD
ENDBRANCH  26  28
ENDBRANCH  25  26
ENDBRANCH  23  25
ENDBRANCH   1  21
TORSDOF 15
ENDMDL
MODEL 9
REMARK VINA RESULT:      -5.5     10.785     13.484
REMARK  15 active torsions:
REMARK  status: ('A' for Active; 'I' for Inactive)
REMARK    1  A    between atoms: S_1  and  C_17 
REMARK    2  A    between atoms: S_1  and  C_21 
REMARK    3  A    between atoms: O_4  and  C_19 
REMARK    4  A    between atoms: O_6  and  C_21 
REMARK    5  A    between atoms: O_7  and  C_22 
REMARK    6  A    between atoms: N_9  and  C_12 
REMARK       I    between atoms: N_9  and  C_16 
REMARK       I    between atoms: N_10  and  C_18 
REMARK    7  A    between atoms: N_10  and  C_20 
REMARK    8  A    between atoms: N_11  and  C_15 
REMARK    9  A    between atoms: C_12  and  C_17 
REMARK   10  A    between atoms: C_12  and  C_18 
REMARK   11  A    between atoms: C_13  and  C_14 
REMARK   12  A    between atoms: C_13  and  C_15 
REMARK   13  A    between atoms: C_14  and  C_16 
REMARK   14  A    between atoms: C_15  and  C_19 
REMARK   15  A    between atoms: C_20  and  C_22 
ROOT
HETATM    1  C   UNK N   1      33.029  15.475   7.643  0.00  0.00     0.185 C 
ENDROOT
BRANCH   1   2
HETATM    2  N   UNK N   1      31.958  16.313   8.134  0.00  0.00    -0.347 N 
HETATM    3  C   UNK N   1      32.110  17.623   8.434  0.00  0.00     0.218 C 
HETATM    4  O   UNK N   1      33.200  18.166   8.344  0.00  0.00    -0.274 OA
HETATM    5  H   UNK N   1      31.068  15.909   8.257  0.00  0.00     0.163 HD
BRANCH   3   6
HETATM    6  C   UNK N   1      30.892  18.420   8.779  0.00  0.00     0.105 C 
BRANCH   6   7
HETATM    7  C   UNK N   1      29.643  17.975   8.034  0.00  0.00     0.044 C 
BRANCH   7   8
HETATM    8  C   UNK N   1      28.471  18.943   8.191  0.00  0.00     0.173 C 
BRANCH   8   9
HETATM    9  N   UNK N   1      27.526  18.369   9.133  0.00  0.00    -0.418 N 
HETATM   10  H   UNK N   1      26.640  18.832   9.334  0.00  0.00     0.150 HD
HETATM   11  H   UNK N   1      27.753  17.491   9.600  0.00  0.00     0.150 HD
ENDBRANCH   8   9
BRANCH   8  12
HETATM   12  C   UNK N   1      27.787  19.242   6.878  0.00  0.00     0.163 C 
HETATM   13  O   UNK N   1      28.233  18.784   5.839  0.00  0.00    -0.648 OA
BRANCH  12  14
HETATM   14  O   UNK N   1      26.702  20.041   6.838  0.00  0.00    -0.775 OA
HETATM   15  H   UNK N   1      26.319  20.271   6.014  0.00  0.00     0.167 HD
ENDBRANCH  12  14
ENDBRANCH   8  12
ENDBRANCH   7   8
ENDBRANCH   6   7
ENDBRANCH   3   6
ENDBRANCH   1   2
BRANCH   1  16
HETATM   16  C   UNK N   1      32.555  14.881   6.327  0.00  0.00     0.111 C 
BRANCH  16  17
HETATM   17  S   UNK N   1      33.727  15.294   4.998  0.00  0.00    -0.141 SA
BRANCH  17  18
HETATM   18  C   UNK N   1      33.155  17.011   4.855  0.00  0.00     0.238 C 
BRANCH  18  19
HETATM   19  O   UNK N   1      34.019  17.848   5.559  0.00  0.00    -0.391 OA
HETATM   20  H   UNK N   1      34.806  17.595   6.068  0.00  0.00     0.210 HD
ENDBRANCH  18  19
ENDBRANCH  17  18
ENDBRANCH  16  17
ENDBRANCH   1  16
BRANCH   1  21
HETATM   21  C   UNK N   1      33.357  14.384   8.651  0.00  0.00     0.241 C 
HETATM   22  O   UNK N   1      32.542  13.503   8.869  0.00  0.00    -0.271 OA
HETATM   23  N   UNK N   1      34.541  14.357   9.320  0.00  0.00    -0.349 N 
HETATM   24  H   UNK N   1      34.689  13.635   9.972  0.00  0.00     0.163 HD
BRANCH  23  25
HETATM   25  C   UNK N   1      35.591  15.326   9.129  0.00  0.00     0.232 C 
BRANCH  25  26
HETATM   26  C   UNK N   1      35.800  16.096  10.396  0.00  0.00     0.158 C 
HETATM   27  O   UNK N   1      34.921  16.831  10.814  0.00  0.00    -0.649 OA
BRANCH  26  28
HETATM   28  O   UNK N   1      36.959  15.989  11.072  0.00  0.00    -0.775 OA
HETATM   29  H   UNK N   1      37.507  15.228  11.053  0.00  0.00     0.167 HD
ENDBRANCH  26  28
ENDBRANCH  25  26
ENDBRANCH  23  25
ENDBRANCH   1  21
TORSDOF 15
ENDMDL
