MODEL 1
REMARK VINA RESULT:      -5.3      0.000      0.000
REMARK  6 active torsions:
REMARK  status: ('A' for Active; 'I' for Inactive)
REMARK    1  A    between atoms: S_2  and  C_13 
REMARK    2  A    between atoms: S_2  and  C_14 
REMARK    3  A    between atoms: O_5  and  C_15 
REMARK    4  A    between atoms: N_7  and  C_8 
REMARK       I    between atoms: N_7  and  C_12 
REMARK    5  A    between atoms: C_12  and  C_13 
REMARK    6  A    between atoms: C_14  and  C_15 
ROOT
HETATM    1  O   UNK N   1      34.182  14.586  11.681  0.00  0.00    -0.273 OA
HETATM    2  N   UNK N   1      36.272  14.595  12.501  0.00  0.00    -0.348 N 
HETATM    3  C   UNK N   1      35.308  15.057  11.661  0.00  0.00     0.227 C 
HETATM    4  H   UNK N   1      37.148  15.042  12.505  0.00  0.00     0.163 HD
ENDROOT
BRANCH   3   5
HETATM    5  C   UNK N   1      35.630  16.170  10.717  0.00  0.00     0.177 C 
BRANCH   5   6
HETATM    6  S   UNK N   1      35.074  15.775   9.027  0.00  0.00    -0.149 SA
BRANCH   6   7
HETATM    7  C   UNK N   1      34.023  17.259   8.962  0.00  0.00     0.184 C 
BRANCH   7   8
HETATM    8  C   UNK N   1      34.583  18.295   8.042  0.00  0.00     0.149 C 
HETATM    9  O   UNK N   1      34.352  18.251   6.845  0.00  0.00    -0.649 OA
BRANCH   8  10
HETATM   10  O   UNK N   1      35.322  19.302   8.546  0.00  0.00    -0.776 OA
HETATM   11  H   UNK N   1      35.060  20.194   8.429  0.00  0.00     0.167 HD
ENDBRANCH   8  10
ENDBRANCH   7   8
ENDBRANCH   6   7
ENDBRANCH   5   6
ENDBRANCH   3   5
BRANCH   2  12
HETATM   12  C   UNK N   1      36.064  13.470  13.392  0.00  0.00     0.166 C 
HETATM   13  C   UNK N   1      36.566  13.765  14.798  0.00  0.00     0.044 C 
HETATM   14  C   UNK N   1      36.829  12.426  15.465  0.00  0.00     0.085 C 
HETATM   15  S   UNK N   1      37.687  11.372  14.253  0.00  0.00    -0.090 SA
HETATM   16  C   UNK N   1      36.855  12.285  12.965  0.00  0.00     0.208 C 
HETATM   17  O   UNK N   1      36.881  11.908  11.804  0.00  0.00    -0.283 OA
ENDBRANCH   2  12
TORSDOF 6
ENDMDL
MODEL 2
REMARK VINA RESULT:      -5.1      2.066      2.412
REMARK  6 active torsions:
REMARK  status: ('A' for Active; 'I' for Inactive)
REMARK    1  A    between atoms: S_2  and  C_13 
REMARK    2  A    between atoms: S_2  and  C_14 
REMARK    3  A    between atoms: O_5  and  C_15 
REMARK    4  A    between atoms: N_7  and  C_8 
REMARK       I    between atoms: N_7  and  C_12 
REMARK    5  A    between atoms: C_12  and  C_13 
REMARK    6  A    between atoms: C_14  and  C_15 
ROOT
HETATM    1  O   UNK N   1      36.252  14.049  11.125  0.00  0.00    -0.273 OA
HETATM    2  N   UNK N   1      34.428  13.150  12.078  0.00  0.00    -0.348 N 
HETATM    3  C   UNK N   1      35.042  14.072  11.289  0.00  0.00     0.227 C 
HETATM    4  H   UNK N   1      33.446  13.158  12.134  0.00  0.00     0.163 HD
ENDROOT
BRANCH   3   5
HETATM    5  C   UNK N   1      34.221  15.112  10.600  0.00  0.00     0.177 C 
BRANCH   5   6
HETATM    6  S   UNK N   1      35.208  16.606  10.261  0.00  0.00    -0.149 SA
BRANCH   6   7
HETATM    7  C   UNK N   1      34.009  17.189   9.022  0.00  0.00     0.184 C 
BRANCH   7   8
HETATM    8  C   UNK N   1      34.608  18.207   8.107  0.00  0.00     0.149 C 
HETATM    9  O   UNK N   1      34.405  18.156   6.905  0.00  0.00    -0.649 OA
BRANCH   8  10
HETATM   10  O   UNK N   1      35.351  19.207   8.619  0.00  0.00    -0.776 OA
HETATM   11  H   UNK N   1      35.514  19.986   8.124  0.00  0.00     0.167 HD
ENDBRANCH   8  10
ENDBRANCH   7   8
ENDBRANCH   6   7
ENDBRANCH   5   6
ENDBRANCH   3   5
BRANCH   2  12
HETATM   12  C   UNK N   1      35.158  12.157  12.840  0.00  0.00     0.166 C 
HETATM   13  C   UNK N   1      34.988  10.762  12.258  0.00  0.00     0.044 C 
HETATM   14  C   UNK N   1      35.280   9.776  13.375  0.00  0.00     0.085 C 
HETATM   15  S   UNK N   1      34.446  10.387  14.874  0.00  0.00    -0.090 SA
HETATM   16  C   UNK N   1      34.630  12.039  14.226  0.00  0.00     0.208 C 
HETATM   17  O   UNK N   1      34.399  13.019  14.916  0.00  0.00    -0.283 OA
ENDBRANCH   2  12
TORSDOF 6
ENDMDL
MODEL 3
REMARK VINA RESULT:      -5.1      2.768      3.727
REMARK  6 active torsions:
REMARK  status: ('A' for Active; 'I' for Inactive)
REMARK    1  A    between atoms: S_2  and  C_13 
REMARK    2  A    between atoms: S_2  and  C_14 
REMARK    3  A    between atoms: O_5  and  C_15 
REMARK    4  A    between atoms: N_7  and  C_8 
REMARK       I    between atoms: N_7  and  C_12 
REMARK    5  A    between atoms: C_12  and  C_13 
REMARK    6  A    between atoms: C_14  and  C_15 
ROOT
HETATM    1  O   UNK N   1      36.489  14.129   6.881  0.00  0.00    -0.273 OA
HETATM    2  N   UNK N   1      35.294  14.916   8.611  0.00  0.00    -0.348 N 
HETATM    3  C   UNK N   1      35.580  14.838   7.285  0.00  0.00     0.227 C 
HETATM    4  H   UNK N   1      34.514  15.444   8.894  0.00  0.00     0.163 HD
ENDROOT
BRANCH   3   5
HETATM    5  C   UNK N   1      34.758  15.615   6.309  0.00  0.00     0.177 C 
BRANCH   5   6
HETATM    6  S   UNK N   1      33.155  16.089   7.036  0.00  0.00    -0.149 SA
BRANCH   6   7
HETATM    7  C   UNK N   1      33.618  17.850   7.056  0.00  0.00     0.184 C 
BRANCH   7   8
HETATM    8  C   UNK N   1      34.309  18.227   8.326  0.00  0.00     0.149 C 
HETATM    9  O   UNK N   1      35.065  19.184   8.359  0.00  0.00    -0.649 OA
BRANCH   8  10
HETATM   10  O   UNK N   1      34.067  17.524   9.448  0.00  0.00    -0.776 OA
HETATM   11  H   UNK N   1      33.849  16.613   9.406  0.00  0.00     0.167 HD
ENDBRANCH   8  10
ENDBRANCH   7   8
ENDBRANCH   6   7
ENDBRANCH   5   6
ENDBRANCH   3   5
BRANCH   2  12
HETATM   12  C   UNK N   1      36.089  14.255   9.628  0.00  0.00     0.166 C 
HETATM   13  C   UNK N   1      35.396  13.012  10.166  0.00  0.00     0.044 C 
HETATM   14  C   UNK N   1      35.984  12.736  11.538  0.00  0.00     0.085 C 
HETATM   15  S   UNK N   1      36.096  14.328  12.415  0.00  0.00    -0.090 SA
HETATM   16  C   UNK N   1      36.268  15.120  10.825  0.00  0.00     0.208 C 
HETATM   17  O   UNK N   1      36.586  16.294  10.734  0.00  0.00    -0.283 OA
ENDBRANCH   2  12
TORSDOF 6
ENDMDL
MODEL 4
REMARK VINA RESULT:      -4.9      2.581      7.320
REMARK  6 active torsions:
REMARK  status: ('A' for Active; 'I' for Inactive)
REMARK    1  A    between atoms: S_2  and  C_13 
REMARK    2  A    between atoms: S_2  and  C_14 
REMARK    3  A    between atoms: O_5  and  C_15 
REMARK    4  A    between atoms: N_7  and  C_8 
REMARK       I    between atoms: N_7  and  C_12 
REMARK    5  A    between atoms: C_12  and  C_13 
REMARK    6  A    between atoms: C_14  and  C_15 
ROOT
HETATM    1  O   UNK N   1      35.327  17.783   9.941  0.00  0.00    -0.273 OA
HETATM    2  N   UNK N   1      33.997  16.174   9.115  0.00  0.00    -0.348 N 
HETATM    3  C   UNK N   1      35.086  16.593   9.812  0.00  0.00     0.227 C 
HETATM    4  H   UNK N   1      33.797  15.212   9.087  0.00  0.00     0.163 HD
ENDROOT
BRANCH   3   5
HETATM    5  C   UNK N   1      35.986  15.581  10.443  0.00  0.00     0.177 C 
BRANCH   5   6
HETATM    6  S   UNK N   1      35.054  14.481  11.558  0.00  0.00    -0.149 SA
BRANCH   6   7
HETATM    7  C   UNK N   1      36.179  14.835  12.944  0.00  0.00     0.184 C 
BRANCH   7   8
HETATM    8  C   UNK N   1      36.059  13.815  14.030  0.00  0.00     0.149 C 
HETATM    9  O   UNK N   1      34.962  13.431  14.400  0.00  0.00    -0.649 OA
BRANCH   8  10
HETATM   10  O   UNK N   1      37.172  13.293  14.579  0.00  0.00    -0.776 OA
HETATM   11  H   UNK N   1      37.782  12.809  14.058  0.00  0.00     0.167 HD
ENDBRANCH   8  10
ENDBRANCH   7   8
ENDBRANCH   6   7
ENDBRANCH   5   6
ENDBRANCH   3   5
BRANCH   2  12
HETATM   12  C   UNK N   1      33.117  17.086   8.409  0.00  0.00     0.166 C 
HETATM   13  C   UNK N   1      31.688  16.568   8.365  0.00  0.00     0.044 C 
HETATM   14  C   UNK N   1      31.007  17.245   7.188  0.00  0.00     0.085 C 
HETATM   15  S   UNK N   1      32.172  17.206   5.788  0.00  0.00    -0.090 SA
HETATM   16  C   UNK N   1      33.503  17.214   6.978  0.00  0.00     0.208 C 
HETATM   17  O   UNK N   1      34.660  17.387   6.631  0.00  0.00    -0.283 OA
ENDBRANCH   2  12
TORSDOF 6
ENDMDL
MODEL 5
REMARK VINA RESULT:      -4.8      2.275      2.961
REMARK  6 active torsions:
REMARK  status: ('A' for Active; 'I' for Inactive)
REMARK    1  A    between atoms: S_2  and  C_13 
REMARK    2  A    between atoms: S_2  and  C_14 
REMARK    3  A    between atoms: O_5  and  C_15 
REMARK    4  A    between atoms: N_7  and  C_8 
REMARK       I    between atoms: N_7  and  C_12 
REMARK    5  A    between atoms: C_12  and  C_13 
REMARK    6  A    between atoms: C_14  and  C_15 
ROOT
HETATM    1  O   UNK N   1      34.280  14.643   8.454  0.00  0.00    -0.273 OA
HETATM    2  N   UNK N   1      33.737  14.388  10.617  0.00  0.00    -0.348 N 
HETATM    3  C   UNK N   1      33.464  14.796   9.349  0.00  0.00     0.227 C 
HETATM    4  H   UNK N   1      33.032  14.466  11.299  0.00  0.00     0.163 HD
ENDROOT
BRANCH   3   5
HETATM    5  C   UNK N   1      32.141  15.419   9.047  0.00  0.00     0.177 C 
BRANCH   5   6
HETATM    6  S   UNK N   1      32.221  16.421   7.528  0.00  0.00    -0.149 SA
BRANCH   6   7
HETATM    7  C   UNK N   1      32.952  17.828   8.422  0.00  0.00     0.184 C 
BRANCH   7   8
HETATM    8  C   UNK N   1      34.233  18.277   7.797  0.00  0.00     0.149 C 
HETATM    9  O   UNK N   1      34.972  19.049   8.385  0.00  0.00    -0.649 OA
BRANCH   8  10
HETATM   10  O   UNK N   1      34.587  17.798   6.590  0.00  0.00    -0.776 OA
HETATM   11  H   UNK N   1      34.448  16.897   6.372  0.00  0.00     0.167 HD
ENDBRANCH   8  10
ENDBRANCH   7   8
ENDBRANCH   6   7
ENDBRANCH   5   6
ENDBRANCH   3   5
BRANCH   2  12
HETATM   12  C   UNK N   1      35.023  13.844  11.009  0.00  0.00     0.166 C 
HETATM   13  C   UNK N   1      34.884  12.465  11.636  0.00  0.00     0.044 C 
HETATM   14  C   UNK N   1      36.120  12.240  12.489  0.00  0.00     0.085 C 
HETATM   15  S   UNK N   1      36.432  13.778  13.414  0.00  0.00    -0.090 SA
HETATM   16  C   UNK N   1      35.659  14.667  12.073  0.00  0.00     0.208 C 
HETATM   17  O   UNK N   1      35.716  15.883  12.004  0.00  0.00    -0.283 OA
ENDBRANCH   2  12
TORSDOF 6
ENDMDL
MODEL 6
REMARK VINA RESULT:      -4.7     13.022     15.716
REMARK  6 active torsions:
REMARK  status: ('A' for Active; 'I' for Inactive)
REMARK    1  A    between atoms: S_2  and  C_13 
REMARK    2  A    between atoms: S_2  and  C_14 
REMARK    3  A    between atoms: O_5  and  C_15 
REMARK    4  A    between atoms: N_7  and  C_8 
REMARK       I    between atoms: N_7  and  C_12 
REMARK    5  A    between atoms: C_12  and  C_13 
REMARK    6  A    between atoms: C_14  and  C_15 
ROOT
HETATM    1  O   UNK N   1      20.019  14.174   7.560  0.00  0.00    -0.273 OA
HETATM    2  N   UNK N   1      21.442  15.910   7.568  0.00  0.00    -0.348 N 
HETATM    3  C   UNK N   1      20.906  14.793   8.127  0.00  0.00     0.227 C 
HETATM    4  H   UNK N   1      22.200  16.346   8.020  0.00  0.00     0.163 HD
ENDROOT
BRANCH   3   5
HETATM    5  C   UNK N   1      21.423  14.309   9.442  0.00  0.00     0.177 C 
BRANCH   5   6
HETATM    6  S   UNK N   1      21.717  12.511   9.407  0.00  0.00    -0.149 SA
BRANCH   6   7
HETATM    7  C   UNK N   1      22.813  12.602  10.858  0.00  0.00     0.184 C 
BRANCH   7   8
HETATM    8  C   UNK N   1      24.250  12.446  10.478  0.00  0.00     0.149 C 
HETATM    9  O   UNK N   1      24.572  12.337   9.307  0.00  0.00    -0.649 OA
BRANCH   8  10
HETATM   10  O   UNK N   1      25.196  12.458  11.436  0.00  0.00    -0.776 OA
HETATM   11  H   UNK N   1      24.965  12.361  12.339  0.00  0.00     0.167 HD
ENDBRANCH   8  10
ENDBRANCH   7   8
ENDBRANCH   6   7
ENDBRANCH   5   6
ENDBRANCH   3   5
BRANCH   2  12
HETATM   12  C   UNK N   1      20.946  16.488   6.334  0.00  0.00     0.166 C 
HETATM   13  C   UNK N   1      21.682  15.941   5.120  0.00  0.00     0.044 C 
HETATM   14  C   UNK N   1      21.516  16.960   4.006  0.00  0.00     0.085 C 
HETATM   15  S   UNK N   1      21.784  18.609   4.730  0.00  0.00    -0.090 SA
HETATM   16  C   UNK N   1      21.196  17.954   6.282  0.00  0.00     0.208 C 
HETATM   17  O   UNK N   1      20.947  18.687   7.225  0.00  0.00    -0.283 OA
ENDBRANCH   2  12
TORSDOF 6
ENDMDL
MODEL 7
REMARK VINA RESULT:      -4.6      2.571      3.265
REMARK  6 active torsions:
REMARK  status: ('A' for Active; 'I' for Inactive)
REMARK    1  A    between atoms: S_2  and  C_13 
REMARK    2  A    between atoms: S_2  and  C_14 
REMARK    3  A    between atoms: O_5  and  C_15 
REMARK    4  A    between atoms: N_7  and  C_8 
REMARK       I    between atoms: N_7  and  C_12 
REMARK    5  A    between atoms: C_12  and  C_13 
REMARK    6  A    between atoms: C_14  and  C_15 
ROOT
HETATM    1  O   UNK N   1      32.745  13.166   8.237  0.00  0.00    -0.273 OA
HETATM    2  N   UNK N   1      34.158  14.628   9.189  0.00  0.00    -0.348 N 
HETATM    3  C   UNK N   1      33.268  14.270   8.226  0.00  0.00     0.227 C 
HETATM    4  H   UNK N   1      34.509  15.547   9.187  0.00  0.00     0.163 HD
ENDROOT
BRANCH   3   5
HETATM    5  C   UNK N   1      32.913  15.248   7.154  0.00  0.00     0.177 C 
BRANCH   5   6
HETATM    6  S   UNK N   1      34.393  16.127   6.555  0.00  0.00    -0.149 SA
BRANCH   6   7
HETATM    7  C   UNK N   1      33.772  17.720   7.179  0.00  0.00     0.184 C 
BRANCH   7   8
HETATM    8  C   UNK N   1      34.482  18.143   8.424  0.00  0.00     0.149 C 
HETATM    9  O   UNK N   1      35.218  19.115   8.417  0.00  0.00    -0.649 OA
BRANCH   8  10
HETATM   10  O   UNK N   1      34.281  17.461   9.568  0.00  0.00    -0.776 OA
HETATM   11  H   UNK N   1      33.537  17.640  10.108  0.00  0.00     0.167 HD
ENDBRANCH   8  10
ENDBRANCH   7   8
ENDBRANCH   6   7
ENDBRANCH   5   6
ENDBRANCH   3   5
BRANCH   2  12
HETATM   12  C   UNK N   1      34.613  13.714  10.219  0.00  0.00     0.166 C 
HETATM   13  C   UNK N   1      34.717  14.398  11.573  0.00  0.00     0.044 C 
HETATM   14  C   UNK N   1      35.690  13.584  12.407  0.00  0.00     0.085 C 
HETATM   15  S   UNK N   1      37.106  13.167  11.341  0.00  0.00    -0.090 SA
HETATM   16  C   UNK N   1      35.995  13.233   9.947  0.00  0.00     0.208 C 
HETATM   17  O   UNK N   1      36.337  12.836   8.845  0.00  0.00    -0.283 OA
ENDBRANCH   2  12
TORSDOF 6
ENDMDL
MODEL 8
REMARK VINA RESULT:      -4.6      2.592      3.484
REMARK  6 active torsions:
REMARK  status: ('A' for Active; 'I' for Inactive)
REMARK    1  A    between atoms: S_2  and  C_13 
REMARK    2  A    between atoms: S_2  and  C_14 
REMARK    3  A    between atoms: O_5  and  C_15 
REMARK    4  A    between atoms: N_7  and  C_8 
REMARK       I    between atoms: N_7  and  C_12 
REMARK    5  A    between atoms: C_12  and  C_13 
REMARK    6  A    between atoms: C_14  and  C_15 
ROOT
HETATM    1  O   UNK N   1      34.456  12.835  13.738  0.00  0.00    -0.273 OA
HETATM    2  N   UNK N   1      35.895  13.213  15.419  0.00  0.00    -0.348 N 
HETATM    3  C   UNK N   1      35.457  13.403  14.147  0.00  0.00     0.227 C 
HETATM    4  H   UNK N   1      36.666  13.736  15.736  0.00  0.00     0.163 HD
ENDROOT
BRANCH   3   5
HETATM    5  C   UNK N   1      36.201  14.335  13.246  0.00  0.00     0.177 C 
BRANCH   5   6
HETATM    6  S   UNK N   1      35.843  13.977  11.496  0.00  0.00    -0.149 SA
BRANCH   6   7
HETATM    7  C   UNK N   1      36.430  15.621  10.978  0.00  0.00     0.184 C 
BRANCH   7   8
HETATM    8  C   UNK N   1      35.298  16.517  10.593  0.00  0.00     0.149 C 
HETATM    9  O   UNK N   1      35.513  17.648  10.188  0.00  0.00    -0.649 OA
BRANCH   8  10
HETATM   10  O   UNK N   1      34.034  16.059  10.663  0.00  0.00    -0.776 OA
HETATM   11  H   UNK N   1      33.418  16.439  11.258  0.00  0.00     0.167 HD
ENDBRANCH   8  10
ENDBRANCH   7   8
ENDBRANCH   6   7
ENDBRANCH   5   6
ENDBRANCH   3   5
BRANCH   2  12
HETATM   12  C   UNK N   1      35.277  12.270  16.331  0.00  0.00     0.166 C 
HETATM   13  C   UNK N   1      35.268  12.791  17.760  0.00  0.00     0.044 C 
HETATM   14  C   UNK N   1      35.146  11.583  18.672  0.00  0.00     0.085 C 
HETATM   15  S   UNK N   1      36.278  10.304  18.037  0.00  0.00    -0.090 SA
HETATM   16  C   UNK N   1      36.053  11.003  16.411  0.00  0.00     0.208 C 
HETATM   17  O   UNK N   1      36.456  10.427  15.413  0.00  0.00    -0.283 OA
ENDBRANCH   2  12
TORSDOF 6
ENDMDL
MODEL 9
REMARK VINA RESULT:      -4.6     13.131     15.679
REMARK  6 active torsions:
REMARK  status: ('A' for Active; 'I' for Inactive)
REMARK    1  A    between atoms: S_2  and  C_13 
REMARK    2  A    between atoms: S_2  and  C_14 
REMARK    3  A    between atoms: O_5  and  C_15 
REMARK    4  A    between atoms: N_7  and  C_8 
REMARK       I    between atoms: N_7  and  C_12 
REMARK    5  A    between atoms: C_12  and  C_13 
REMARK    6  A    between atoms: C_14  and  C_15 
ROOT
HETATM    1  O   UNK N   1      22.954  16.680   3.924  0.00  0.00    -0.273 OA
HETATM    2  N   UNK N   1      23.573  18.836   4.031  0.00  0.00    -0.348 N 
HETATM    3  C   UNK N   1      22.638  17.850   4.081  0.00  0.00     0.227 C 
HETATM    4  H   UNK N   1      23.294  19.759   4.227  0.00  0.00     0.163 HD
ENDROOT
BRANCH   3   5
HETATM    5  C   UNK N   1      21.212  18.203   4.351  0.00  0.00     0.177 C 
BRANCH   5   6
HETATM    6  S   UNK N   1      20.265  18.331   2.799  0.00  0.00    -0.149 SA
BRANCH   6   7
HETATM    7  C   UNK N   1      20.146  20.141   2.952  0.00  0.00     0.184 C 
BRANCH   7   8
HETATM    8  C   UNK N   1      21.049  20.839   1.987  0.00  0.00     0.149 C 
HETATM    9  O   UNK N   1      20.587  21.497   1.071  0.00  0.00    -0.649 OA
BRANCH   8  10
HETATM   10  O   UNK N   1      22.383  20.766   2.154  0.00  0.00    -0.776 OA
HETATM   11  H   UNK N   1      22.895  20.152   1.665  0.00  0.00     0.167 HD
ENDBRANCH   8  10
ENDBRANCH   7   8
ENDBRANCH   6   7
ENDBRANCH   5   6
ENDBRANCH   3   5
BRANCH   2  12
HETATM   12  C   UNK N   1      24.962  18.587   3.699  0.00  0.00     0.166 C 
HETATM   13  C   UNK N   1      25.766  18.168   4.921  0.00  0.00     0.044 C 
HETATM   14  C   UNK N   1      27.222  18.477   4.621  0.00  0.00     0.085 C 
HETATM   15  S   UNK N   1      27.282  20.127   3.851  0.00  0.00    -0.090 SA
HETATM   16  C   UNK N   1      25.638  19.825   3.226  0.00  0.00     0.208 C 
HETATM   17  O   UNK N   1      25.130  20.564   2.398  0.00  0.00    -0.283 OA
ENDBRANCH   2  12
TORSDOF 6
ENDMDL
