MODEL 1
REMARK VINA RESULT:      -7.1      0.000      0.000
REMARK  11 active torsions:
REMARK  status: ('A' for Active; 'I' for Inactive)
REMARK    1  A    between atoms: O_1  and  C_20 
REMARK    2  A    between atoms: O_4  and  C_24 
REMARK    3  A    between atoms: C_10  and  N_6 
REMARK       I    between atoms: N_6  and  C_17 
REMARK    4  A    between atoms: C_18  and  N_8 
REMARK    5  A    between atoms: C_9  and  C_10 
REMARK    6  A    between atoms: C_9  and  C_11 
REMARK    7  A    between atoms: C_10  and  C_20 
REMARK    8  A    between atoms: C_14  and  C_15 
REMARK    9  A    between atoms: C_14  and  C_17 
REMARK   10  A    between atoms: C_15  and  C_18 
REMARK   11  A    between atoms: C_18  and  C_24 
ROOT
HETATM    1  C   UNK N   1      20.056  15.314   7.663  0.00  0.00     0.186 C 
ENDROOT
BRANCH   1   2
HETATM    2  N   UNK N   1      20.191  15.534   6.228  0.00  0.00    -0.346 N 
HETATM    3  C   UNK N   1      19.231  15.822   5.307  0.00  0.00     0.218 C 
HETATM    4  O   UNK N   1      18.048  15.866   5.605  0.00  0.00    -0.274 OA
HETATM    5  H   UNK N   1      21.108  15.463   5.875  0.00  0.00     0.163 HD
BRANCH   3   6
HETATM    6  C   UNK N   1      19.636  16.090   3.896  0.00  0.00     0.105 C 
BRANCH   6   7
HETATM    7  C   UNK N   1      20.304  17.456   3.809  0.00  0.00     0.044 C 
BRANCH   7   8
HETATM    8  C   UNK N   1      19.518  18.438   2.946  0.00  0.00     0.173 C 
BRANCH   8   9
HETATM    9  N   UNK N   1      19.206  17.837   1.658  0.00  0.00    -0.418 N 
HETATM   10  H   UNK N   1      18.365  17.771   1.085  0.00  0.00     0.150 HD
HETATM   11  H   UNK N   1      20.011  17.378   1.232  0.00  0.00     0.150 HD
ENDBRANCH   8   9
BRANCH   8  12
HETATM   12  C   UNK N   1      20.247  19.744   2.777  0.00  0.00     0.163 C 
HETATM   13  O   UNK N   1      20.767  20.016   1.708  0.00  0.00    -0.648 OA
BRANCH  12  14
HETATM   14  O   UNK N   1      20.328  20.620   3.799  0.00  0.00    -0.775 OA
HETATM   15  H   UNK N   1      20.105  21.508   4.000  0.00  0.00     0.167 HD
ENDBRANCH  12  14
ENDBRANCH   8  12
ENDBRANCH   7   8
ENDBRANCH   6   7
ENDBRANCH   3   6
ENDBRANCH   1   2
BRANCH   1  16
HETATM   16  C   UNK N   1      21.413  14.807   8.154  0.00  0.00     0.077 C 
BRANCH  16  17
HETATM   17  C   UNK N   1      21.454  13.855   9.313  0.00  0.00    -0.028 A 
HETATM   18  C   UNK N   1      22.599  13.299   9.818  0.00  0.00    -0.002 A 
HETATM   19  C   UNK N   1      22.230  12.527  10.880  0.00  0.00     0.042 A 
HETATM   20  C   UNK N   1      23.926  13.421   9.417  0.00  0.00     0.014 A 
HETATM   21  N   UNK N   1      20.901  12.564  11.070  0.00  0.00    -0.365 N 
HETATM   22  C   UNK N   1      23.167  11.815  11.628  0.00  0.00     0.030 A 
HETATM   23  C   UNK N   1      20.407  13.383  10.103  0.00  0.00     0.096 A 
HETATM   24  H   UNK N   1      20.388  12.094  11.766  0.00  0.00     0.165 HD
HETATM   25  C   UNK N   1      24.519  11.914  11.250  0.00  0.00     0.002 A 
HETATM   26  C   UNK N   1      24.898  12.713  10.146  0.00  0.00     0.001 A 
ENDBRANCH  16  17
ENDBRANCH   1  16
BRANCH   1  27
HETATM   27  C   UNK N   1      19.533  16.487   8.452  0.00  0.00     0.163 C 
HETATM   28  O   UNK N   1      20.298  17.326   8.904  0.00  0.00    -0.648 OA
BRANCH  27  29
HETATM   29  O   UNK N   1      18.212  16.590   8.690  0.00  0.00    -0.775 OA
HETATM   30  H   UNK N   1      17.507  17.037   8.264  0.00  0.00     0.167 HD
ENDBRANCH  27  29
ENDBRANCH   1  27
TORSDOF 11
ENDMDL
MODEL 2
REMARK VINA RESULT:      -6.9      9.754     12.237
REMARK  11 active torsions:
REMARK  status: ('A' for Active; 'I' for Inactive)
REMARK    1  A    between atoms: O_1  and  C_20 
REMARK    2  A    between atoms: O_4  and  C_24 
REMARK    3  A    between atoms: C_10  and  N_6 
REMARK       I    between atoms: N_6  and  C_17 
REMARK    4  A    between atoms: C_18  and  N_8 
REMARK    5  A    between atoms: C_9  and  C_10 
REMARK    6  A    between atoms: C_9  and  C_11 
REMARK    7  A    between atoms: C_10  and  C_20 
REMARK    8  A    between atoms: C_14  and  C_15 
REMARK    9  A    between atoms: C_14  and  C_17 
REMARK   10  A    between atoms: C_15  and  C_18 
REMARK   11  A    between atoms: C_18  and  C_24 
ROOT
HETATM    1  C   UNK N   1      30.307  16.203   5.516  0.00  0.00     0.186 C 
ENDROOT
BRANCH   1   2
HETATM    2  N   UNK N   1      31.074  16.332   6.749  0.00  0.00    -0.346 N 
HETATM    3  C   UNK N   1      31.764  15.382   7.437  0.00  0.00     0.218 C 
HETATM    4  O   UNK N   1      31.758  14.210   7.096  0.00  0.00    -0.274 OA
HETATM    5  H   UNK N   1      31.094  17.236   7.140  0.00  0.00     0.163 HD
BRANCH   3   6
HETATM    6  C   UNK N   1      32.549  15.785   8.642  0.00  0.00     0.105 C 
BRANCH   6   7
HETATM    7  C   UNK N   1      34.036  15.631   8.354  0.00  0.00     0.044 C 
BRANCH   7   8
HETATM    8  C   UNK N   1      34.844  16.854   8.778  0.00  0.00     0.173 C 
BRANCH   8   9
HETATM    9  N   UNK N   1      34.602  17.156  10.181  0.00  0.00    -0.418 N 
HETATM   10  H   UNK N   1      34.913  17.888  10.818  0.00  0.00     0.150 HD
HETATM   11  H   UNK N   1      33.981  16.481  10.627  0.00  0.00     0.150 HD
ENDBRANCH   8   9
BRANCH   8  12
HETATM   12  C   UNK N   1      34.556  18.046   7.905  0.00  0.00     0.163 C 
HETATM   13  O   UNK N   1      34.730  19.174   8.339  0.00  0.00    -0.648 OA
BRANCH  12  14
HETATM   14  O   UNK N   1      34.108  17.880   6.644  0.00  0.00    -0.775 OA
HETATM   15  H   UNK N   1      33.856  18.392   5.901  0.00  0.00     0.167 HD
ENDBRANCH  12  14
ENDBRANCH   8  12
ENDBRANCH   7   8
ENDBRANCH   6   7
ENDBRANCH   3   6
ENDBRANCH   1   2
BRANCH   1  16
HETATM   16  C   UNK N   1      28.836  16.365   5.900  0.00  0.00     0.077 C 
BRANCH  16  17
HETATM   17  C   UNK N   1      28.427  17.559   6.712  0.00  0.00    -0.028 A 
HETATM   18  C   UNK N   1      27.958  18.732   6.181  0.00  0.00    -0.002 A 
HETATM   19  C   UNK N   1      27.662  19.551   7.230  0.00  0.00     0.042 A 
HETATM   20  C   UNK N   1      27.776  19.126   4.859  0.00  0.00     0.014 A 
HETATM   21  N   UNK N   1      27.924  18.952   8.404  0.00  0.00    -0.365 N 
HETATM   22  C   UNK N   1      27.154  20.835   7.037  0.00  0.00     0.030 A 
HETATM   23  C   UNK N   1      28.402  17.717   8.096  0.00  0.00     0.096 A 
HETATM   24  H   UNK N   1      27.798  19.330   9.304  0.00  0.00     0.165 HD
HETATM   25  C   UNK N   1      26.958  21.269   5.712  0.00  0.00     0.002 A 
HETATM   26  C   UNK N   1      27.270  20.418   4.626  0.00  0.00     0.001 A 
ENDBRANCH  16  17
ENDBRANCH   1  16
BRANCH   1  27
HETATM   27  C   UNK N   1      30.736  17.108   4.388  0.00  0.00     0.163 C 
HETATM   28  O   UNK N   1      31.735  17.804   4.492  0.00  0.00    -0.648 OA
BRANCH  27  29
HETATM   29  O   UNK N   1      29.987  17.175   3.271  0.00  0.00    -0.775 OA
HETATM   30  H   UNK N   1      29.164  16.807   3.016  0.00  0.00     0.167 HD
ENDBRANCH  27  29
ENDBRANCH   1  27
TORSDOF 11
ENDMDL
MODEL 3
REMARK VINA RESULT:      -6.9     13.733     16.803
REMARK  11 active torsions:
REMARK  status: ('A' for Active; 'I' for Inactive)
REMARK    1  A    between atoms: O_1  and  C_20 
REMARK    2  A    between atoms: O_4  and  C_24 
REMARK    3  A    between atoms: C_10  and  N_6 
REMARK       I    between atoms: N_6  and  C_17 
REMARK    4  A    between atoms: C_18  and  N_8 
REMARK    5  A    between atoms: C_9  and  C_10 
REMARK    6  A    between atoms: C_9  and  C_11 
REMARK    7  A    between atoms: C_10  and  C_20 
REMARK    8  A    between atoms: C_14  and  C_15 
REMARK    9  A    between atoms: C_14  and  C_17 
REMARK   10  A    between atoms: C_15  and  C_18 
REMARK   11  A    between atoms: C_18  and  C_24 
ROOT
HETATM    1  C   UNK N   1      36.785  13.269  14.916  0.00  0.00     0.186 C 
ENDROOT
BRANCH   1   2
HETATM    2  N   UNK N   1      36.727  14.298  13.886  0.00  0.00    -0.346 N 
HETATM    3  C   UNK N   1      35.930  14.370  12.784  0.00  0.00     0.218 C 
HETATM    4  O   UNK N   1      35.161  13.469  12.489  0.00  0.00    -0.274 OA
HETATM    5  H   UNK N   1      37.354  15.048  14.003  0.00  0.00     0.163 HD
BRANCH   3   6
HETATM    6  C   UNK N   1      36.000  15.582  11.915  0.00  0.00     0.105 C 
BRANCH   6   7
HETATM    7  C   UNK N   1      35.968  15.161  10.452  0.00  0.00     0.044 C 
BRANCH   7   8
HETATM    8  C   UNK N   1      34.802  15.783   9.690  0.00  0.00     0.173 C 
BRANCH   8   9
HETATM    9  N   UNK N   1      34.595  17.157  10.122  0.00  0.00    -0.418 N 
HETATM   10  H   UNK N   1      34.716  18.070   9.684  0.00  0.00     0.150 HD
HETATM   11  H   UNK N   1      34.251  17.221  11.079  0.00  0.00     0.150 HD
ENDBRANCH   8   9
BRANCH   8  12
HETATM   12  C   UNK N   1      33.542  14.971   9.830  0.00  0.00     0.163 C 
HETATM   13  O   UNK N   1      33.132  14.318   8.884  0.00  0.00    -0.648 OA
BRANCH  12  14
HETATM   14  O   UNK N   1      32.863  14.956  10.994  0.00  0.00    -0.775 OA
HETATM   15  H   UNK N   1      32.892  15.348  11.844  0.00  0.00     0.167 HD
ENDBRANCH  12  14
ENDBRANCH   8  12
ENDBRANCH   7   8
ENDBRANCH   6   7
ENDBRANCH   3   6
ENDBRANCH   1   2
BRANCH   1  16
HETATM   16  C   UNK N   1      35.408  13.242  15.581  0.00  0.00     0.077 C 
BRANCH  16  17
HETATM   17  C   UNK N   1      35.327  13.151  17.077  0.00  0.00    -0.028 A 
HETATM   18  C   UNK N   1      35.215  11.979  17.776  0.00  0.00    -0.002 A 
HETATM   19  C   UNK N   1      35.208  12.306  19.100  0.00  0.00     0.042 A 
HETATM   20  C   UNK N   1      35.117  10.661  17.338  0.00  0.00     0.014 A 
HETATM   21  N   UNK N   1      35.309  13.635  19.273  0.00  0.00    -0.365 N 
HETATM   22  C   UNK N   1      35.107  11.334  20.094  0.00  0.00     0.030 A 
HETATM   23  C   UNK N   1      35.381  14.171  18.025  0.00  0.00     0.096 A 
HETATM   24  H   UNK N   1      35.327  14.122  20.128  0.00  0.00     0.165 HD
HETATM   25  C   UNK N   1      35.006   9.990  19.688  0.00  0.00     0.002 A 
HETATM   26  C   UNK N   1      35.008   9.654  18.314  0.00  0.00     0.001 A 
ENDBRANCH  16  17
ENDBRANCH   1  16
BRANCH   1  27
HETATM   27  C   UNK N   1      37.253  11.912  14.452  0.00  0.00     0.163 C 
HETATM   28  O   UNK N   1      36.451  11.017  14.232  0.00  0.00    -0.648 OA
BRANCH  27  29
HETATM   29  O   UNK N   1      38.571  11.678  14.314  0.00  0.00    -0.775 OA
HETATM   30  H   UNK N   1      39.267  12.118  13.866  0.00  0.00     0.167 HD
ENDBRANCH  27  29
ENDBRANCH   1  27
TORSDOF 11
ENDMDL
MODEL 4
REMARK VINA RESULT:      -6.8      1.501      2.170
REMARK  11 active torsions:
REMARK  status: ('A' for Active; 'I' for Inactive)
REMARK    1  A    between atoms: O_1  and  C_20 
REMARK    2  A    between atoms: O_4  and  C_24 
REMARK    3  A    between atoms: C_10  and  N_6 
REMARK       I    between atoms: N_6  and  C_17 
REMARK    4  A    between atoms: C_18  and  N_8 
REMARK    5  A    between atoms: C_9  and  C_10 
REMARK    6  A    between atoms: C_9  and  C_11 
REMARK    7  A    between atoms: C_10  and  C_20 
REMARK    8  A    between atoms: C_14  and  C_15 
REMARK    9  A    between atoms: C_14  and  C_17 
REMARK   10  A    between atoms: C_15  and  C_18 
REMARK   11  A    between atoms: C_18  and  C_24 
ROOT
HETATM    1  C   UNK N   1      20.008  15.528   7.050  0.00  0.00     0.186 C 
ENDROOT
BRANCH   1   2
HETATM    2  N   UNK N   1      20.791  16.337   6.125  0.00  0.00    -0.346 N 
HETATM    3  C   UNK N   1      20.486  16.739   4.860  0.00  0.00     0.218 C 
HETATM    4  O   UNK N   1      19.462  16.378   4.302  0.00  0.00    -0.274 OA
HETATM    5  H   UNK N   1      21.667  16.635   6.462  0.00  0.00     0.163 HD
BRANCH   3   6
HETATM    6  C   UNK N   1      21.427  17.645   4.139  0.00  0.00     0.105 C 
BRANCH   6   7
HETATM    7  C   UNK N   1      20.923  17.878   2.721  0.00  0.00     0.044 C 
BRANCH   7   8
HETATM    8  C   UNK N   1      20.146  19.185   2.584  0.00  0.00     0.173 C 
BRANCH   8   9
HETATM    9  N   UNK N   1      18.730  18.910   2.392  0.00  0.00    -0.418 N 
HETATM   10  H   UNK N   1      18.022  19.232   1.732  0.00  0.00     0.150 HD
HETATM   11  H   UNK N   1      18.362  18.245   3.072  0.00  0.00     0.150 HD
ENDBRANCH   8   9
BRANCH   8  12
HETATM   12  C   UNK N   1      20.691  20.047   1.477  0.00  0.00     0.163 C 
HETATM   13  O   UNK N   1      21.231  21.108   1.743  0.00  0.00    -0.648 OA
BRANCH  12  14
HETATM   14  O   UNK N   1      20.587  19.657   0.190  0.00  0.00    -0.775 OA
HETATM   15  H   UNK N   1      20.727  18.898  -0.340  0.00  0.00     0.167 HD
ENDBRANCH  12  14
ENDBRANCH   8  12
ENDBRANCH   7   8
ENDBRANCH   6   7
ENDBRANCH   3   6
ENDBRANCH   1   2
BRANCH   1  16
HETATM   16  C   UNK N   1      20.602  14.120   7.005  0.00  0.00     0.077 C 
BRANCH  16  17
HETATM   17  C   UNK N   1      21.937  13.876   7.645  0.00  0.00    -0.028 A 
HETATM   18  C   UNK N   1      22.113  13.278   8.864  0.00  0.00    -0.002 A 
HETATM   19  C   UNK N   1      23.458  13.205   9.079  0.00  0.00     0.042 A 
HETATM   20  C   UNK N   1      21.189  12.799   9.788  0.00  0.00     0.014 A 
HETATM   21  N   UNK N   1      24.144  13.734   8.052  0.00  0.00    -0.365 N 
HETATM   22  C   UNK N   1      23.985  12.641  10.240  0.00  0.00     0.030 A 
HETATM   23  C   UNK N   1      23.212  14.156   7.156  0.00  0.00     0.096 A 
HETATM   24  H   UNK N   1      25.122  13.802   7.964  0.00  0.00     0.165 HD
HETATM   25  C   UNK N   1      23.079  12.148  11.198  0.00  0.00     0.002 A 
HETATM   26  C   UNK N   1      21.685  12.229  10.974  0.00  0.00     0.001 A 
ENDBRANCH  16  17
ENDBRANCH   1  16
BRANCH   1  27
HETATM   27  C   UNK N   1      19.881  16.082   8.447  0.00  0.00     0.163 C 
HETATM   28  O   UNK N   1      20.607  16.987   8.828  0.00  0.00    -0.648 OA
BRANCH  27  29
HETATM   29  O   UNK N   1      18.981  15.546   9.293  0.00  0.00    -0.775 OA
HETATM   30  H   UNK N   1      18.881  14.702   9.688  0.00  0.00     0.167 HD
ENDBRANCH  27  29
ENDBRANCH   1  27
TORSDOF 11
ENDMDL
MODEL 5
REMARK VINA RESULT:      -6.8     12.339     14.426
REMARK  11 active torsions:
REMARK  status: ('A' for Active; 'I' for Inactive)
REMARK    1  A    between atoms: O_1  and  C_20 
REMARK    2  A    between atoms: O_4  and  C_24 
REMARK    3  A    between atoms: C_10  and  N_6 
REMARK       I    between atoms: N_6  and  C_17 
REMARK    4  A    between atoms: C_18  and  N_8 
REMARK    5  A    between atoms: C_9  and  C_10 
REMARK    6  A    between atoms: C_9  and  C_11 
REMARK    7  A    between atoms: C_10  and  C_20 
REMARK    8  A    between atoms: C_14  and  C_15 
REMARK    9  A    between atoms: C_14  and  C_17 
REMARK   10  A    between atoms: C_15  and  C_18 
REMARK   11  A    between atoms: C_18  and  C_24 
ROOT
HETATM    1  C   UNK N   1      34.784  15.408  11.311  0.00  0.00     0.186 C 
ENDROOT
BRANCH   1   2
HETATM    2  N   UNK N   1      33.696  15.235  10.357  0.00  0.00    -0.346 N 
HETATM    3  C   UNK N   1      33.732  14.733   9.092  0.00  0.00     0.218 C 
HETATM    4  O   UNK N   1      34.781  14.407   8.560  0.00  0.00    -0.274 OA
HETATM    5  H   UNK N   1      32.809  15.523  10.672  0.00  0.00     0.163 HD
BRANCH   3   6
HETATM    6  C   UNK N   1      32.454  14.577   8.336  0.00  0.00     0.105 C 
BRANCH   6   7
HETATM    7  C   UNK N   1      32.552  15.322   7.012  0.00  0.00     0.044 C 
BRANCH   7   8
HETATM    8  C   UNK N   1      32.219  16.805   7.148  0.00  0.00     0.173 C 
BRANCH   8   9
HETATM    9  N   UNK N   1      31.494  17.268   5.974  0.00  0.00    -0.418 N 
HETATM   10  H   UNK N   1      31.716  17.346   4.981  0.00  0.00     0.150 HD
HETATM   11  H   UNK N   1      30.550  17.586   6.194  0.00  0.00     0.150 HD
ENDBRANCH   8   9
BRANCH   8  12
HETATM   12  C   UNK N   1      33.449  17.637   7.393  0.00  0.00     0.163 C 
HETATM   13  O   UNK N   1      34.201  17.897   6.468  0.00  0.00    -0.648 OA
BRANCH  12  14
HETATM   14  O   UNK N   1      33.728  18.099   8.629  0.00  0.00    -0.775 OA
HETATM   15  H   UNK N   1      34.406  18.052   9.274  0.00  0.00     0.167 HD
ENDBRANCH  12  14
ENDBRANCH   8  12
ENDBRANCH   7   8
ENDBRANCH   6   7
ENDBRANCH   3   6
ENDBRANCH   1   2
BRANCH   1  16
HETATM   16  C   UNK N   1      35.245  14.004  11.703  0.00  0.00     0.077 C 
BRANCH  16  17
HETATM   17  C   UNK N   1      35.583  13.728  13.139  0.00  0.00    -0.028 A 
HETATM   18  C   UNK N   1      35.139  12.640  13.843  0.00  0.00    -0.002 A 
HETATM   19  C   UNK N   1      35.687  12.724  15.090  0.00  0.00     0.042 A 
HETATM   20  C   UNK N   1      34.298  11.594  13.473  0.00  0.00     0.014 A 
HETATM   21  N   UNK N   1      36.456  13.819  15.210  0.00  0.00    -0.365 N 
HETATM   22  C   UNK N   1      35.436  11.761  16.066  0.00  0.00     0.030 A 
HETATM   23  C   UNK N   1      36.399  14.451  14.007  0.00  0.00     0.096 A 
HETATM   24  H   UNK N   1      36.959  14.106  16.005  0.00  0.00     0.165 HD
HETATM   25  C   UNK N   1      34.589  10.689  15.727  0.00  0.00     0.002 A 
HETATM   26  C   UNK N   1      34.019  10.607  14.435  0.00  0.00     0.001 A 
ENDBRANCH  16  17
ENDBRANCH   1  16
BRANCH   1  27
HETATM   27  C   UNK N   1      35.910  16.303  10.855  0.00  0.00     0.163 C 
HETATM   28  O   UNK N   1      35.688  17.445  10.484  0.00  0.00    -0.648 OA
BRANCH  27  29
HETATM   29  O   UNK N   1      37.167  15.823  10.825  0.00  0.00    -0.775 OA
HETATM   30  H   UNK N   1      37.540  14.967  10.912  0.00  0.00     0.167 HD
ENDBRANCH  27  29
ENDBRANCH   1  27
TORSDOF 11
ENDMDL
MODEL 6
REMARK VINA RESULT:      -6.8     13.861     15.861
REMARK  11 active torsions:
REMARK  status: ('A' for Active; 'I' for Inactive)
REMARK    1  A    between atoms: O_1  and  C_20 
REMARK    2  A    between atoms: O_4  and  C_24 
REMARK    3  A    between atoms: C_10  and  N_6 
REMARK       I    between atoms: N_6  and  C_17 
REMARK    4  A    between atoms: C_18  and  N_8 
REMARK    5  A    between atoms: C_9  and  C_10 
REMARK    6  A    between atoms: C_9  and  C_11 
REMARK    7  A    between atoms: C_10  and  C_20 
REMARK    8  A    between atoms: C_14  and  C_15 
REMARK    9  A    between atoms: C_14  and  C_17 
REMARK   10  A    between atoms: C_15  and  C_18 
REMARK   11  A    between atoms: C_18  and  C_24 
ROOT
HETATM    1  C   UNK N   1      35.336  13.091  13.556  0.00  0.00     0.186 C 
ENDROOT
BRANCH   1   2
HETATM    2  N   UNK N   1      34.769  13.624  12.324  0.00  0.00    -0.346 N 
HETATM    3  C   UNK N   1      35.110  14.747  11.634  0.00  0.00     0.218 C 
HETATM    4  O   UNK N   1      35.957  15.522  12.048  0.00  0.00    -0.274 OA
HETATM    5  H   UNK N   1      34.033  13.097  11.935  0.00  0.00     0.163 HD
BRANCH   3   6
HETATM    6  C   UNK N   1      34.429  15.037  10.337  0.00  0.00     0.105 C 
BRANCH   6   7
HETATM    7  C   UNK N   1      35.033  16.290   9.716  0.00  0.00     0.044 C 
BRANCH   7   8
HETATM    8  C   UNK N   1      33.982  17.182   9.061  0.00  0.00     0.173 C 
BRANCH   8   9
HETATM    9  N   UNK N   1      32.982  16.369   8.385  0.00  0.00    -0.418 N 
HETATM   10  H   UNK N   1      32.975  15.802   7.538  0.00  0.00     0.150 HD
HETATM   11  H   UNK N   1      32.085  16.367   8.870  0.00  0.00     0.150 HD
ENDBRANCH   8   9
BRANCH   8  12
HETATM   12  C   UNK N   1      34.602  18.180   8.119  0.00  0.00     0.163 C 
HETATM   13  O   UNK N   1      35.222  19.132   8.565  0.00  0.00    -0.648 OA
BRANCH  12  14
HETATM   14  O   UNK N   1      34.480  18.031   6.785  0.00  0.00    -0.775 OA
HETATM   15  H   UNK N   1      35.016  17.899   6.028  0.00  0.00     0.167 HD
ENDBRANCH  12  14
ENDBRANCH   8  12
ENDBRANCH   7   8
ENDBRANCH   6   7
ENDBRANCH   3   6
ENDBRANCH   1   2
BRANCH   1  16
HETATM   16  C   UNK N   1      34.380  11.998  14.037  0.00  0.00     0.077 C 
BRANCH  16  17
HETATM   17  C   UNK N   1      34.704  11.257  15.301  0.00  0.00    -0.028 A 
HETATM   18  C   UNK N   1      34.897  11.853  16.519  0.00  0.00    -0.002 A 
HETATM   19  C   UNK N   1      35.132  10.854  17.417  0.00  0.00     0.042 A 
HETATM   20  C   UNK N   1      34.883  13.194  16.891  0.00  0.00     0.014 A 
HETATM   21  N   UNK N   1      35.100   9.649  16.822  0.00  0.00    -0.365 N 
HETATM   22  C   UNK N   1      35.368  11.120  18.764  0.00  0.00     0.030 A 
HETATM   23  C   UNK N   1      34.838   9.886  15.509  0.00  0.00     0.096 A 
HETATM   24  H   UNK N   1      35.238   8.773  17.249  0.00  0.00     0.165 HD
HETATM   25  C   UNK N   1      35.362  12.466  19.177  0.00  0.00     0.002 A 
HETATM   26  C   UNK N   1      35.122  13.501  18.243  0.00  0.00     0.001 A 
ENDBRANCH  16  17
ENDBRANCH   1  16
BRANCH   1  27
HETATM   27  C   UNK N   1      36.771  12.635  13.465  0.00  0.00     0.163 C 
HETATM   28  O   UNK N   1      37.148  11.944  12.531  0.00  0.00    -0.648 OA
BRANCH  27  29
HETATM   29  O   UNK N   1      37.635  12.967  14.443  0.00  0.00    -0.775 OA
HETATM   30  H   UNK N   1      38.403  13.503  14.479  0.00  0.00     0.167 HD
ENDBRANCH  27  29
ENDBRANCH   1  27
TORSDOF 11
ENDMDL
MODEL 7
REMARK VINA RESULT:      -6.7     10.274     12.708
REMARK  11 active torsions:
REMARK  status: ('A' for Active; 'I' for Inactive)
REMARK    1  A    between atoms: O_1  and  C_20 
REMARK    2  A    between atoms: O_4  and  C_24 
REMARK    3  A    between atoms: C_10  and  N_6 
REMARK       I    between atoms: N_6  and  C_17 
REMARK    4  A    between atoms: C_18  and  N_8 
REMARK    5  A    between atoms: C_9  and  C_10 
REMARK    6  A    between atoms: C_9  and  C_11 
REMARK    7  A    between atoms: C_10  and  C_20 
REMARK    8  A    between atoms: C_14  and  C_15 
REMARK    9  A    between atoms: C_14  and  C_17 
REMARK   10  A    between atoms: C_15  and  C_18 
REMARK   11  A    between atoms: C_18  and  C_24 
ROOT
HETATM    1  C   UNK N   1      31.980  15.389   4.765  0.00  0.00     0.186 C 
ENDROOT
BRANCH   1   2
HETATM    2  N   UNK N   1      32.380  15.453   6.165  0.00  0.00    -0.346 N 
HETATM    3  C   UNK N   1      32.542  14.441   7.061  0.00  0.00     0.218 C 
HETATM    4  O   UNK N   1      32.284  13.282   6.774  0.00  0.00    -0.274 OA
HETATM    5  H   UNK N   1      32.558  16.357   6.512  0.00  0.00     0.163 HD
BRANCH   3   6
HETATM    6  C   UNK N   1      33.047  14.757   8.429  0.00  0.00     0.105 C 
BRANCH   6   7
HETATM    7  C   UNK N   1      33.015  16.264   8.648  0.00  0.00     0.044 C 
BRANCH   7   8
HETATM    8  C   UNK N   1      34.409  16.863   8.804  0.00  0.00     0.173 C 
BRANCH   8   9
HETATM    9  N   UNK N   1      34.674  17.162  10.204  0.00  0.00    -0.418 N 
HETATM   10  H   UNK N   1      34.701  16.610  11.061  0.00  0.00     0.150 HD
HETATM   11  H   UNK N   1      34.879  18.149  10.363  0.00  0.00     0.150 HD
ENDBRANCH   8   9
BRANCH   8  12
HETATM   12  C   UNK N   1      34.598  18.080   7.939  0.00  0.00     0.163 C 
HETATM   13  O   UNK N   1      34.290  18.040   6.759  0.00  0.00    -0.648 OA
BRANCH  12  14
HETATM   14  O   UNK N   1      35.102  19.218   8.459  0.00  0.00    -0.775 OA
HETATM   15  H   UNK N   1      35.910  19.691   8.494  0.00  0.00     0.167 HD
ENDBRANCH  12  14
ENDBRANCH   8  12
ENDBRANCH   7   8
ENDBRANCH   6   7
ENDBRANCH   3   6
ENDBRANCH   1   2
BRANCH   1  16
HETATM   16  C   UNK N   1      30.461  15.207   4.755  0.00  0.00     0.077 C 
BRANCH  16  17
HETATM   17  C   UNK N   1      29.587  16.422   4.647  0.00  0.00    -0.028 A 
HETATM   18  C   UNK N   1      29.221  17.209   5.707  0.00  0.00    -0.002 A 
HETATM   19  C   UNK N   1      28.463  18.225   5.203  0.00  0.00     0.042 A 
HETATM   20  C   UNK N   1      29.501  17.097   7.065  0.00  0.00     0.014 A 
HETATM   21  N   UNK N   1      28.330  18.117   3.870  0.00  0.00    -0.365 N 
HETATM   22  C   UNK N   1      27.928  19.215   6.024  0.00  0.00     0.030 A 
HETATM   23  C   UNK N   1      29.020  17.002   3.513  0.00  0.00     0.096 A 
HETATM   24  H   UNK N   1      27.833  18.721   3.273  0.00  0.00     0.165 HD
HETATM   25  C   UNK N   1      28.189  19.133   7.405  0.00  0.00     0.002 A 
HETATM   26  C   UNK N   1      28.972  18.076   7.925  0.00  0.00     0.001 A 
ENDBRANCH  16  17
ENDBRANCH   1  16
BRANCH   1  27
HETATM   27  C   UNK N   1      32.452  16.533   3.903  0.00  0.00     0.163 C 
HETATM   28  O   UNK N   1      32.608  16.386   2.701  0.00  0.00    -0.648 OA
BRANCH  27  29
HETATM   29  O   UNK N   1      32.738  17.719   4.474  0.00  0.00    -0.775 OA
HETATM   30  H   UNK N   1      33.347  18.404   4.279  0.00  0.00     0.167 HD
ENDBRANCH  27  29
ENDBRANCH   1  27
TORSDOF 11
ENDMDL
MODEL 8
REMARK VINA RESULT:      -6.7     11.324     13.098
REMARK  11 active torsions:
REMARK  status: ('A' for Active; 'I' for Inactive)
REMARK    1  A    between atoms: O_1  and  C_20 
REMARK    2  A    between atoms: O_4  and  C_24 
REMARK    3  A    between atoms: C_10  and  N_6 
REMARK       I    between atoms: N_6  and  C_17 
REMARK    4  A    between atoms: C_18  and  N_8 
REMARK    5  A    between atoms: C_9  and  C_10 
REMARK    6  A    between atoms: C_9  and  C_11 
REMARK    7  A    between atoms: C_10  and  C_20 
REMARK    8  A    between atoms: C_14  and  C_15 
REMARK    9  A    between atoms: C_14  and  C_17 
REMARK   10  A    between atoms: C_15  and  C_18 
REMARK   11  A    between atoms: C_18  and  C_24 
ROOT
HETATM    1  C   UNK N   1      33.145  17.549   8.553  0.00  0.00     0.186 C 
ENDROOT
BRANCH   1   2
HETATM    2  N   UNK N   1      31.940  17.479   7.736  0.00  0.00    -0.346 N 
HETATM    3  C   UNK N   1      30.637  17.598   8.112  0.00  0.00     0.218 C 
HETATM    4  O   UNK N   1      30.315  17.722   9.283  0.00  0.00    -0.274 OA
HETATM    5  H   UNK N   1      32.090  17.323   6.776  0.00  0.00     0.163 HD
BRANCH   3   6
HETATM    6  C   UNK N   1      29.574  17.574   7.064  0.00  0.00     0.105 C 
BRANCH   6   7
HETATM    7  C   UNK N   1      30.055  16.760   5.871  0.00  0.00     0.044 C 
BRANCH   7   8
HETATM    8  C   UNK N   1      30.230  17.609   4.615  0.00  0.00     0.173 C 
BRANCH   8   9
HETATM    9  N   UNK N   1      29.250  17.228   3.609  0.00  0.00    -0.418 N 
HETATM   10  H   UNK N   1      29.190  17.327   2.596  0.00  0.00     0.150 HD
HETATM   11  H   UNK N   1      28.439  16.755   4.008  0.00  0.00     0.150 HD
ENDBRANCH   8   9
BRANCH   8  12
HETATM   12  C   UNK N   1      31.631  17.525   4.072  0.00  0.00     0.163 C 
HETATM   13  O   UNK N   1      32.583  17.602   4.832  0.00  0.00    -0.648 OA
BRANCH  12  14
HETATM   14  O   UNK N   1      31.845  17.364   2.751  0.00  0.00    -0.775 OA
HETATM   15  H   UNK N   1      31.560  17.718   1.931  0.00  0.00     0.167 HD
ENDBRANCH  12  14
ENDBRANCH   8  12
ENDBRANCH   7   8
ENDBRANCH   6   7
ENDBRANCH   3   6
ENDBRANCH   1   2
BRANCH   1  16
HETATM   16  C   UNK N   1      33.399  16.133   9.074  0.00  0.00     0.077 C 
BRANCH  16  17
HETATM   17  C   UNK N   1      34.714  15.829   9.730  0.00  0.00    -0.028 A 
HETATM   18  C   UNK N   1      35.656  14.978   9.217  0.00  0.00    -0.002 A 
HETATM   19  C   UNK N   1      36.715  14.994  10.076  0.00  0.00     0.042 A 
HETATM   20  C   UNK N   1      35.651  14.199   8.063  0.00  0.00     0.014 A 
HETATM   21  N   UNK N   1      36.486  15.815  11.115  0.00  0.00    -0.365 N 
HETATM   22  C   UNK N   1      37.858  14.231   9.844  0.00  0.00     0.030 A 
HETATM   23  C   UNK N   1      35.247  16.338  10.914  0.00  0.00     0.096 A 
HETATM   24  H   UNK N   1      37.091  16.001  11.868  0.00  0.00     0.165 HD
HETATM   25  C   UNK N   1      37.888  13.429   8.687  0.00  0.00     0.002 A 
HETATM   26  C   UNK N   1      36.786  13.412   7.800  0.00  0.00     0.001 A 
ENDBRANCH  16  17
ENDBRANCH   1  16
BRANCH   1  27
HETATM   27  C   UNK N   1      34.347  18.166   7.883  0.00  0.00     0.163 C 
HETATM   28  O   UNK N   1      34.976  19.059   8.430  0.00  0.00    -0.648 OA
BRANCH  27  29
HETATM   29  O   UNK N   1      34.708  17.750   6.655  0.00  0.00    -0.775 OA
HETATM   30  H   UNK N   1      34.327  17.166   6.028  0.00  0.00     0.167 HD
ENDBRANCH  27  29
ENDBRANCH   1  27
TORSDOF 11
ENDMDL
MODEL 9
REMARK VINA RESULT:      -6.7     16.149     17.901
REMARK  11 active torsions:
REMARK  status: ('A' for Active; 'I' for Inactive)
REMARK    1  A    between atoms: O_1  and  C_20 
REMARK    2  A    between atoms: O_4  and  C_24 
REMARK    3  A    between atoms: C_10  and  N_6 
REMARK       I    between atoms: N_6  and  C_17 
REMARK    4  A    between atoms: C_18  and  N_8 
REMARK    5  A    between atoms: C_9  and  C_10 
REMARK    6  A    between atoms: C_9  and  C_11 
REMARK    7  A    between atoms: C_10  and  C_20 
REMARK    8  A    between atoms: C_14  and  C_15 
REMARK    9  A    between atoms: C_14  and  C_17 
REMARK   10  A    between atoms: C_15  and  C_18 
REMARK   11  A    between atoms: C_18  and  C_24 
ROOT
HETATM    1  C   UNK N   1      29.415  23.707  -4.082  0.00  0.00     0.186 C 
ENDROOT
BRANCH   1   2
HETATM    2  N   UNK N   1      29.754  22.368  -4.547  0.00  0.00    -0.346 N 
HETATM    3  C   UNK N   1      30.296  21.979  -5.734  0.00  0.00     0.218 C 
HETATM    4  O   UNK N   1      30.513  22.777  -6.632  0.00  0.00    -0.274 OA
HETATM    5  H   UNK N   1      29.563  21.640  -3.912  0.00  0.00     0.163 HD
BRANCH   3   6
HETATM    6  C   UNK N   1      30.632  20.540  -5.942  0.00  0.00     0.105 C 
BRANCH   6   7
HETATM    7  C   UNK N   1      31.147  19.944  -4.638  0.00  0.00     0.044 C 
BRANCH   7   8
HETATM    8  C   UNK N   1      32.646  20.153  -4.451  0.00  0.00     0.173 C 
BRANCH   8   9
HETATM    9  N   UNK N   1      33.269  18.928  -3.972  0.00  0.00    -0.418 N 
HETATM   10  H   UNK N   1      32.921  18.062  -3.562  0.00  0.00     0.150 HD
HETATM   11  H   UNK N   1      34.284  18.939  -4.069  0.00  0.00     0.150 HD
ENDBRANCH   8   9
BRANCH   8  12
HETATM   12  C   UNK N   1      32.942  21.311  -3.534  0.00  0.00     0.163 C 
HETATM   13  O   UNK N   1      33.341  22.366  -3.998  0.00  0.00    -0.648 OA
BRANCH  12  14
HETATM   14  O   UNK N   1      32.767  21.191  -2.203  0.00  0.00    -0.775 OA
HETATM   15  H   UNK N   1      32.126  21.381  -1.545  0.00  0.00     0.167 HD
ENDBRANCH  12  14
ENDBRANCH   8  12
ENDBRANCH   7   8
ENDBRANCH   6   7
ENDBRANCH   3   6
ENDBRANCH   1   2
BRANCH   1  16
HETATM   16  C   UNK N   1      27.943  23.664  -3.670  0.00  0.00     0.077 C 
BRANCH  16  17
HETATM   17  C   UNK N   1      26.916  24.257  -4.589  0.00  0.00    -0.028 A 
HETATM   18  C   UNK N   1      26.407  25.523  -4.467  0.00  0.00    -0.002 A 
HETATM   19  C   UNK N   1      25.537  25.702  -5.502  0.00  0.00     0.042 A 
HETATM   20  C   UNK N   1      26.649  26.517  -3.523  0.00  0.00     0.014 A 
HETATM   21  N   UNK N   1      25.469  24.604  -6.275  0.00  0.00    -0.365 N 
HETATM   22  C   UNK N   1      24.841  26.897  -5.675  0.00  0.00     0.030 A 
HETATM   23  C   UNK N   1      26.318  23.700  -5.718  0.00  0.00     0.096 A 
HETATM   24  H   UNK N   1      24.917  24.480  -7.080  0.00  0.00     0.165 HD
HETATM   25  C   UNK N   1      25.060  27.924  -4.738  0.00  0.00     0.002 A 
HETATM   26  C   UNK N   1      25.960  27.734  -3.664  0.00  0.00     0.001 A 
ENDBRANCH  16  17
ENDBRANCH   1  16
BRANCH   1  27
HETATM   27  C   UNK N   1      30.321  24.271  -3.016  0.00  0.00     0.163 C 
HETATM   28  O   UNK N   1      30.736  25.417  -3.093  0.00  0.00    -0.648 OA
BRANCH  27  29
HETATM   29  O   UNK N   1      30.703  23.489  -1.989  0.00  0.00    -0.775 OA
HETATM   30  H   UNK N   1      30.368  22.698  -1.614  0.00  0.00     0.167 HD
ENDBRANCH  27  29
ENDBRANCH   1  27
TORSDOF 11
ENDMDL
