REMARK  5 active torsions:
REMARK  status: ('A' for Active; 'I' for Inactive)
REMARK    1  A    between atoms: C_3  and  C_26 
REMARK    2  A    between atoms: C_4  and  N_8 
REMARK       I    between atoms: N_8  and  C_9 
REMARK       I    between atoms: C_9  and  N_11 
REMARK    3  A    between atoms: N_11  and  C_12 
REMARK    4  A    between atoms: C_14  and  C_22 
REMARK    5  A    between atoms: C_16  and  C_18 
ROOT
HETATM    1  N   UNK N   1      -0.370  -2.269  -0.021  0.00  0.00    -0.308 N 
HETATM    2  C   UNK N   1      -0.765  -3.090  -1.034  0.00  0.00     0.325 C 
HETATM    3  O   UNK N   1       0.055  -3.517  -1.833  0.00  0.00    -0.247 OA
HETATM    4  N   UNK N   1      -2.053  -3.480  -1.167  0.00  0.00    -0.309 N 
HETATM    5  H   UNK N   1      -1.047  -1.894   0.588  0.00  0.00     0.170 HD
HETATM    6  H   UNK N   1      -2.224  -4.242  -1.767  0.00  0.00     0.170 HD
ENDROOT
BRANCH   1   7
HETATM    7  C   UNK N   1       1.001  -1.942   0.175  0.00  0.00     0.051 A 
HETATM    8  C   UNK N   1       2.030  -2.934   0.245  0.00  0.00     0.037 A 
HETATM    9  C   UNK N   1       3.368  -2.515   0.275  0.00  0.00     0.019 A 
HETATM   10  C   UNK N   1       3.696  -1.159   0.259  0.00  0.00     0.020 A 
HETATM   11  C   UNK N   1       2.687  -0.197   0.230  0.00  0.00     0.013 A 
HETATM   12  C   UNK N   1       1.350  -0.589   0.185  0.00  0.00     0.049 A 
HETATM   13 Br   UNK N   1       3.133   1.653   0.174  0.00  0.00    -0.051 Br
BRANCH   8  14
HETATM   14  C   UNK N   1       1.765  -4.399   0.284  0.00  0.00     0.146 A 
HETATM   15  N   UNK N   1       2.705  -5.345   0.101  0.00  0.00    -0.271 N 
HETATM   16  N   UNK N   1       2.071  -6.502   0.195  0.00  0.00    -0.225 N 
ATOM     17  HN  UNK N   1       3.699  -5.201  -0.075  1.00  0.00     0.190 HD
HETATM   18  N   UNK N   1       0.788  -6.282   0.441  0.00  0.00    -0.005 NA
HETATM   19  H   UNK N   1       2.488  -7.389   0.098  0.00  0.00     0.205 HD
HETATM   20  N   UNK N   1       0.572  -4.981   0.507  0.00  0.00    -0.266 N 
ATOM     21  HN  UNK N   1      -0.316  -4.513   0.689  1.00  0.00     0.186 HD
ENDBRANCH   8  14
ENDBRANCH   1   7
BRANCH   4  22
HETATM   22  C   UNK N   1      -3.180  -2.908  -0.534  0.00  0.00     0.037 A 
HETATM   23  C   UNK N   1      -4.345  -3.667  -0.451  0.00  0.00     0.045 A 
HETATM   24  C   UNK N   1      -5.546  -3.093  -0.030  0.00  0.00     0.050 A 
HETATM   25  C   UNK N   1      -5.584  -1.725   0.280  0.00  0.00     0.032 A 
HETATM   26  C   UNK N   1      -4.418  -0.945   0.187  0.00  0.00     0.050 A 
HETATM   27  C   UNK N   1      -3.219  -1.543  -0.220  0.00  0.00     0.045 A 
BRANCH  24  28
HETATM   28  C   UNK N   1      -6.798  -3.921   0.008  0.00  0.00     0.417 C 
HETATM   29  F   UNK N   1      -7.360  -3.876   1.270  0.00  0.00    -0.166 F 
HETATM   30  F   UNK N   1      -7.699  -3.420  -0.913  0.00  0.00    -0.166 F 
HETATM   31  F   UNK N   1      -6.529  -5.242  -0.312  0.00  0.00    -0.166 F 
ENDBRANCH  24  28
BRANCH  26  32
HETATM   32  C   UNK N   1      -4.454   0.537   0.424  0.00  0.00     0.417 C 
HETATM   33  F   UNK N   1      -4.067   1.184  -0.737  0.00  0.00    -0.166 F 
HETATM   34  F   UNK N   1      -5.727   0.962   0.762  0.00  0.00    -0.166 F 
HETATM   35  F   UNK N   1      -3.580   0.875   1.440  0.00  0.00    -0.166 F 
ENDBRANCH  26  32
ENDBRANCH   4  22
TORSDOF 5
