MODEL 1
REMARK VINA RESULT:      -6.8      0.000      0.000
REMARK  9 active torsions:
REMARK  status: ('A' for Active; 'I' for Inactive)
REMARK    1  A    between atoms: N_1  and  C_7 
REMARK    2  A    between atoms: N_1  and  C_13 
REMARK    3  A    between atoms: N_2  and  C_14 
REMARK    4  A    between atoms: N_2  and  C_15 
REMARK    5  A    between atoms: C_13  and  C_14 
REMARK    6  A    between atoms: C_15  and  C_16 
REMARK    7  A    between atoms: C_17  and  C_18 
REMARK    8  A    between atoms: C_18  and  C_20 
REMARK    9  A    between atoms: C_20  and  C_21 
ROOT
HETATM    1  C   UNK N   1      35.731  16.511  10.420  0.00  0.00     0.133 C 
ENDROOT
BRANCH   1   2
HETATM    2  N   UNK N   1      34.500  17.151   9.972  0.00  0.00    -0.415 N 
HETATM    3  H   UNK N   1      33.875  17.713  10.549  0.00  0.00     0.153 HD
BRANCH   2   4
HETATM    4  C   UNK N   1      34.317  16.850   8.559  0.00  0.00     0.084 C 
HETATM    5  C   UNK N   1      33.638  15.477   8.384  0.00  0.00     0.009 C 
HETATM    6  C   UNK N   1      33.556  15.160   6.883  0.00  0.00     0.011 C 
HETATM    7  C   UNK N   1      32.214  15.513   8.970  0.00  0.00     0.011 C 
HETATM    8  C   UNK N   1      32.734  16.241   6.163  0.00  0.00    -0.013 C 
HETATM    9  C   UNK N   1      33.398  17.613   6.370  0.00  0.00     0.011 C 
HETATM   10  C   UNK N   1      31.316  16.274   6.757  0.00  0.00     0.009 C 
HETATM   11  C   UNK N   1      33.479  17.940   7.869  0.00  0.00     0.009 C 
HETATM   12  C   UNK N   1      32.055  17.963   8.455  0.00  0.00     0.011 C 
HETATM   13  C   UNK N   1      31.382  16.593   8.260  0.00  0.00    -0.013 C 
ENDBRANCH   2   4
ENDBRANCH   1   2
BRANCH   1  14
HETATM   14  C   UNK N   1      35.504  15.615  11.646  0.00  0.00     0.133 C 
BRANCH  14  15
HETATM   15  N   UNK N   1      36.471  14.521  11.731  0.00  0.00    -0.417 N 
HETATM   16  H   UNK N   1      37.395  14.517  11.299  0.00  0.00     0.153 HD
BRANCH  15  17
HETATM   17  C   UNK N   1      35.909  13.439  12.526  0.00  0.00     0.141 C 
BRANCH  17  18
HETATM   18  C   UNK N   1      35.734  13.865  13.949  0.00  0.00    -0.005 C 
HETATM   19  C   UNK N   1      36.403  13.298  14.962  0.00  0.00    -0.086 C 
HETATM   20  C   UNK N   1      37.361  12.170  14.743  0.00  0.00     0.043 C 
BRANCH  19  21
HETATM   21  C   UNK N   1      36.199  13.807  16.347  0.00  0.00     0.037 C 
BRANCH  21  22
HETATM   22  C   UNK N   1      34.920  13.223  16.918  0.00  0.00     0.031 C 
BRANCH  22  23
HETATM   23  C   UNK N   1      35.169  12.706  18.297  0.00  0.00    -0.024 C 
HETATM   24  C   UNK N   1      35.350  11.408  18.557  0.00  0.00    -0.091 C 
HETATM   25  C   UNK N   1      35.288  10.374  17.478  0.00  0.00     0.042 C 
HETATM   26  C   UNK N   1      35.610  10.981  19.958  0.00  0.00     0.042 C 
ENDBRANCH  22  23
ENDBRANCH  21  22
ENDBRANCH  19  21
ENDBRANCH  17  18
ENDBRANCH  15  17
ENDBRANCH  14  15
ENDBRANCH   1  14
TORSDOF 9
ENDMDL
MODEL 2
REMARK VINA RESULT:      -6.7      6.088     11.656
REMARK  9 active torsions:
REMARK  status: ('A' for Active; 'I' for Inactive)
REMARK    1  A    between atoms: N_1  and  C_7 
REMARK    2  A    between atoms: N_1  and  C_13 
REMARK    3  A    between atoms: N_2  and  C_14 
REMARK    4  A    between atoms: N_2  and  C_15 
REMARK    5  A    between atoms: C_13  and  C_14 
REMARK    6  A    between atoms: C_15  and  C_16 
REMARK    7  A    between atoms: C_17  and  C_18 
REMARK    8  A    between atoms: C_18  and  C_20 
REMARK    9  A    between atoms: C_20  and  C_21 
ROOT
HETATM    1  C   UNK N   1      29.733  17.763   9.601  0.00  0.00     0.133 C 
ENDROOT
BRANCH   1   2
HETATM    2  N   UNK N   1      30.823  16.839   9.309  0.00  0.00    -0.415 N 
HETATM    3  H   UNK N   1      30.993  15.949   9.777  0.00  0.00     0.153 HD
BRANCH   2   4
HETATM    4  C   UNK N   1      31.626  17.405   8.234  0.00  0.00     0.084 C 
HETATM    5  C   UNK N   1      33.115  17.438   8.633  0.00  0.00     0.009 C 
HETATM    6  C   UNK N   1      33.906  18.131   7.514  0.00  0.00     0.011 C 
HETATM    7  C   UNK N   1      33.646  16.003   8.811  0.00  0.00     0.011 C 
HETATM    8  C   UNK N   1      33.738  17.356   6.196  0.00  0.00    -0.013 C 
HETATM    9  C   UNK N   1      32.247  17.299   5.821  0.00  0.00     0.011 C 
HETATM   10  C   UNK N   1      34.265  15.924   6.384  0.00  0.00     0.009 C 
HETATM   11  C   UNK N   1      31.449  16.602   6.934  0.00  0.00     0.009 C 
HETATM   12  C   UNK N   1      31.990  15.171   7.119  0.00  0.00     0.011 C 
HETATM   13  C   UNK N   1      33.480  15.217   7.500  0.00  0.00    -0.013 C 
ENDBRANCH   2   4
ENDBRANCH   1   2
BRANCH   1  14
HETATM   14  C   UNK N   1      28.440  17.382   8.867  0.00  0.00     0.133 C 
BRANCH  14  15
HETATM   15  N   UNK N   1      27.501  18.499   8.763  0.00  0.00    -0.417 N 
HETATM   16  H   UNK N   1      26.570  18.528   9.178  0.00  0.00     0.153 HD
BRANCH  15  17
HETATM   17  C   UNK N   1      28.104  19.564   7.975  0.00  0.00     0.141 C 
BRANCH  17  18
HETATM   18  C   UNK N   1      27.993  19.268   6.513  0.00  0.00    -0.005 C 
HETATM   19  C   UNK N   1      27.622  20.189   5.613  0.00  0.00    -0.086 C 
HETATM   20  C   UNK N   1      27.263  21.585   6.014  0.00  0.00     0.043 C 
BRANCH  19  21
HETATM   21  C   UNK N   1      27.572  19.822   4.170  0.00  0.00     0.037 C 
BRANCH  21  22
HETATM   22  C   UNK N   1      26.220  20.203   3.597  0.00  0.00     0.031 C 
BRANCH  22  23
HETATM   23  C   UNK N   1      25.183  19.230   4.049  0.00  0.00    -0.024 C 
HETATM   24  C   UNK N   1      23.894  19.345   3.716  0.00  0.00    -0.091 C 
HETATM   25  C   UNK N   1      23.396  20.483   2.882  0.00  0.00     0.042 C 
HETATM   26  C   UNK N   1      22.928  18.320   4.195  0.00  0.00     0.042 C 
ENDBRANCH  22  23
ENDBRANCH  21  22
ENDBRANCH  19  21
ENDBRANCH  17  18
ENDBRANCH  15  17
ENDBRANCH  14  15
ENDBRANCH   1  14
TORSDOF 9
ENDMDL
MODEL 3
REMARK VINA RESULT:      -6.6      1.386      2.069
REMARK  9 active torsions:
REMARK  status: ('A' for Active; 'I' for Inactive)
REMARK    1  A    between atoms: N_1  and  C_7 
REMARK    2  A    between atoms: N_1  and  C_13 
REMARK    3  A    between atoms: N_2  and  C_14 
REMARK    4  A    between atoms: N_2  and  C_15 
REMARK    5  A    between atoms: C_13  and  C_14 
REMARK    6  A    between atoms: C_15  and  C_16 
REMARK    7  A    between atoms: C_17  and  C_18 
REMARK    8  A    between atoms: C_18  and  C_20 
REMARK    9  A    between atoms: C_20  and  C_21 
ROOT
HETATM    1  C   UNK N   1      35.732  16.128  10.650  0.00  0.00     0.133 C 
ENDROOT
BRANCH   1   2
HETATM    2  N   UNK N   1      34.581  16.883  10.167  0.00  0.00    -0.415 N 
HETATM    3  H   UNK N   1      33.963  17.460  10.737  0.00  0.00     0.153 HD
BRANCH   2   4
HETATM    4  C   UNK N   1      34.467  16.672   8.730  0.00  0.00     0.084 C 
HETATM    5  C   UNK N   1      33.644  15.402   8.436  0.00  0.00     0.009 C 
HETATM    6  C   UNK N   1      33.634  15.166   6.918  0.00  0.00     0.011 C 
HETATM    7  C   UNK N   1      32.195  15.586   8.926  0.00  0.00     0.011 C 
HETATM    8  C   UNK N   1      33.001  16.372   6.205  0.00  0.00    -0.013 C 
HETATM    9  C   UNK N   1      33.808  17.641   6.529  0.00  0.00     0.011 C 
HETATM   10  C   UNK N   1      31.558  16.552   6.703  0.00  0.00     0.009 C 
HETATM   11  C   UNK N   1      33.818  17.887   8.046  0.00  0.00     0.009 C 
HETATM   12  C   UNK N   1      32.368  18.058   8.536  0.00  0.00     0.011 C 
HETATM   13  C   UNK N   1      31.553  16.791   8.222  0.00  0.00    -0.013 C 
ENDBRANCH   2   4
ENDBRANCH   1   2
BRANCH   1  14
HETATM   14  C   UNK N   1      35.346  15.123  11.744  0.00  0.00     0.133 C 
BRANCH  14  15
HETATM   15  N   UNK N   1      36.505  14.618  12.479  0.00  0.00    -0.417 N 
HETATM   16  H   UNK N   1      37.458  14.572  12.117  0.00  0.00     0.153 HD
BRANCH  15  17
HETATM   17  C   UNK N   1      36.088  14.192  13.807  0.00  0.00     0.141 C 
BRANCH  17  18
HETATM   18  C   UNK N   1      35.282  12.934  13.729  0.00  0.00    -0.005 C 
HETATM   19  C   UNK N   1      34.656  12.408  14.791  0.00  0.00    -0.086 C 
HETATM   20  C   UNK N   1      34.742  13.033  16.148  0.00  0.00     0.043 C 
BRANCH  19  21
HETATM   21  C   UNK N   1      33.842  11.173  14.621  0.00  0.00     0.037 C 
BRANCH  21  22
HETATM   22  C   UNK N   1      34.760   9.993  14.360  0.00  0.00     0.031 C 
BRANCH  22  23
HETATM   23  C   UNK N   1      35.218   9.409  15.655  0.00  0.00    -0.024 C 
HETATM   24  C   UNK N   1      36.484   9.496  16.076  0.00  0.00    -0.091 C 
HETATM   25  C   UNK N   1      37.541  10.167  15.257  0.00  0.00     0.042 C 
HETATM   26  C   UNK N   1      36.852   8.902  17.389  0.00  0.00     0.042 C 
ENDBRANCH  22  23
ENDBRANCH  21  22
ENDBRANCH  19  21
ENDBRANCH  17  18
ENDBRANCH  15  17
ENDBRANCH  14  15
ENDBRANCH   1  14
TORSDOF 9
ENDMDL
MODEL 4
REMARK VINA RESULT:      -6.5     18.149     21.829
REMARK  9 active torsions:
REMARK  status: ('A' for Active; 'I' for Inactive)
REMARK    1  A    between atoms: N_1  and  C_7 
REMARK    2  A    between atoms: N_1  and  C_13 
REMARK    3  A    between atoms: N_2  and  C_14 
REMARK    4  A    between atoms: N_2  and  C_15 
REMARK    5  A    between atoms: C_13  and  C_14 
REMARK    6  A    between atoms: C_15  and  C_16 
REMARK    7  A    between atoms: C_17  and  C_18 
REMARK    8  A    between atoms: C_18  and  C_20 
REMARK    9  A    between atoms: C_20  and  C_21 
ROOT
HETATM    1  C   UNK N   1      29.937  25.279  -3.776  0.00  0.00     0.133 C 
ENDROOT
BRANCH   1   2
HETATM    2  N   UNK N   1      28.967  25.433  -4.855  0.00  0.00    -0.415 N 
HETATM    3  H   UNK N   1      28.925  24.873  -5.705  0.00  0.00     0.153 HD
BRANCH   2   4
HETATM    4  C   UNK N   1      28.068  26.526  -4.507  0.00  0.00     0.084 C 
HETATM    5  C   UNK N   1      27.673  27.321  -5.768  0.00  0.00     0.009 C 
HETATM    6  C   UNK N   1      26.809  28.517  -5.341  0.00  0.00     0.011 C 
HETATM    7  C   UNK N   1      26.861  26.427  -6.723  0.00  0.00     0.011 C 
HETATM    8  C   UNK N   1      25.543  28.018  -4.623  0.00  0.00    -0.013 C 
HETATM    9  C   UNK N   1      25.945  27.198  -3.385  0.00  0.00     0.011 C 
HETATM   10  C   UNK N   1      24.741  27.123  -5.582  0.00  0.00     0.009 C 
HETATM   11  C   UNK N   1      26.806  25.996  -3.805  0.00  0.00     0.009 C 
HETATM   12  C   UNK N   1      25.996  25.111  -4.770  0.00  0.00     0.011 C 
HETATM   13  C   UNK N   1      25.594  25.919  -6.016  0.00  0.00    -0.013 C 
ENDBRANCH   2   4
ENDBRANCH   1   2
BRANCH   1  14
HETATM   14  C   UNK N   1      29.802  23.924  -3.067  0.00  0.00     0.133 C 
BRANCH  14  15
HETATM   15  N   UNK N   1      31.043  23.150  -3.090  0.00  0.00    -0.417 N 
HETATM   16  H   UNK N   1      31.951  23.484  -2.769  0.00  0.00     0.153 HD
BRANCH  15  17
HETATM   17  C   UNK N   1      30.778  21.830  -3.645  0.00  0.00     0.141 C 
BRANCH  17  18
HETATM   18  C   UNK N   1      29.892  21.929  -4.846  0.00  0.00    -0.005 C 
HETATM   19  C   UNK N   1      30.082  21.192  -5.948  0.00  0.00    -0.086 C 
HETATM   20  C   UNK N   1      31.219  20.227  -6.068  0.00  0.00     0.043 C 
BRANCH  19  21
HETATM   21  C   UNK N   1      29.130  21.324  -7.087  0.00  0.00     0.037 C 
BRANCH  21  22
HETATM   22  C   UNK N   1      28.082  22.369  -6.753  0.00  0.00     0.031 C 
BRANCH  22  23
HETATM   23  C   UNK N   1      27.564  22.989  -8.008  0.00  0.00    -0.024 C 
HETATM   24  C   UNK N   1      26.264  23.020  -8.312  0.00  0.00    -0.091 C 
HETATM   25  C   UNK N   1      25.233  22.405  -7.419  0.00  0.00     0.042 C 
HETATM   26  C   UNK N   1      25.831  23.673  -9.576  0.00  0.00     0.042 C 
ENDBRANCH  22  23
ENDBRANCH  21  22
ENDBRANCH  19  21
ENDBRANCH  17  18
ENDBRANCH  15  17
ENDBRANCH  14  15
ENDBRANCH   1  14
TORSDOF 9
ENDMDL
MODEL 5
REMARK VINA RESULT:      -6.4     18.263     22.347
REMARK  9 active torsions:
REMARK  status: ('A' for Active; 'I' for Inactive)
REMARK    1  A    between atoms: N_1  and  C_7 
REMARK    2  A    between atoms: N_1  and  C_13 
REMARK    3  A    between atoms: N_2  and  C_14 
REMARK    4  A    between atoms: N_2  and  C_15 
REMARK    5  A    between atoms: C_13  and  C_14 
REMARK    6  A    between atoms: C_15  and  C_16 
REMARK    7  A    between atoms: C_17  and  C_18 
REMARK    8  A    between atoms: C_18  and  C_20 
REMARK    9  A    between atoms: C_20  and  C_21 
ROOT
HETATM    1  C   UNK N   1      26.763  25.534  -8.897  0.00  0.00     0.133 C 
ENDROOT
BRANCH   1   2
HETATM    2  N   UNK N   1      26.389  26.542  -7.911  0.00  0.00    -0.415 N 
HETATM    3  H   UNK N   1      25.920  27.426  -8.108  0.00  0.00     0.153 HD
BRANCH   2   4
HETATM    4  C   UNK N   1      26.799  26.069  -6.596  0.00  0.00     0.084 C 
HETATM    5  C   UNK N   1      27.617  27.151  -5.864  0.00  0.00     0.009 C 
HETATM    6  C   UNK N   1      28.109  26.573  -4.529  0.00  0.00     0.011 C 
HETATM    7  C   UNK N   1      26.733  28.382  -5.585  0.00  0.00     0.011 C 
HETATM    8  C   UNK N   1      26.908  26.156  -3.664  0.00  0.00    -0.013 C 
HETATM    9  C   UNK N   1      26.078  25.100  -4.414  0.00  0.00     0.011 C 
HETATM   10  C   UNK N   1      26.029  27.389  -3.394  0.00  0.00     0.009 C 
HETATM   11  C   UNK N   1      25.577  25.673  -5.749  0.00  0.00     0.009 C 
HETATM   12  C   UNK N   1      24.705  26.911  -5.468  0.00  0.00     0.011 C 
HETATM   13  C   UNK N   1      25.527  27.977  -4.724  0.00  0.00    -0.013 C 
ENDBRANCH   2   4
ENDBRANCH   1   2
BRANCH   1  14
HETATM   14  C   UNK N   1      25.547  24.755  -9.418  0.00  0.00     0.133 C 
BRANCH  14  15
HETATM   15  N   UNK N   1      25.085  23.737  -8.475  0.00  0.00    -0.417 N 
HETATM   16  H   UNK N   1      24.366  23.873  -7.766  0.00  0.00     0.153 HD
BRANCH  15  17
HETATM   17  C   UNK N   1      25.814  22.498  -8.707  0.00  0.00     0.141 C 
BRANCH  17  18
HETATM   18  C   UNK N   1      26.770  22.229  -7.588  0.00  0.00    -0.005 C 
HETATM   19  C   UNK N   1      28.097  22.188  -7.764  0.00  0.00    -0.086 C 
HETATM   20  C   UNK N   1      28.723  22.383  -9.110  0.00  0.00     0.043 C 
BRANCH  19  21
HETATM   21  C   UNK N   1      28.982  21.951  -6.589  0.00  0.00     0.037 C 
BRANCH  21  22
HETATM   22  C   UNK N   1      29.116  23.234  -5.790  0.00  0.00     0.031 C 
BRANCH  22  23
HETATM   23  C   UNK N   1      29.129  22.925  -4.330  0.00  0.00    -0.024 C 
HETATM   24  C   UNK N   1      30.018  23.460  -3.489  0.00  0.00    -0.091 C 
HETATM   25  C   UNK N   1      31.088  24.392  -3.963  0.00  0.00     0.042 C 
HETATM   26  C   UNK N   1      29.949  23.112  -2.044  0.00  0.00     0.042 C 
ENDBRANCH  22  23
ENDBRANCH  21  22
ENDBRANCH  19  21
ENDBRANCH  17  18
ENDBRANCH  15  17
ENDBRANCH  14  15
ENDBRANCH   1  14
TORSDOF 9
ENDMDL
MODEL 6
REMARK VINA RESULT:      -6.4      1.060      2.117
REMARK  9 active torsions:
REMARK  status: ('A' for Active; 'I' for Inactive)
REMARK    1  A    between atoms: N_1  and  C_7 
REMARK    2  A    between atoms: N_1  and  C_13 
REMARK    3  A    between atoms: N_2  and  C_14 
REMARK    4  A    between atoms: N_2  and  C_15 
REMARK    5  A    between atoms: C_13  and  C_14 
REMARK    6  A    between atoms: C_15  and  C_16 
REMARK    7  A    between atoms: C_17  and  C_18 
REMARK    8  A    between atoms: C_18  and  C_20 
REMARK    9  A    between atoms: C_20  and  C_21 
ROOT
HETATM    1  C   UNK N   1      35.125  14.556  10.032  0.00  0.00     0.133 C 
ENDROOT
BRANCH   1   2
HETATM    2  N   UNK N   1      35.024  15.701   9.133  0.00  0.00    -0.415 N 
HETATM    3  H   UNK N   1      35.795  16.300   8.841  0.00  0.00     0.153 HD
BRANCH   2   4
HETATM    4  C   UNK N   1      33.633  15.840   8.726  0.00  0.00     0.084 C 
HETATM    5  C   UNK N   1      33.249  17.329   8.619  0.00  0.00     0.009 C 
HETATM    6  C   UNK N   1      31.752  17.426   8.286  0.00  0.00     0.011 C 
HETATM    7  C   UNK N   1      34.060  18.005   7.497  0.00  0.00     0.011 C 
HETATM    8  C   UNK N   1      31.467  16.719   6.950  0.00  0.00    -0.013 C 
HETATM    9  C   UNK N   1      31.883  15.241   7.053  0.00  0.00     0.011 C 
HETATM   10  C   UNK N   1      32.284  17.395   5.837  0.00  0.00     0.009 C 
HETATM   11  C   UNK N   1      33.380  15.136   7.382  0.00  0.00     0.009 C 
HETATM   12  C   UNK N   1      34.189  15.823   6.265  0.00  0.00     0.011 C 
HETATM   13  C   UNK N   1      33.785  17.304   6.157  0.00  0.00    -0.013 C 
ENDBRANCH   2   4
ENDBRANCH   1   2
BRANCH   1  14
HETATM   14  C   UNK N   1      35.014  14.967  11.507  0.00  0.00     0.133 C 
BRANCH  14  15
HETATM   15  N   UNK N   1      36.307  14.962  12.190  0.00  0.00    -0.417 N 
HETATM   16  H   UNK N   1      36.910  15.775  12.316  0.00  0.00     0.153 HD
BRANCH  15  17
HETATM   17  C   UNK N   1      36.599  13.617  12.663  0.00  0.00     0.141 C 
BRANCH  17  18
HETATM   18  C   UNK N   1      35.583  13.178  13.670  0.00  0.00    -0.005 C 
HETATM   19  C   UNK N   1      35.700  13.441  14.978  0.00  0.00    -0.086 C 
HETATM   20  C   UNK N   1      36.880  14.176  15.535  0.00  0.00     0.043 C 
BRANCH  19  21
HETATM   21  C   UNK N   1      34.624  13.002  15.910  0.00  0.00     0.037 C 
BRANCH  21  22
HETATM   22  C   UNK N   1      35.208  12.794  17.296  0.00  0.00     0.031 C 
BRANCH  22  23
HETATM   23  C   UNK N   1      35.607  11.367  17.471  0.00  0.00    -0.024 C 
HETATM   24  C   UNK N   1      35.699  10.787  18.671  0.00  0.00    -0.091 C 
HETATM   25  C   UNK N   1      35.430  11.545  19.933  0.00  0.00     0.042 C 
HETATM   26  C   UNK N   1      36.087   9.354  18.755  0.00  0.00     0.042 C 
ENDBRANCH  22  23
ENDBRANCH  21  22
ENDBRANCH  19  21
ENDBRANCH  17  18
ENDBRANCH  15  17
ENDBRANCH  14  15
ENDBRANCH   1  14
TORSDOF 9
ENDMDL
MODEL 7
REMARK VINA RESULT:      -6.4     18.008     22.223
REMARK  9 active torsions:
REMARK  status: ('A' for Active; 'I' for Inactive)
REMARK    1  A    between atoms: N_1  and  C_7 
REMARK    2  A    between atoms: N_1  and  C_13 
REMARK    3  A    between atoms: N_2  and  C_14 
REMARK    4  A    between atoms: N_2  and  C_15 
REMARK    5  A    between atoms: C_13  and  C_14 
REMARK    6  A    between atoms: C_15  and  C_16 
REMARK    7  A    between atoms: C_17  and  C_18 
REMARK    8  A    between atoms: C_18  and  C_20 
REMARK    9  A    between atoms: C_20  and  C_21 
ROOT
HETATM    1  C   UNK N   1      26.131  25.770  -8.942  0.00  0.00     0.133 C 
ENDROOT
BRANCH   1   2
HETATM    2  N   UNK N   1      26.976  25.872  -7.758  0.00  0.00    -0.415 N 
HETATM    3  H   UNK N   1      27.805  25.311  -7.564  0.00  0.00     0.153 HD
BRANCH   2   4
HETATM    4  C   UNK N   1      26.433  26.916  -6.898  0.00  0.00     0.084 C 
HETATM    5  C   UNK N   1      25.246  26.375  -6.078  0.00  0.00     0.009 C 
HETATM    6  C   UNK N   1      24.646  27.532  -5.264  0.00  0.00     0.011 C 
HETATM    7  C   UNK N   1      25.728  25.277  -5.112  0.00  0.00     0.011 C 
HETATM    8  C   UNK N   1      25.710  28.113  -4.318  0.00  0.00    -0.013 C 
HETATM    9  C   UNK N   1      26.907  28.621  -5.141  0.00  0.00     0.011 C 
HETATM   10  C   UNK N   1      26.189  27.009  -3.361  0.00  0.00     0.009 C 
HETATM   11  C   UNK N   1      27.515  27.468  -5.954  0.00  0.00     0.009 C 
HETATM   12  C   UNK N   1      27.985  26.365  -4.987  0.00  0.00     0.011 C 
HETATM   13  C   UNK N   1      26.794  25.845  -4.162  0.00  0.00    -0.013 C 
ENDBRANCH   2   4
ENDBRANCH   1   2
BRANCH   1  14
HETATM   14  C   UNK N   1      25.786  24.313  -9.282  0.00  0.00     0.133 C 
BRANCH  14  15
HETATM   15  N   UNK N   1      24.976  23.671  -8.247  0.00  0.00    -0.417 N 
HETATM   16  H   UNK N   1      24.145  24.073  -7.815  0.00  0.00     0.153 HD
BRANCH  15  17
HETATM   17  C   UNK N   1      25.542  22.367  -7.930  0.00  0.00     0.141 C 
BRANCH  17  18
HETATM   18  C   UNK N   1      26.901  22.514  -7.322  0.00  0.00    -0.005 C 
HETATM   19  C   UNK N   1      27.936  21.737  -7.667  0.00  0.00    -0.086 C 
HETATM   20  C   UNK N   1      27.799  20.639  -8.674  0.00  0.00     0.043 C 
BRANCH  19  21
HETATM   21  C   UNK N   1      29.267  21.975  -7.040  0.00  0.00     0.037 C 
BRANCH  21  22
HETATM   22  C   UNK N   1      29.077  22.568  -5.657  0.00  0.00     0.031 C 
BRANCH  22  23
HETATM   23  C   UNK N   1      30.241  22.220  -4.790  0.00  0.00    -0.024 C 
HETATM   24  C   UNK N   1      30.302  22.556  -3.498  0.00  0.00    -0.091 C 
HETATM   25  C   UNK N   1      29.210  23.336  -2.836  0.00  0.00     0.042 C 
HETATM   26  C   UNK N   1      31.492  22.154  -2.701  0.00  0.00     0.042 C 
ENDBRANCH  22  23
ENDBRANCH  21  22
ENDBRANCH  19  21
ENDBRANCH  17  18
ENDBRANCH  15  17
ENDBRANCH  14  15
ENDBRANCH   1  14
TORSDOF 9
ENDMDL
MODEL 8
REMARK VINA RESULT:      -6.4     17.223     20.866
REMARK  9 active torsions:
REMARK  status: ('A' for Active; 'I' for Inactive)
REMARK    1  A    between atoms: N_1  and  C_7 
REMARK    2  A    between atoms: N_1  and  C_13 
REMARK    3  A    between atoms: N_2  and  C_14 
REMARK    4  A    between atoms: N_2  and  C_15 
REMARK    5  A    between atoms: C_13  and  C_14 
REMARK    6  A    between atoms: C_15  and  C_16 
REMARK    7  A    between atoms: C_17  and  C_18 
REMARK    8  A    between atoms: C_18  and  C_20 
REMARK    9  A    between atoms: C_20  and  C_21 
ROOT
HETATM    1  C   UNK N   1      30.156  25.515  -4.772  0.00  0.00     0.133 C 
ENDROOT
BRANCH   1   2
HETATM    2  N   UNK N   1      28.748  25.204  -4.993  0.00  0.00    -0.415 N 
HETATM    3  H   UNK N   1      28.379  24.318  -5.338  0.00  0.00     0.153 HD
BRANCH   2   4
HETATM    4  C   UNK N   1      27.960  26.375  -4.636  0.00  0.00     0.084 C 
HETATM    5  C   UNK N   1      27.561  27.163  -5.900  0.00  0.00     0.009 C 
HETATM    6  C   UNK N   1      26.819  28.437  -5.468  0.00  0.00     0.011 C 
HETATM    7  C   UNK N   1      26.628  26.311  -6.781  0.00  0.00     0.011 C 
HETATM    8  C   UNK N   1      25.559  28.064  -4.669  0.00  0.00    -0.013 C 
HETATM    9  C   UNK N   1      25.962  27.250  -3.427  0.00  0.00     0.011 C 
HETATM   10  C   UNK N   1      24.636  27.210  -5.554  0.00  0.00     0.009 C 
HETATM   11  C   UNK N   1      26.700  25.971  -3.851  0.00  0.00     0.009 C 
HETATM   12  C   UNK N   1      25.770  25.127  -4.743  0.00  0.00     0.011 C 
HETATM   13  C   UNK N   1      25.366  25.929  -5.992  0.00  0.00    -0.013 C 
ENDBRANCH   2   4
ENDBRANCH   1   2
BRANCH   1  14
HETATM   14  C   UNK N   1      30.714  24.815  -3.525  0.00  0.00     0.133 C 
BRANCH  14  15
HETATM   15  N   UNK N   1      29.722  23.964  -2.867  0.00  0.00    -0.417 N 
HETATM   16  H   UNK N   1      28.734  24.189  -2.755  0.00  0.00     0.153 HD
BRANCH  15  17
HETATM   17  C   UNK N   1      30.367  22.747  -2.396  0.00  0.00     0.141 C 
BRANCH  17  18
HETATM   18  C   UNK N   1      30.448  21.733  -3.493  0.00  0.00    -0.005 C 
HETATM   19  C   UNK N   1      31.569  21.054  -3.770  0.00  0.00    -0.086 C 
HETATM   20  C   UNK N   1      32.840  21.284  -3.014  0.00  0.00     0.043 C 
BRANCH  19  21
HETATM   21  C   UNK N   1      31.555  20.034  -4.855  0.00  0.00     0.037 C 
BRANCH  21  22
HETATM   22  C   UNK N   1      30.642  20.498  -5.975  0.00  0.00     0.031 C 
BRANCH  22  23
HETATM   23  C   UNK N   1      30.865  19.663  -7.192  0.00  0.00    -0.024 C 
HETATM   24  C   UNK N   1      29.904  19.427  -8.090  0.00  0.00    -0.091 C 
HETATM   25  C   UNK N   1      28.518  19.966  -7.918  0.00  0.00     0.042 C 
HETATM   26  C   UNK N   1      30.216  18.599  -9.285  0.00  0.00     0.042 C 
ENDBRANCH  22  23
ENDBRANCH  21  22
ENDBRANCH  19  21
ENDBRANCH  17  18
ENDBRANCH  15  17
ENDBRANCH  14  15
ENDBRANCH   1  14
TORSDOF 9
ENDMDL
MODEL 9
REMARK VINA RESULT:      -6.2      1.708      9.389
REMARK  9 active torsions:
REMARK  status: ('A' for Active; 'I' for Inactive)
REMARK    1  A    between atoms: N_1  and  C_7 
REMARK    2  A    between atoms: N_1  and  C_13 
REMARK    3  A    between atoms: N_2  and  C_14 
REMARK    4  A    between atoms: N_2  and  C_15 
REMARK    5  A    between atoms: C_13  and  C_14 
REMARK    6  A    between atoms: C_15  and  C_16 
REMARK    7  A    between atoms: C_17  and  C_18 
REMARK    8  A    between atoms: C_18  and  C_20 
REMARK    9  A    between atoms: C_20  and  C_21 
ROOT
HETATM    1  C   UNK N   1      34.821  14.023  12.127  0.00  0.00     0.133 C 
ENDROOT
BRANCH   1   2
HETATM    2  N   UNK N   1      34.782  12.612  12.494  0.00  0.00    -0.415 N 
HETATM    3  H   UNK N   1      34.304  11.874  11.978  0.00  0.00     0.153 HD
BRANCH   2   4
HETATM    4  C   UNK N   1      35.544  12.439  13.723  0.00  0.00     0.084 C 
HETATM    5  C   UNK N   1      34.596  12.317  14.932  0.00  0.00     0.009 C 
HETATM    6  C   UNK N   1      35.442  12.236  16.211  0.00  0.00     0.011 C 
HETATM    7  C   UNK N   1      33.745  11.039  14.809  0.00  0.00     0.011 C 
HETATM    8  C   UNK N   1      36.367  11.008  16.150  0.00  0.00    -0.013 C 
HETATM    9  C   UNK N   1      37.288  11.120  14.923  0.00  0.00     0.011 C 
HETATM   10  C   UNK N   1      35.510   9.738  16.023  0.00  0.00     0.009 C 
HETATM   11  C   UNK N   1      36.448  11.196  13.639  0.00  0.00     0.009 C 
HETATM   12  C   UNK N   1      35.588   9.924  13.525  0.00  0.00     0.011 C 
HETATM   13  C   UNK N   1      34.658   9.805  14.744  0.00  0.00    -0.013 C 
ENDBRANCH   2   4
ENDBRANCH   1   2
BRANCH   1  14
HETATM   14  C   UNK N   1      36.254  14.572  12.092  0.00  0.00     0.133 C 
BRANCH  14  15
HETATM   15  N   UNK N   1      36.378  15.770  11.262  0.00  0.00    -0.417 N 
HETATM   16  H   UNK N   1      37.253  16.241  11.033  0.00  0.00     0.153 HD
BRANCH  15  17
HETATM   17  C   UNK N   1      35.056  16.186  10.814  0.00  0.00     0.141 C 
BRANCH  17  18
HETATM   18  C   UNK N   1      35.086  16.577   9.371  0.00  0.00    -0.005 C 
HETATM   19  C   UNK N   1      34.457  15.876   8.418  0.00  0.00    -0.086 C 
HETATM   20  C   UNK N   1      33.696  14.626   8.729  0.00  0.00     0.043 C 
BRANCH  19  21
HETATM   21  C   UNK N   1      34.505  16.355   7.008  0.00  0.00     0.037 C 
BRANCH  21  22
HETATM   22  C   UNK N   1      33.624  17.582   6.860  0.00  0.00     0.031 C 
BRANCH  22  23
HETATM   23  C   UNK N   1      32.255  17.176   6.425  0.00  0.00    -0.024 C 
HETATM   24  C   UNK N   1      31.183  17.300   7.212  0.00  0.00    -0.091 C 
HETATM   25  C   UNK N   1      31.288  17.835   8.606  0.00  0.00     0.042 C 
HETATM   26  C   UNK N   1      29.852  16.887   6.693  0.00  0.00     0.042 C 
ENDBRANCH  22  23
ENDBRANCH  21  22
ENDBRANCH  19  21
ENDBRANCH  17  18
ENDBRANCH  15  17
ENDBRANCH  14  15
ENDBRANCH   1  14
TORSDOF 9
ENDMDL
