MODEL 1
REMARK VINA RESULT:      -6.4      0.000      0.000
REMARK  3 active torsions:
REMARK  status: ('A' for Active; 'I' for Inactive)
REMARK    1  A    between atoms: N_2  and  C_13 
REMARK    2  A    between atoms: C_13  and  C_14 
REMARK    3  A    between atoms: C_16  and  C_17 
ROOT
HETATM    1  O   UNK N   1      36.503  16.195  10.703  0.00  0.00    -0.277 OA
HETATM    2  N   UNK N   1      34.478  14.432  11.335  0.00  0.00    -0.366 N 
ATOM      3  HN  UNK N   1      33.799  13.680  11.450  1.00  0.00     0.161 HD
HETATM    4  N   UNK N   1      36.540  15.447  11.823  0.00  0.00    -0.250 N 
HETATM    5  C   UNK N   1      34.251  15.467  10.338  0.00  0.00     0.137 C 
HETATM    6  C   UNK N   1      35.185  16.664  10.593  0.00  0.00     0.228 C 
HETATM    7  C   UNK N   1      35.540  14.461  12.081  0.00  0.00     0.133 C 
HETATM    8  H   UNK N   1      37.266  15.581  12.472  0.00  0.00     0.196 HD
ENDROOT
BRANCH   5   9
HETATM    9  C   UNK N   1      34.350  14.970   8.895  0.00  0.00     0.299 C 
BRANCH   9  10
HETATM   10  N   UNK N   1      33.652  15.942   8.063  0.00  0.00     0.090 N 
HETATM   11  C   UNK N   1      34.325  16.085   6.778  0.00  0.00     0.272 C 
HETATM   12  C   UNK N   1      33.787  17.337   6.095  0.00  0.00     0.030 C 
HETATM   13  C   UNK N   1      32.275  17.201   5.900  0.00  0.00     0.003 C 
HETATM   14  C   UNK N   1      31.566  16.802   7.201  0.00  0.00     0.030 C 
HETATM   15  C   UNK N   1      32.257  15.592   7.836  0.00  0.00     0.272 C 
ENDBRANCH   9  10
ENDBRANCH   5   9
BRANCH   7  16
HETATM   16  C   UNK N   1      35.644  13.618  13.285  0.00  0.00     0.025 A 
HETATM   17  C   UNK N   1      36.436  14.042  14.359  0.00  0.00     0.018 A 
HETATM   18  C   UNK N   1      36.450  13.317  15.549  0.00  0.00     0.018 A 
HETATM   19  C   UNK N   1      35.660  12.173  15.657  0.00  0.00     0.087 A 
HETATM   20  N   UNK N   1      34.896  11.766  14.606  0.00  0.00    -0.374 N 
HETATM   21  C   UNK N   1      34.868  12.461  13.436  0.00  0.00     0.102 A 
ATOM     22  HN  UNK N   1      34.333  10.920  14.697  1.00  0.00     0.164 HD
ENDBRANCH   7  16
TORSDOF 3
ENDMDL
MODEL 2
REMARK VINA RESULT:      -6.3      4.849      7.471
REMARK  3 active torsions:
REMARK  status: ('A' for Active; 'I' for Inactive)
REMARK    1  A    between atoms: N_2  and  C_13 
REMARK    2  A    between atoms: C_13  and  C_14 
REMARK    3  A    between atoms: C_16  and  C_17 
ROOT
HETATM    1  O   UNK N   1      28.883  18.380  10.006  0.00  0.00    -0.277 OA
HETATM    2  N   UNK N   1      29.899  17.863   7.494  0.00  0.00    -0.366 N 
ATOM      3  HN  UNK N   1      30.295  17.840   6.555  1.00  0.00     0.161 HD
HETATM    4  N   UNK N   1      30.127  17.892   9.832  0.00  0.00    -0.250 N 
HETATM    5  C   UNK N   1      28.466  18.038   7.673  0.00  0.00     0.137 C 
HETATM    6  C   UNK N   1      28.062  17.674   9.113  0.00  0.00     0.228 C 
HETATM    7  C   UNK N   1      30.678  17.733   8.525  0.00  0.00     0.133 C 
HETATM    8  H   UNK N   1      30.664  17.643  10.618  0.00  0.00     0.196 HD
ENDROOT
BRANCH   5   9
HETATM    9  C   UNK N   1      27.956  19.423   7.275  0.00  0.00     0.299 C 
BRANCH   9  10
HETATM   10  N   UNK N   1      27.570  19.346   5.871  0.00  0.00     0.090 N 
HETATM   11  C   UNK N   1      26.884  18.088   5.603  0.00  0.00     0.272 C 
HETATM   12  C   UNK N   1      26.816  17.896   4.092  0.00  0.00     0.030 C 
HETATM   13  C   UNK N   1      26.059  19.068   3.463  0.00  0.00     0.003 C 
HETATM   14  C   UNK N   1      26.611  20.420   3.933  0.00  0.00     0.030 C 
HETATM   15  C   UNK N   1      26.717  20.453   5.460  0.00  0.00     0.272 C 
ENDBRANCH   9  10
ENDBRANCH   5   9
BRANCH   7  16
HETATM   16  C   UNK N   1      32.063  17.256   8.373  0.00  0.00     0.025 A 
HETATM   17  C   UNK N   1      33.076  18.166   8.045  0.00  0.00     0.018 A 
HETATM   18  C   UNK N   1      34.406  17.755   8.016  0.00  0.00     0.018 A 
HETATM   19  C   UNK N   1      34.716  16.430   8.325  0.00  0.00     0.087 A 
HETATM   20  N   UNK N   1      33.724  15.551   8.639  0.00  0.00    -0.374 N 
HETATM   21  C   UNK N   1      32.419  15.935   8.675  0.00  0.00     0.102 A 
ATOM     22  HN  UNK N   1      33.965  14.583   8.852  1.00  0.00     0.164 HD
ENDBRANCH   7  16
TORSDOF 3
ENDMDL
MODEL 3
REMARK VINA RESULT:      -6.3      5.387      9.390
REMARK  3 active torsions:
REMARK  status: ('A' for Active; 'I' for Inactive)
REMARK    1  A    between atoms: N_2  and  C_13 
REMARK    2  A    between atoms: C_13  and  C_14 
REMARK    3  A    between atoms: C_16  and  C_17 
ROOT
HETATM    1  O   UNK N   1      28.178  17.876   9.717  0.00  0.00    -0.277 OA
HETATM    2  N   UNK N   1      29.724  18.315   7.475  0.00  0.00    -0.366 N 
ATOM      3  HN  UNK N   1      30.278  18.310   6.619  1.00  0.00     0.161 HD
HETATM    4  N   UNK N   1      27.670  18.447   8.607  0.00  0.00    -0.250 N 
HETATM    5  C   UNK N   1      30.364  18.040   8.752  0.00  0.00     0.137 C 
HETATM    6  C   UNK N   1      29.440  18.459   9.910  0.00  0.00     0.228 C 
HETATM    7  C   UNK N   1      28.451  18.567   7.419  0.00  0.00     0.133 C 
HETATM    8  H   UNK N   1      26.747  18.786   8.616  0.00  0.00     0.196 HD
ENDROOT
BRANCH   5   9
HETATM    9  C   UNK N   1      30.846  16.597   8.907  0.00  0.00     0.299 C 
BRANCH   9  10
HETATM   10  N   UNK N   1      31.992  16.435   8.022  0.00  0.00     0.090 N 
HETATM   11  C   UNK N   1      33.035  17.396   8.363  0.00  0.00     0.272 C 
HETATM   12  C   UNK N   1      34.041  17.431   7.218  0.00  0.00     0.030 C 
HETATM   13  C   UNK N   1      34.637  16.036   7.020  0.00  0.00     0.003 C 
HETATM   14  C   UNK N   1      33.547  14.961   6.908  0.00  0.00     0.030 C 
HETATM   15  C   UNK N   1      32.549  15.090   8.062  0.00  0.00     0.272 C 
ENDBRANCH   9  10
ENDBRANCH   5   9
BRANCH   7  16
HETATM   16  C   UNK N   1      27.845  19.141   6.205  0.00  0.00     0.025 A 
HETATM   17  C   UNK N   1      26.977  20.234   6.317  0.00  0.00     0.018 A 
HETATM   18  C   UNK N   1      26.491  20.863   5.172  0.00  0.00     0.018 A 
HETATM   19  C   UNK N   1      26.887  20.396   3.919  0.00  0.00     0.087 A 
HETATM   20  N   UNK N   1      27.728  19.330   3.820  0.00  0.00    -0.374 N 
HETATM   21  C   UNK N   1      28.215  18.703   4.926  0.00  0.00     0.102 A 
ATOM     22  HN  UNK N   1      28.000  18.992   2.897  1.00  0.00     0.164 HD
ENDBRANCH   7  16
TORSDOF 3
ENDMDL
MODEL 4
REMARK VINA RESULT:      -6.2      2.525      7.230
REMARK  3 active torsions:
REMARK  status: ('A' for Active; 'I' for Inactive)
REMARK    1  A    between atoms: N_2  and  C_13 
REMARK    2  A    between atoms: C_13  and  C_14 
REMARK    3  A    between atoms: C_16  and  C_17 
ROOT
HETATM    1  O   UNK N   1      34.460  17.865   7.296  0.00  0.00    -0.277 OA
HETATM    2  N   UNK N   1      32.824  16.748   9.216  0.00  0.00    -0.366 N 
ATOM      3  HN  UNK N   1      32.279  16.458  10.027  1.00  0.00     0.161 HD
HETATM    4  N   UNK N   1      33.126  18.062   7.292  0.00  0.00    -0.250 N 
HETATM    5  C   UNK N   1      34.174  16.239   9.031  0.00  0.00     0.137 C 
HETATM    6  C   UNK N   1      34.650  16.507   7.592  0.00  0.00     0.228 C 
HETATM    7  C   UNK N   1      32.307  17.569   8.352  0.00  0.00     0.133 C 
HETATM    8  H   UNK N   1      32.711  18.553   6.548  0.00  0.00     0.196 HD
ENDROOT
BRANCH   5   9
HETATM    9  C   UNK N   1      35.178  16.754  10.063  0.00  0.00     0.299 C 
BRANCH   9  10
HETATM   10  N   UNK N   1      35.700  15.589  10.766  0.00  0.00     0.090 N 
HETATM   11  C   UNK N   1      34.607  14.800  11.320  0.00  0.00     0.272 C 
HETATM   12  C   UNK N   1      35.194  13.813  12.323  0.00  0.00     0.030 C 
HETATM   13  C   UNK N   1      36.207  12.910  11.616  0.00  0.00     0.003 C 
HETATM   14  C   UNK N   1      37.231  13.721  10.812  0.00  0.00     0.030 C 
HETATM   15  C   UNK N   1      36.520  14.739   9.914  0.00  0.00     0.272 C 
ENDBRANCH   9  10
ENDBRANCH   5   9
BRANCH   7  16
HETATM   16  C   UNK N   1      30.862  17.855   8.348  0.00  0.00     0.025 A 
HETATM   17  C   UNK N   1      30.057  17.326   7.332  0.00  0.00     0.018 A 
HETATM   18  C   UNK N   1      28.674  17.485   7.380  0.00  0.00     0.018 A 
HETATM   19  C   UNK N   1      28.104  18.169   8.454  0.00  0.00     0.087 A 
HETATM   20  N   UNK N   1      28.896  18.684   9.435  0.00  0.00    -0.374 N 
HETATM   21  C   UNK N   1      30.249  18.537   9.407  0.00  0.00     0.102 A 
ATOM     22  HN  UNK N   1      28.466  19.191  10.208  1.00  0.00     0.164 HD
ENDBRANCH   7  16
TORSDOF 3
ENDMDL
MODEL 5
REMARK VINA RESULT:      -6.0      1.925      2.757
REMARK  3 active torsions:
REMARK  status: ('A' for Active; 'I' for Inactive)
REMARK    1  A    between atoms: N_2  and  C_13 
REMARK    2  A    between atoms: C_13  and  C_14 
REMARK    3  A    between atoms: C_16  and  C_17 
ROOT
HETATM    1  O   UNK N   1      34.732  17.947   9.215  0.00  0.00    -0.277 OA
HETATM    2  N   UNK N   1      34.314  15.233   8.944  0.00  0.00    -0.366 N 
ATOM      3  HN  UNK N   1      34.307  14.231   8.759  1.00  0.00     0.161 HD
HETATM    4  N   UNK N   1      34.945  17.092  10.235  0.00  0.00    -0.250 N 
HETATM    5  C   UNK N   1      33.745  16.153   7.971  0.00  0.00     0.137 C 
HETATM    6  C   UNK N   1      33.533  17.538   8.610  0.00  0.00     0.228 C 
HETATM    7  C   UNK N   1      34.830  15.682  10.048  0.00  0.00     0.133 C 
HETATM    8  H   UNK N   1      35.183  17.445  11.121  0.00  0.00     0.196 HD
ENDROOT
BRANCH   5   9
HETATM    9  C   UNK N   1      34.540  16.248   6.668  0.00  0.00     0.299 C 
BRANCH   9  10
HETATM   10  N   UNK N   1      33.571  16.244   5.579  0.00  0.00     0.090 N 
HETATM   11  C   UNK N   1      33.365  17.599   5.081  0.00  0.00     0.272 C 
HETATM   12  C   UNK N   1      32.115  17.599   4.208  0.00  0.00     0.030 C 
HETATM   13  C   UNK N   1      32.303  16.620   3.048  0.00  0.00     0.003 C 
HETATM   14  C   UNK N   1      32.768  15.241   3.535  0.00  0.00     0.030 C 
HETATM   15  C   UNK N   1      33.969  15.384   4.474  0.00  0.00     0.272 C 
ENDBRANCH   9  10
ENDBRANCH   5   9
BRANCH   7  16
HETATM   16  C   UNK N   1      35.130  14.773  11.168  0.00  0.00     0.025 A 
HETATM   17  C   UNK N   1      35.906  15.231  12.241  0.00  0.00     0.018 A 
HETATM   18  C   UNK N   1      36.097  14.426  13.361  0.00  0.00     0.018 A 
HETATM   19  C   UNK N   1      35.501  13.165  13.403  0.00  0.00     0.087 A 
HETATM   20  N   UNK N   1      34.752  12.727  12.354  0.00  0.00    -0.374 N 
HETATM   21  C   UNK N   1      34.551  13.500  11.251  0.00  0.00     0.102 A 
ATOM     22  HN  UNK N   1      34.332  11.798  12.395  1.00  0.00     0.164 HD
ENDBRANCH   7  16
TORSDOF 3
ENDMDL
MODEL 6
REMARK VINA RESULT:      -6.0      1.481      7.200
REMARK  3 active torsions:
REMARK  status: ('A' for Active; 'I' for Inactive)
REMARK    1  A    between atoms: N_2  and  C_13 
REMARK    2  A    between atoms: C_13  and  C_14 
REMARK    3  A    between atoms: C_16  and  C_17 
ROOT
HETATM    1  O   UNK N   1      36.994  14.371  10.614  0.00  0.00    -0.277 OA
HETATM    2  N   UNK N   1      34.326  14.460  11.310  0.00  0.00    -0.366 N 
ATOM      3  HN  UNK N   1      33.390  14.606  11.684  1.00  0.00     0.161 HD
HETATM    4  N   UNK N   1      36.090  15.041   9.871  0.00  0.00    -0.250 N 
HETATM    5  C   UNK N   1      35.196  13.458  11.906  0.00  0.00     0.137 C 
HETATM    6  C   UNK N   1      36.382  13.160  10.970  0.00  0.00     0.228 C 
HETATM    7  C   UNK N   1      34.736  15.170  10.302  0.00  0.00     0.133 C 
HETATM    8  H   UNK N   1      36.368  15.448   9.020  0.00  0.00     0.196 HD
ENDROOT
BRANCH   5   9
HETATM    9  C   UNK N   1      35.665  13.805  13.319  0.00  0.00     0.299 C 
BRANCH   9  10
HETATM   10  N   UNK N   1      35.057  12.832  14.219  0.00  0.00     0.090 N 
HETATM   11  C   UNK N   1      34.641  11.648  13.477  0.00  0.00     0.272 C 
HETATM   12  C   UNK N   1      33.714  10.830  14.369  0.00  0.00     0.030 C 
HETATM   13  C   UNK N   1      34.454  10.434  15.647  0.00  0.00     0.003 C 
HETATM   14  C   UNK N   1      35.119  11.643  16.319  0.00  0.00     0.030 C 
HETATM   15  C   UNK N   1      35.946  12.432  15.300  0.00  0.00     0.272 C 
ENDBRANCH   9  10
ENDBRANCH   5   9
BRANCH   7  16
HETATM   16  C   UNK N   1      33.788  15.961   9.497  0.00  0.00     0.025 A 
HETATM   17  C   UNK N   1      34.168  17.225   9.029  0.00  0.00     0.018 A 
HETATM   18  C   UNK N   1      33.332  17.933   8.168  0.00  0.00     0.018 A 
HETATM   19  C   UNK N   1      32.121  17.363   7.775  0.00  0.00     0.087 A 
HETATM   20  N   UNK N   1      31.758  16.136   8.239  0.00  0.00    -0.374 N 
HETATM   21  C   UNK N   1      32.562  15.428   9.079  0.00  0.00     0.102 A 
ATOM     22  HN  UNK N   1      30.865  15.738   7.951  1.00  0.00     0.164 HD
ENDBRANCH   7  16
TORSDOF 3
ENDMDL
MODEL 7
REMARK VINA RESULT:      -5.9      2.489      4.328
REMARK  3 active torsions:
REMARK  status: ('A' for Active; 'I' for Inactive)
REMARK    1  A    between atoms: N_2  and  C_13 
REMARK    2  A    between atoms: C_13  and  C_14 
REMARK    3  A    between atoms: C_16  and  C_17 
ROOT
HETATM    1  O   UNK N   1      36.780  11.281  13.473  0.00  0.00    -0.277 OA
HETATM    2  N   UNK N   1      35.434  13.435  14.549  0.00  0.00    -0.366 N 
ATOM      3  HN  UNK N   1      34.797  14.155  14.888  1.00  0.00     0.161 HD
HETATM    4  N   UNK N   1      36.561  11.389  14.799  0.00  0.00    -0.250 N 
HETATM    5  C   UNK N   1      35.964  13.516  13.197  0.00  0.00     0.137 C 
HETATM    6  C   UNK N   1      37.160  12.559  13.037  0.00  0.00     0.228 C 
HETATM    7  C   UNK N   1      35.769  12.452  15.329  0.00  0.00     0.133 C 
HETATM    8  H   UNK N   1      36.953  10.726  15.410  0.00  0.00     0.196 HD
ENDROOT
BRANCH   5   9
HETATM    9  C   UNK N   1      34.916  13.296  12.105  0.00  0.00     0.299 C 
BRANCH   9  10
HETATM   10  N   UNK N   1      35.091  14.363  11.128  0.00  0.00     0.090 N 
HETATM   11  C   UNK N   1      33.970  14.385  10.196  0.00  0.00     0.272 C 
HETATM   12  C   UNK N   1      34.357  15.258   9.007  0.00  0.00     0.030 C 
HETATM   13  C   UNK N   1      34.680  16.671   9.497  0.00  0.00     0.003 C 
HETATM   14  C   UNK N   1      35.681  16.657  10.659  0.00  0.00     0.030 C 
HETATM   15  C   UNK N   1      35.228  15.675  11.743  0.00  0.00     0.272 C 
ENDBRANCH   9  10
ENDBRANCH   5   9
BRANCH   7  16
HETATM   16  C   UNK N   1      35.499  12.506  16.776  0.00  0.00     0.025 A 
HETATM   17  C   UNK N   1      35.530  11.325  17.528  0.00  0.00     0.018 A 
HETATM   18  C   UNK N   1      35.396  11.374  18.914  0.00  0.00     0.018 A 
HETATM   19  C   UNK N   1      35.240  12.611  19.540  0.00  0.00     0.087 A 
HETATM   20  N   UNK N   1      35.207  13.753  18.799  0.00  0.00    -0.374 N 
HETATM   21  C   UNK N   1      35.338  13.726  17.444  0.00  0.00     0.102 A 
ATOM     22  HN  UNK N   1      35.081  14.649  19.270  1.00  0.00     0.164 HD
ENDBRANCH   7  16
TORSDOF 3
ENDMDL
MODEL 8
REMARK VINA RESULT:      -5.8     12.586     14.253
REMARK  3 active torsions:
REMARK  status: ('A' for Active; 'I' for Inactive)
REMARK    1  A    between atoms: N_2  and  C_13 
REMARK    2  A    between atoms: C_13  and  C_14 
REMARK    3  A    between atoms: C_16  and  C_17 
ROOT
HETATM    1  O   UNK N   1      19.396  16.632   7.981  0.00  0.00    -0.277 OA
HETATM    2  N   UNK N   1      21.611  15.154   7.264  0.00  0.00    -0.366 N 
ATOM      3  HN  UNK N   1      22.519  14.746   7.042  1.00  0.00     0.161 HD
HETATM    4  N   UNK N   1      19.886  15.660   8.776  0.00  0.00    -0.250 N 
HETATM    5  C   UNK N   1      20.900  15.927   6.257  0.00  0.00     0.137 C 
HETATM    6  C   UNK N   1      19.431  16.120   6.676  0.00  0.00     0.228 C 
HETATM    7  C   UNK N   1      21.096  14.979   8.443  0.00  0.00     0.133 C 
HETATM    8  H   UNK N   1      19.404  15.417   9.598  0.00  0.00     0.196 HD
ENDROOT
BRANCH   5   9
HETATM    9  C   UNK N   1      21.569  17.257   5.909  0.00  0.00     0.299 C 
BRANCH   9  10
HETATM   10  N   UNK N   1      20.940  17.742   4.687  0.00  0.00     0.090 N 
HETATM   11  C   UNK N   1      21.346  19.116   4.419  0.00  0.00     0.272 C 
HETATM   12  C   UNK N   1      20.413  19.689   3.358  0.00  0.00     0.030 C 
HETATM   13  C   UNK N   1      20.506  18.842   2.087  0.00  0.00     0.003 C 
HETATM   14  C   UNK N   1      20.329  17.347   2.384  0.00  0.00     0.030 C 
HETATM   15  C   UNK N   1      21.251  16.917   3.528  0.00  0.00     0.272 C 
ENDBRANCH   9  10
ENDBRANCH   5   9
BRANCH   7  16
HETATM   16  C   UNK N   1      21.637  13.965   9.364  0.00  0.00     0.025 A 
HETATM   17  C   UNK N   1      20.783  13.341  10.283  0.00  0.00     0.018 A 
HETATM   18  C   UNK N   1      21.252  12.296  11.076  0.00  0.00     0.018 A 
HETATM   19  C   UNK N   1      22.575  11.877  10.938  0.00  0.00     0.087 A 
HETATM   20  N   UNK N   1      23.399  12.493  10.046  0.00  0.00    -0.374 N 
HETATM   21  C   UNK N   1      22.959  13.514   9.260  0.00  0.00     0.102 A 
ATOM     22  HN  UNK N   1      24.367  12.183   9.964  1.00  0.00     0.164 HD
ENDBRANCH   7  16
TORSDOF 3
ENDMDL
MODEL 9
REMARK VINA RESULT:      -5.8      4.839      7.286
REMARK  3 active torsions:
REMARK  status: ('A' for Active; 'I' for Inactive)
REMARK    1  A    between atoms: N_2  and  C_13 
REMARK    2  A    between atoms: C_13  and  C_14 
REMARK    3  A    between atoms: C_16  and  C_17 
ROOT
HETATM    1  O   UNK N   1      30.169  14.039   5.571  0.00  0.00    -0.277 OA
HETATM    2  N   UNK N   1      30.873  16.706   5.550  0.00  0.00    -0.366 N 
ATOM      3  HN  UNK N   1      30.996  17.714   5.640  1.00  0.00     0.161 HD
HETATM    4  N   UNK N   1      31.184  14.509   6.322  0.00  0.00    -0.250 N 
HETATM    5  C   UNK N   1      30.036  16.170   4.487  0.00  0.00     0.137 C 
HETATM    6  C   UNK N   1      30.291  14.661   4.320  0.00  0.00     0.228 C 
HETATM    7  C   UNK N   1      31.467  15.907   6.385  0.00  0.00     0.133 C 
HETATM    8  H   UNK N   1      31.740  13.880   6.836  0.00  0.00     0.196 HD
ENDROOT
BRANCH   5   9
HETATM    9  C   UNK N   1      28.548  16.477   4.656  0.00  0.00     0.299 C 
BRANCH   9  10
HETATM   10  N   UNK N   1      28.451  17.819   5.217  0.00  0.00     0.090 N 
HETATM   11  C   UNK N   1      27.764  18.707   4.287  0.00  0.00     0.272 C 
HETATM   12  C   UNK N   1      27.993  20.143   4.744  0.00  0.00     0.030 C 
HETATM   13  C   UNK N   1      27.449  20.320   6.163  0.00  0.00     0.003 C 
HETATM   14  C   UNK N   1      27.970  19.234   7.113  0.00  0.00     0.030 C 
HETATM   15  C   UNK N   1      27.765  17.845   6.500  0.00  0.00     0.272 C 
ENDBRANCH   9  10
ENDBRANCH   5   9
BRANCH   7  16
HETATM   16  C   UNK N   1      32.545  16.393   7.263  0.00  0.00     0.025 A 
HETATM   17  C   UNK N   1      33.330  17.479   6.856  0.00  0.00     0.018 A 
HETATM   18  C   UNK N   1      34.272  18.027   7.724  0.00  0.00     0.018 A 
HETATM   19  C   UNK N   1      34.416  17.486   9.002  0.00  0.00     0.087 A 
HETATM   20  N   UNK N   1      33.650  16.427   9.387  0.00  0.00    -0.374 N 
HETATM   21  C   UNK N   1      32.723  15.880   8.554  0.00  0.00     0.102 A 
ATOM     22  HN  UNK N   1      33.775  16.036  10.320  1.00  0.00     0.164 HD
ENDBRANCH   7  16
TORSDOF 3
ENDMDL
