REMARK  13 active torsions:
REMARK  status: ('A' for Active; 'I' for Inactive)
REMARK    1  A    between atoms: O_1  and  C_9 
REMARK    2  A    between atoms: O_1  and  C_15 
REMARK    3  A    between atoms: O_2  and  C_8 
REMARK    4  A    between atoms: O_2  and  C_26 
REMARK    5  A    between atoms: O_3  and  C_18 
REMARK    6  A    between atoms: O_3  and  C_25 
REMARK    7  A    between atoms: O_5  and  C_33 
REMARK    8  A    between atoms: C_7  and  C_13 
REMARK    9  A    between atoms: C_13  and  C_16 
REMARK   10  A    between atoms: C_14  and  C_17 
REMARK   11  A    between atoms: C_15  and  C_23 
REMARK   12  A    between atoms: C_25  and  C_27 
REMARK   13  A    between atoms: C_26  and  C_33 
ROOT
HETATM    1  C   UNK N   1       4.482  -0.813  -0.043  0.00  0.00     0.047 A 
HETATM    2  C   UNK N   1       3.440  -1.823  -0.001  0.00  0.00     0.086 A 
HETATM    3  C   UNK N   1       5.187  -3.569   0.004  0.00  0.00     0.071 A 
HETATM    4  C   UNK N   1       3.836  -3.189   0.025  0.00  0.00     0.074 A 
HETATM    5  C   UNK N   1       5.808  -1.260  -0.065  0.00  0.00     0.021 A 
HETATM    6  C   UNK N   1       6.159  -2.580  -0.044  0.00  0.00     0.038 A 
ENDROOT
BRANCH   1   7
HETATM    7  C   UNK N   1       4.376   0.697  -0.047  0.00  0.00     0.184 C 
HETATM    8  O   UNK N   1       3.343   1.318   0.071  0.00  0.00    -0.287 OA
BRANCH   7   9
HETATM    9  C   UNK N   1       5.664   1.415  -0.133  0.00  0.00     0.056 C 
HETATM   10  C   UNK N   1       5.981   2.702  -0.058  0.00  0.00     0.015 C 
BRANCH  10  11
HETATM   11  C   UNK N   1       7.428   3.014  -0.097  0.00  0.00    -0.036 A 
HETATM   12  C   UNK N   1       7.889   4.296   0.205  0.00  0.00     0.014 A 
HETATM   13  C   UNK N   1       9.266   4.540   0.281  0.00  0.00     0.037 A 
HETATM   14  C   UNK N   1      10.194   3.505   0.047  0.00  0.00     0.069 A 
HETATM   15  C   UNK N   1       9.731   2.236  -0.285  0.00  0.00     0.037 A 
HETATM   16  C   UNK N   1       8.364   1.989  -0.348  0.00  0.00     0.014 A 
BRANCH  14  17
HETATM   17  O   UNK N   1      11.531   3.696   0.164  0.00  0.00    -0.347 OA
BRANCH  17  18
HETATM   18  C   UNK N   1      12.105   4.832   0.692  0.00  0.00     0.203 C 
BRANCH  18  19
HETATM   19  C   UNK N   1      12.090   5.951  -0.302  0.00  0.00     0.001 C 
HETATM   20  C   UNK N   1      11.425   7.090  -0.080  0.00  0.00    -0.089 C 
HETATM   21  C   UNK N   1      11.461   8.161  -1.112  0.00  0.00     0.042 C 
HETATM   22  C   UNK N   1      10.642   7.315   1.175  0.00  0.00     0.042 C 
ENDBRANCH  18  19
ENDBRANCH  17  18
ENDBRANCH  14  17
ENDBRANCH  10  11
ENDBRANCH   7   9
ENDBRANCH   1   7
BRANCH   2  23
HETATM   23  O   UNK N   1       2.100  -1.593   0.012  0.00  0.00    -0.340 OA
BRANCH  23  24
HETATM   24  C   UNK N   1       1.456  -0.391  -0.153  0.00  0.00     0.285 C 
BRANCH  24  25
HETATM   25  C   UNK N   1      -0.027  -0.530  -0.031  0.00  0.00     0.164 C 
HETATM   26  O   UNK N   1      -0.731   0.464  -0.115  0.00  0.00    -0.648 OA
BRANCH  25  27
HETATM   27  O   UNK N   1      -0.594  -1.734   0.173  0.00  0.00    -0.775 OA
HETATM   28  H   UNK N   1      -1.517  -1.811   0.316  0.00  0.00     0.167 HD
ENDBRANCH  25  27
ENDBRANCH  24  25
ENDBRANCH  23  24
ENDBRANCH   2  23
BRANCH   3  29
HETATM   29  O   UNK N   1       5.569  -4.875   0.027  0.00  0.00    -0.347 OA
BRANCH  29  30
HETATM   30  C   UNK N   1       6.920  -5.181   0.015  0.00  0.00     0.203 C 
BRANCH  30  31
HETATM   31  C   UNK N   1       7.232  -6.637   0.016  0.00  0.00     0.001 C 
HETATM   32  C   UNK N   1       8.510  -7.048   0.005  0.00  0.00    -0.089 C 
HETATM   33  C   UNK N   1       8.816  -8.503   0.007  0.00  0.00     0.042 C 
HETATM   34  C   UNK N   1       9.651  -6.073  -0.008  0.00  0.00     0.042 C 
ENDBRANCH  30  31
ENDBRANCH  29  30
ENDBRANCH   3  29
TORSDOF 13
