MODEL 1
REMARK VINA RESULT:      -6.4      0.000      0.000
REMARK  8 active torsions:
REMARK  status: ('A' for Active; 'I' for Inactive)
REMARK    1  A    between atoms: C_8  and  C_11 
REMARK    2  A    between atoms: C_11  and  N_12 
REMARK    3  A    between atoms: N_12  and  C_13 
REMARK    4  A    between atoms: C_18  and  N_12 
REMARK    5  A    between atoms: C_13  and  C_14 
REMARK    6  A    between atoms: C_14  and  C_15 
REMARK    7  A    between atoms: C_15  and  C_16 
REMARK    8  A    between atoms: C_16  and  N_17 
ROOT
HETATM    1  N   UNK N   1      36.176  14.055  11.790  0.00  0.00     0.105 N 
ENDROOT
BRANCH   1   2
HETATM    2  C   UNK N   1      35.861  15.497  11.640  0.00  0.00     0.349 C 
BRANCH   2   3
HETATM    3  C   UNK N   1      34.863  15.968  10.591  0.00  0.00     0.111 A 
HETATM    4  N   UNK N   1      33.722  15.320  10.234  0.00  0.00    -0.343 N 
HETATM    5  C   UNK N   1      33.235  16.043   9.222  0.00  0.00     0.060 A 
HETATM    6  H   UNK N   1      33.341  14.503  10.632  0.00  0.00     0.167 HD
HETATM    7  C   UNK N   1      34.047  17.105   8.985  0.00  0.00     0.060 A 
HETATM    8  C   UNK N   1      32.096  15.793   8.463  0.00  0.00     0.032 A 
HETATM    9  C   UNK N   1      33.788  18.022   7.973  0.00  0.00     0.032 A 
HETATM   10  N   UNK N   1      35.085  17.077   9.838  0.00  0.00    -0.343 N 
HETATM   11  C   UNK N   1      32.640  17.809   7.182  0.00  0.00     0.002 A 
HETATM   12  C   UNK N   1      31.799  16.696   7.424  0.00  0.00     0.002 A 
ATOM     13  HN  UNK N   1      35.859  17.736   9.905  1.00  0.00     0.167 HD
ENDBRANCH   2   3
ENDBRANCH   1   2
BRANCH   1  14
HETATM   14  C   UNK N   1      37.276  13.772  10.878  0.00  0.00     0.274 C 
BRANCH  14  15
HETATM   15  C   UNK N   1      36.747  12.902   9.744  0.00  0.00     0.032 C 
BRANCH  15  16
HETATM   16  C   UNK N   1      36.932  13.568   8.389  0.00  0.00     0.021 C 
BRANCH  16  17
HETATM   17  C   UNK N   1      35.619  13.663   7.627  0.00  0.00     0.111 C 
BRANCH  17  18
HETATM   18  N   UNK N   1      35.625  14.827   6.755  0.00  0.00    -0.430 N 
HETATM   19  H   UNK N   1      35.955  15.791   6.709  0.00  0.00     0.149 HD
HETATM   20  H   UNK N   1      35.126  14.602   5.895  0.00  0.00     0.149 HD
ENDBRANCH  17  18
ENDBRANCH  16  17
ENDBRANCH  15  16
ENDBRANCH  14  15
ENDBRANCH   1  14
BRANCH   1  21
HETATM   21  C   UNK N   1      36.362  13.567  13.175  0.00  0.00     0.273 C 
HETATM   22  C   UNK N   1      36.383  14.724  14.165  0.00  0.00     0.042 C 
HETATM   23  C   UNK N   1      37.040  14.205  15.442  0.00  0.00     0.007 C 
HETATM   24  C   UNK N   1      36.284  13.021  16.064  0.00  0.00     0.040 C 
HETATM   25  C   UNK N   1      35.447  12.217  15.101  0.00  0.00    -0.033 A 
HETATM   26  C   UNK N   1      35.427  12.496  13.717  0.00  0.00     0.049 A 
HETATM   27  C   UNK N   1      34.623  11.210  15.606  0.00  0.00     0.010 A 
HETATM   28  N   UNK N   1      34.590  11.787  12.908  0.00  0.00    -0.367 N 
HETATM   29  C   UNK N   1      33.782  10.805  13.390  0.00  0.00     0.088 A 
ATOM     30  HN  UNK N   1      34.568  12.000  11.911  1.00  0.00     0.165 HD
HETATM   31  C   UNK N   1      33.792  10.494  14.748  0.00  0.00     0.018 A 
ENDBRANCH   1  21
TORSDOF 8
ENDMDL
MODEL 2
REMARK VINA RESULT:      -6.4      3.094      8.151
REMARK  8 active torsions:
REMARK  status: ('A' for Active; 'I' for Inactive)
REMARK    1  A    between atoms: C_8  and  C_11 
REMARK    2  A    between atoms: C_11  and  N_12 
REMARK    3  A    between atoms: N_12  and  C_13 
REMARK    4  A    between atoms: C_18  and  N_12 
REMARK    5  A    between atoms: C_13  and  C_14 
REMARK    6  A    between atoms: C_14  and  C_15 
REMARK    7  A    between atoms: C_15  and  C_16 
REMARK    8  A    between atoms: C_16  and  N_17 
ROOT
HETATM    1  N   UNK N   1      31.584  16.489   7.456  0.00  0.00     0.105 N 
ENDROOT
BRANCH   1   2
HETATM    2  C   UNK N   1      32.657  17.098   8.278  0.00  0.00     0.349 C 
BRANCH   2   3
HETATM    3  C   UNK N   1      33.549  16.232   9.156  0.00  0.00     0.111 A 
HETATM    4  N   UNK N   1      33.585  14.872   9.154  0.00  0.00    -0.343 N 
HETATM    5  C   UNK N   1      34.424  14.562  10.146  0.00  0.00     0.060 A 
HETATM    6  H   UNK N   1      33.102  14.257   8.555  0.00  0.00     0.167 HD
HETATM    7  C   UNK N   1      34.894  15.699  10.720  0.00  0.00     0.060 A 
HETATM    8  C   UNK N   1      34.786  13.296  10.596  0.00  0.00     0.032 A 
HETATM    9  C   UNK N   1      35.779  15.674  11.792  0.00  0.00     0.032 A 
HETATM   10  N   UNK N   1      34.353  16.768  10.112  0.00  0.00    -0.343 N 
HETATM   11  C   UNK N   1      36.175  14.411  12.277  0.00  0.00     0.002 A 
HETATM   12  C   UNK N   1      35.676  13.226  11.683  0.00  0.00     0.002 A 
ATOM     13  HN  UNK N   1      34.509  17.753  10.319  1.00  0.00     0.167 HD
ENDBRANCH   2   3
ENDBRANCH   1   2
BRANCH   1  14
HETATM   14  C   UNK N   1      30.350  17.182   7.800  0.00  0.00     0.274 C 
BRANCH  14  15
HETATM   15  C   UNK N   1      30.686  18.300   8.780  0.00  0.00     0.032 C 
BRANCH  15  16
HETATM   16  C   UNK N   1      29.576  18.506   9.801  0.00  0.00     0.021 C 
BRANCH  16  17
HETATM   17  C   UNK N   1      28.254  17.932   9.315  0.00  0.00     0.111 C 
BRANCH  17  18
HETATM   18  N   UNK N   1      27.476  18.957   8.638  0.00  0.00    -0.430 N 
HETATM   19  H   UNK N   1      27.098  19.201   7.723  0.00  0.00     0.149 HD
HETATM   20  H   UNK N   1      27.221  19.681   9.309  0.00  0.00     0.149 HD
ENDBRANCH  17  18
ENDBRANCH  16  17
ENDBRANCH  15  16
ENDBRANCH  14  15
ENDBRANCH   1  14
BRANCH   1  21
HETATM   21  C   UNK N   1      31.858  16.369   6.006  0.00  0.00     0.273 C 
HETATM   22  C   UNK N   1      32.888  17.398   5.557  0.00  0.00     0.042 C 
HETATM   23  C   UNK N   1      32.754  17.530   4.042  0.00  0.00     0.007 C 
HETATM   24  C   UNK N   1      33.005  16.206   3.303  0.00  0.00     0.040 C 
HETATM   25  C   UNK N   1      32.758  14.960   4.116  0.00  0.00    -0.033 A 
HETATM   26  C   UNK N   1      32.259  15.016   5.435  0.00  0.00     0.049 A 
HETATM   27  C   UNK N   1      33.093  13.722   3.565  0.00  0.00     0.010 A 
HETATM   28  N   UNK N   1      32.133  13.862   6.149  0.00  0.00    -0.367 N 
HETATM   29  C   UNK N   1      32.457  12.651   5.621  0.00  0.00     0.088 A 
ATOM     30  HN  UNK N   1      31.785  13.908   7.105  1.00  0.00     0.165 HD
HETATM   31  C   UNK N   1      32.935  12.560   4.316  0.00  0.00     0.018 A 
ENDBRANCH   1  21
TORSDOF 8
ENDMDL
MODEL 3
REMARK VINA RESULT:      -6.4      0.950      1.642
REMARK  8 active torsions:
REMARK  status: ('A' for Active; 'I' for Inactive)
REMARK    1  A    between atoms: C_8  and  C_11 
REMARK    2  A    between atoms: C_11  and  N_12 
REMARK    3  A    between atoms: N_12  and  C_13 
REMARK    4  A    between atoms: C_18  and  N_12 
REMARK    5  A    between atoms: C_13  and  C_14 
REMARK    6  A    between atoms: C_14  and  C_15 
REMARK    7  A    between atoms: C_15  and  C_16 
REMARK    8  A    between atoms: C_16  and  N_17 
ROOT
HETATM    1  N   UNK N   1      36.183  14.008  11.757  0.00  0.00     0.105 N 
ENDROOT
BRANCH   1   2
HETATM    2  C   UNK N   1      35.932  15.455  11.544  0.00  0.00     0.349 C 
BRANCH   2   3
HETATM    3  C   UNK N   1      34.954  15.925  10.477  0.00  0.00     0.111 A 
HETATM    4  N   UNK N   1      35.041  17.088   9.778  0.00  0.00    -0.343 N 
HETATM    5  C   UNK N   1      33.924  17.117   9.045  0.00  0.00     0.060 A 
HETATM    6  H   UNK N   1      35.764  17.756   9.805  0.00  0.00     0.167 HD
HETATM    7  C   UNK N   1      33.192  15.998   9.282  0.00  0.00     0.060 A 
HETATM    8  C   UNK N   1      33.497  18.116   8.176  0.00  0.00     0.032 A 
HETATM    9  C   UNK N   1      31.969  15.771   8.661  0.00  0.00     0.032 A 
HETATM   10  N   UNK N   1      33.823  15.230  10.185  0.00  0.00    -0.343 N 
HETATM   11  C   UNK N   1      31.500  16.756   7.768  0.00  0.00     0.002 A 
HETATM   12  C   UNK N   1      32.260  17.927   7.530  0.00  0.00     0.002 A 
ATOM     13  HN  UNK N   1      33.523  14.333  10.565  1.00  0.00     0.167 HD
ENDBRANCH   2   3
ENDBRANCH   1   2
BRANCH   1  14
HETATM   14  C   UNK N   1      37.252  13.631  10.843  0.00  0.00     0.274 C 
BRANCH  14  15
HETATM   15  C   UNK N   1      36.910  12.275  10.238  0.00  0.00     0.032 C 
BRANCH  15  16
HETATM   16  C   UNK N   1      35.820  12.387   9.183  0.00  0.00     0.021 C 
BRANCH  16  17
HETATM   17  C   UNK N   1      34.799  11.268   9.311  0.00  0.00     0.111 C 
BRANCH  17  18
HETATM   18  N   UNK N   1      33.495  11.810   9.657  0.00  0.00    -0.430 N 
HETATM   19  H   UNK N   1      32.815  11.837  10.418  0.00  0.00     0.149 HD
HETATM   20  H   UNK N   1      33.137  12.349   8.870  0.00  0.00     0.149 HD
ENDBRANCH  17  18
ENDBRANCH  16  17
ENDBRANCH  15  16
ENDBRANCH  14  15
ENDBRANCH   1  14
BRANCH   1  21
HETATM   21  C   UNK N   1      36.370  13.577  13.160  0.00  0.00     0.273 C 
HETATM   22  C   UNK N   1      36.383  14.772  14.104  0.00  0.00     0.042 C 
HETATM   23  C   UNK N   1      37.040  14.308  15.401  0.00  0.00     0.007 C 
HETATM   24  C   UNK N   1      36.291  13.145  16.069  0.00  0.00     0.040 C 
HETATM   25  C   UNK N   1      35.460  12.298  15.137  0.00  0.00    -0.033 A 
HETATM   26  C   UNK N   1      35.440  12.522  13.744  0.00  0.00     0.049 A 
HETATM   27  C   UNK N   1      34.641  11.308  15.681  0.00  0.00     0.010 A 
HETATM   28  N   UNK N   1      34.608  11.777  12.962  0.00  0.00    -0.367 N 
HETATM   29  C   UNK N   1      33.806  10.810  13.482  0.00  0.00     0.088 A 
ATOM     30  HN  UNK N   1      34.587  11.950  11.958  1.00  0.00     0.165 HD
HETATM   31  C   UNK N   1      33.816  10.553  14.851  0.00  0.00     0.018 A 
ENDBRANCH   1  21
TORSDOF 8
ENDMDL
MODEL 4
REMARK VINA RESULT:      -6.2      6.929      9.127
REMARK  8 active torsions:
REMARK  status: ('A' for Active; 'I' for Inactive)
REMARK    1  A    between atoms: C_8  and  C_11 
REMARK    2  A    between atoms: C_11  and  N_12 
REMARK    3  A    between atoms: N_12  and  C_13 
REMARK    4  A    between atoms: C_18  and  N_12 
REMARK    5  A    between atoms: C_13  and  C_14 
REMARK    6  A    between atoms: C_14  and  C_15 
REMARK    7  A    between atoms: C_15  and  C_16 
REMARK    8  A    between atoms: C_16  and  N_17 
ROOT
HETATM    1  N   UNK N   1      29.996  15.585   5.244  0.00  0.00     0.105 N 
ENDROOT
BRANCH   1   2
HETATM    2  C   UNK N   1      29.783  16.424   4.039  0.00  0.00     0.349 C 
BRANCH   2   3
HETATM    3  C   UNK N   1      28.556  17.316   3.922  0.00  0.00     0.111 A 
HETATM    4  N   UNK N   1      28.555  18.675   3.970  0.00  0.00    -0.343 N 
HETATM    5  C   UNK N   1      27.261  19.006   3.931  0.00  0.00     0.060 A 
HETATM    6  H   UNK N   1      29.332  19.278   4.022  0.00  0.00     0.167 HD
HETATM    7  C   UNK N   1      26.503  17.883   3.845  0.00  0.00     0.060 A 
HETATM    8  C   UNK N   1      26.701  20.278   3.993  0.00  0.00     0.032 A 
HETATM    9  C   UNK N   1      25.115  17.930   3.801  0.00  0.00     0.032 A 
HETATM   10  N   UNK N   1      27.301  16.801   3.839  0.00  0.00    -0.343 N 
HETATM   11  C   UNK N   1      24.506  19.200   3.857  0.00  0.00     0.002 A 
HETATM   12  C   UNK N   1      25.297  20.370   3.957  0.00  0.00     0.002 A 
ATOM     13  HN  UNK N   1      27.027  15.821   3.785  1.00  0.00     0.167 HD
ENDBRANCH   2   3
ENDBRANCH   1   2
BRANCH   1  14
HETATM   14  C   UNK N   1      30.482  14.295   4.774  0.00  0.00     0.274 C 
BRANCH  14  15
HETATM   15  C   UNK N   1      30.816  14.420   3.293  0.00  0.00     0.032 C 
BRANCH  15  16
HETATM   16  C   UNK N   1      32.174  13.814   2.968  0.00  0.00     0.021 C 
BRANCH  16  17
HETATM   17  C   UNK N   1      33.285  14.848   3.060  0.00  0.00     0.111 C 
BRANCH  17  18
HETATM   18  N   UNK N   1      34.203  14.703   1.941  0.00  0.00    -0.430 N 
HETATM   19  H   UNK N   1      35.195  14.603   1.728  0.00  0.00     0.149 HD
HETATM   20  H   UNK N   1      33.672  14.701   1.071  0.00  0.00     0.149 HD
ENDBRANCH  17  18
ENDBRANCH  16  17
ENDBRANCH  15  16
ENDBRANCH  14  15
ENDBRANCH   1  14
BRANCH   1  21
HETATM   21  C   UNK N   1      30.786  16.198   6.336  0.00  0.00     0.273 C 
HETATM   22  C   UNK N   1      31.932  17.034   5.781  0.00  0.00     0.042 C 
HETATM   23  C   UNK N   1      32.939  17.216   6.914  0.00  0.00     0.007 C 
HETATM   24  C   UNK N   1      32.340  17.927   8.137  0.00  0.00     0.040 C 
HETATM   25  C   UNK N   1      30.844  17.801   8.285  0.00  0.00    -0.033 A 
HETATM   26  C   UNK N   1      30.071  17.020   7.399  0.00  0.00     0.049 A 
HETATM   27  C   UNK N   1      30.205  18.529   9.289  0.00  0.00     0.010 A 
HETATM   28  N   UNK N   1      28.714  17.008   7.534  0.00  0.00    -0.367 N 
HETATM   29  C   UNK N   1      28.082  17.715   8.509  0.00  0.00     0.088 A 
ATOM     30  HN  UNK N   1      28.158  16.454   6.884  1.00  0.00     0.165 HD
HETATM   31  C   UNK N   1      28.818  18.482   9.409  0.00  0.00     0.018 A 
ENDBRANCH   1  21
TORSDOF 8
ENDMDL
MODEL 5
REMARK VINA RESULT:      -6.2      1.144      2.300
REMARK  8 active torsions:
REMARK  status: ('A' for Active; 'I' for Inactive)
REMARK    1  A    between atoms: C_8  and  C_11 
REMARK    2  A    between atoms: C_11  and  N_12 
REMARK    3  A    between atoms: N_12  and  C_13 
REMARK    4  A    between atoms: C_18  and  N_12 
REMARK    5  A    between atoms: C_13  and  C_14 
REMARK    6  A    between atoms: C_14  and  C_15 
REMARK    7  A    between atoms: C_15  and  C_16 
REMARK    8  A    between atoms: C_16  and  N_17 
ROOT
HETATM    1  N   UNK N   1      35.835  13.291  11.894  0.00  0.00     0.105 N 
ENDROOT
BRANCH   1   2
HETATM    2  C   UNK N   1      35.721  14.769  11.943  0.00  0.00     0.349 C 
BRANCH   2   3
HETATM    3  C   UNK N   1      34.933  15.522  10.881  0.00  0.00     0.111 A 
HETATM    4  N   UNK N   1      33.730  15.145  10.369  0.00  0.00    -0.343 N 
HETATM    5  C   UNK N   1      33.484  16.042   9.410  0.00  0.00     0.060 A 
HETATM    6  H   UNK N   1      33.169  14.384  10.644  0.00  0.00     0.167 HD
HETATM    7  C   UNK N   1      34.498  16.943   9.355  0.00  0.00     0.060 A 
HETATM    8  C   UNK N   1      32.396  16.092   8.545  0.00  0.00     0.032 A 
HETATM    9  C   UNK N   1      34.510  17.986   8.435  0.00  0.00     0.032 A 
HETATM   10  N   UNK N   1      35.426  16.634  10.276  0.00  0.00    -0.343 N 
HETATM   11  C   UNK N   1      33.423  18.076   7.541  0.00  0.00     0.002 A 
HETATM   12  C   UNK N   1      32.372  17.129   7.594  0.00  0.00     0.002 A 
ATOM     13  HN  UNK N   1      36.299  17.121  10.473  1.00  0.00     0.167 HD
ENDBRANCH   2   3
ENDBRANCH   1   2
BRANCH   1  14
HETATM   14  C   UNK N   1      37.256  12.980  11.956  0.00  0.00     0.274 C 
BRANCH  14  15
HETATM   15  C   UNK N   1      37.873  13.283  10.596  0.00  0.00     0.032 C 
BRANCH  15  16
HETATM   16  C   UNK N   1      37.790  12.086   9.660  0.00  0.00     0.021 C 
BRANCH  16  17
HETATM   17  C   UNK N   1      37.265  12.482   8.288  0.00  0.00     0.111 C 
BRANCH  17  18
HETATM   18  N   UNK N   1      36.697  13.820   8.332  0.00  0.00    -0.430 N 
HETATM   19  H   UNK N   1      35.866  14.346   8.062  0.00  0.00     0.149 HD
HETATM   20  H   UNK N   1      37.356  14.448   8.790  0.00  0.00     0.149 HD
ENDBRANCH  17  18
ENDBRANCH  16  17
ENDBRANCH  15  16
ENDBRANCH  14  15
ENDBRANCH   1  14
BRANCH   1  21
HETATM   21  C   UNK N   1      34.981  12.538  12.840  0.00  0.00     0.273 C 
HETATM   22  C   UNK N   1      34.999  11.047  12.527  0.00  0.00     0.042 C 
HETATM   23  C   UNK N   1      33.772  10.436  13.199  0.00  0.00     0.007 C 
HETATM   24  C   UNK N   1      33.766  10.633  14.723  0.00  0.00     0.040 C 
HETATM   25  C   UNK N   1      34.561  11.813  15.221  0.00  0.00    -0.033 A 
HETATM   26  C   UNK N   1      35.198  12.710  14.337  0.00  0.00     0.049 A 
HETATM   27  C   UNK N   1      34.719  11.984  16.597  0.00  0.00     0.010 A 
HETATM   28  N   UNK N   1      35.969  13.712  14.846  0.00  0.00    -0.367 N 
HETATM   29  C   UNK N   1      36.130  13.886  16.186  0.00  0.00     0.088 A 
ATOM     30  HN  UNK N   1      36.438  14.350  14.205  1.00  0.00     0.165 HD
HETATM   31  C   UNK N   1      35.500  13.028  17.084  0.00  0.00     0.018 A 
ENDBRANCH   1  21
TORSDOF 8
ENDMDL
MODEL 6
REMARK VINA RESULT:      -6.2      7.067     11.976
REMARK  8 active torsions:
REMARK  status: ('A' for Active; 'I' for Inactive)
REMARK    1  A    between atoms: C_8  and  C_11 
REMARK    2  A    between atoms: C_11  and  N_12 
REMARK    3  A    between atoms: N_12  and  C_13 
REMARK    4  A    between atoms: C_18  and  N_12 
REMARK    5  A    between atoms: C_13  and  C_14 
REMARK    6  A    between atoms: C_14  and  C_15 
REMARK    7  A    between atoms: C_15  and  C_16 
REMARK    8  A    between atoms: C_16  and  N_17 
ROOT
HETATM    1  N   UNK N   1      27.098  18.639   5.272  0.00  0.00     0.105 N 
ENDROOT
BRANCH   1   2
HETATM    2  C   UNK N   1      27.959  17.931   4.293  0.00  0.00     0.349 C 
BRANCH   2   3
HETATM    3  C   UNK N   1      29.350  17.454   4.686  0.00  0.00     0.111 A 
HETATM    4  N   UNK N   1      29.632  16.549   5.662  0.00  0.00    -0.343 N 
HETATM    5  C   UNK N   1      30.967  16.526   5.715  0.00  0.00     0.060 A 
HETATM    6  H   UNK N   1      28.997  16.027   6.204  0.00  0.00     0.167 HD
HETATM    7  C   UNK N   1      31.477  17.379   4.790  0.00  0.00     0.060 A 
HETATM    8  C   UNK N   1      31.776  15.791   6.575  0.00  0.00     0.032 A 
HETATM    9  C   UNK N   1      32.846  17.567   4.633  0.00  0.00     0.032 A 
HETATM   10  N   UNK N   1      30.473  17.978   4.128  0.00  0.00    -0.343 N 
HETATM   11  C   UNK N   1      33.703  16.838   5.482  0.00  0.00     0.002 A 
HETATM   12  C   UNK N   1      33.169  15.956   6.453  0.00  0.00     0.002 A 
ATOM     13  HN  UNK N   1      30.538  18.668   3.380  1.00  0.00     0.167 HD
ENDBRANCH   2   3
ENDBRANCH   1   2
BRANCH   1  14
HETATM   14  C   UNK N   1      27.955  19.583   5.976  0.00  0.00     0.274 C 
BRANCH  14  15
HETATM   15  C   UNK N   1      27.678  19.459   7.470  0.00  0.00     0.032 C 
BRANCH  15  16
HETATM   16  C   UNK N   1      28.870  18.881   8.218  0.00  0.00     0.021 C 
BRANCH  16  17
HETATM   17  C   UNK N   1      28.482  17.654   9.028  0.00  0.00     0.111 C 
BRANCH  17  18
HETATM   18  N   UNK N   1      27.328  16.999   8.432  0.00  0.00    -0.430 N 
HETATM   19  H   UNK N   1      26.330  16.848   8.577  0.00  0.00     0.149 HD
HETATM   20  H   UNK N   1      27.616  16.530   7.574  0.00  0.00     0.149 HD
ENDBRANCH  17  18
ENDBRANCH  16  17
ENDBRANCH  15  16
ENDBRANCH  14  15
ENDBRANCH   1  14
BRANCH   1  21
HETATM   21  C   UNK N   1      25.836  19.204   4.743  0.00  0.00     0.273 C 
HETATM   22  C   UNK N   1      26.017  19.710   3.318  0.00  0.00     0.042 C 
HETATM   23  C   UNK N   1      24.867  20.674   3.038  0.00  0.00     0.007 C 
HETATM   24  C   UNK N   1      23.487  20.013   3.169  0.00  0.00     0.040 C 
HETATM   25  C   UNK N   1      23.438  18.802   4.067  0.00  0.00    -0.033 A 
HETATM   26  C   UNK N   1      24.568  18.364   4.791  0.00  0.00     0.049 A 
HETATM   27  C   UNK N   1      22.256  18.063   4.133  0.00  0.00     0.010 A 
HETATM   28  N   UNK N   1      24.485  17.218   5.523  0.00  0.00    -0.367 N 
HETATM   29  C   UNK N   1      23.339  16.489   5.594  0.00  0.00     0.088 A 
ATOM     30  HN  UNK N   1      25.307  16.897   6.034  1.00  0.00     0.165 HD
HETATM   31  C   UNK N   1      22.201  16.905   4.905  0.00  0.00     0.018 A 
ENDBRANCH   1  21
TORSDOF 8
ENDMDL
MODEL 7
REMARK VINA RESULT:      -6.1      7.923     11.703
REMARK  8 active torsions:
REMARK  status: ('A' for Active; 'I' for Inactive)
REMARK    1  A    between atoms: C_8  and  C_11 
REMARK    2  A    between atoms: C_11  and  N_12 
REMARK    3  A    between atoms: N_12  and  C_13 
REMARK    4  A    between atoms: C_18  and  N_12 
REMARK    5  A    between atoms: C_13  and  C_14 
REMARK    6  A    between atoms: C_14  and  C_15 
REMARK    7  A    between atoms: C_15  and  C_16 
REMARK    8  A    between atoms: C_16  and  N_17 
ROOT
HETATM    1  N   UNK N   1      27.911  17.562   4.058  0.00  0.00     0.105 N 
ENDROOT
BRANCH   1   2
HETATM    2  C   UNK N   1      26.903  16.511   4.340  0.00  0.00     0.349 C 
BRANCH   2   3
HETATM    3  C   UNK N   1      25.421  16.853   4.399  0.00  0.00     0.111 A 
HETATM    4  N   UNK N   1      24.800  17.518   5.411  0.00  0.00    -0.343 N 
HETATM    5  C   UNK N   1      23.506  17.492   5.077  0.00  0.00     0.060 A 
HETATM    6  H   UNK N   1      25.211  17.927   6.207  0.00  0.00     0.167 HD
HETATM    7  C   UNK N   1      23.351  16.846   3.893  0.00  0.00     0.060 A 
HETATM    8  C   UNK N   1      22.428  18.001   5.795  0.00  0.00     0.032 A 
HETATM    9  C   UNK N   1      22.102  16.659   3.312  0.00  0.00     0.032 A 
HETATM   10  N   UNK N   1      24.549  16.432   3.446  0.00  0.00    -0.343 N 
HETATM   11  C   UNK N   1      20.982  17.163   4.003  0.00  0.00     0.002 A 
HETATM   12  C   UNK N   1      21.145  17.828   5.243  0.00  0.00     0.002 A 
ATOM     13  HN  UNK N   1      24.755  15.919   2.590  1.00  0.00     0.167 HD
ENDBRANCH   2   3
ENDBRANCH   1   2
BRANCH   1  14
HETATM   14  C   UNK N   1      27.173  18.790   3.798  0.00  0.00     0.274 C 
BRANCH  14  15
HETATM   15  C   UNK N   1      27.826  19.918   4.587  0.00  0.00     0.032 C 
BRANCH  15  16
HETATM   16  C   UNK N   1      26.831  20.616   5.502  0.00  0.00     0.021 C 
BRANCH  16  17
HETATM   17  C   UNK N   1      27.164  20.393   6.968  0.00  0.00     0.111 C 
BRANCH  17  18
HETATM   18  N   UNK N   1      26.084  20.878   7.812  0.00  0.00    -0.430 N 
HETATM   19  H   UNK N   1      25.068  20.852   7.906  0.00  0.00     0.149 HD
HETATM   20  H   UNK N   1      26.476  21.435   8.570  0.00  0.00     0.149 HD
ENDBRANCH  17  18
ENDBRANCH  16  17
ENDBRANCH  15  16
ENDBRANCH  14  15
ENDBRANCH   1  14
BRANCH   1  21
HETATM   21  C   UNK N   1      29.019  17.684   5.033  0.00  0.00     0.273 C 
HETATM   22  C   UNK N   1      28.716  16.905   6.306  0.00  0.00     0.042 C 
HETATM   23  C   UNK N   1      29.633  17.457   7.395  0.00  0.00     0.007 C 
HETATM   24  C   UNK N   1      31.123  17.308   7.052  0.00  0.00     0.040 C 
HETATM   25  C   UNK N   1      31.438  17.220   5.580  0.00  0.00    -0.033 A 
HETATM   26  C   UNK N   1      30.436  17.343   4.594  0.00  0.00     0.049 A 
HETATM   27  C   UNK N   1      32.750  16.947   5.189  0.00  0.00     0.010 A 
HETATM   28  N   UNK N   1      30.768  17.175   3.283  0.00  0.00    -0.367 N 
HETATM   29  C   UNK N   1      32.043  16.907   2.892  0.00  0.00     0.088 A 
ATOM     30  HN  UNK N   1      30.039  17.251   2.575  1.00  0.00     0.165 HD
HETATM   31  C   UNK N   1      33.058  16.797   3.840  0.00  0.00     0.018 A 
ENDBRANCH   1  21
TORSDOF 8
ENDMDL
MODEL 8
REMARK VINA RESULT:      -6.1      1.860      5.036
REMARK  8 active torsions:
REMARK  status: ('A' for Active; 'I' for Inactive)
REMARK    1  A    between atoms: C_8  and  C_11 
REMARK    2  A    between atoms: C_11  and  N_12 
REMARK    3  A    between atoms: N_12  and  C_13 
REMARK    4  A    between atoms: C_18  and  N_12 
REMARK    5  A    between atoms: C_13  and  C_14 
REMARK    6  A    between atoms: C_14  and  C_15 
REMARK    7  A    between atoms: C_15  and  C_16 
REMARK    8  A    between atoms: C_16  and  N_17 
ROOT
HETATM    1  N   UNK N   1      36.234  13.997  12.521  0.00  0.00     0.105 N 
ENDROOT
BRANCH   1   2
HETATM    2  C   UNK N   1      34.817  14.123  12.101  0.00  0.00     0.349 C 
BRANCH   2   3
HETATM    3  C   UNK N   1      34.430  15.025  10.938  0.00  0.00     0.111 A 
HETATM    4  N   UNK N   1      35.182  16.042  10.438  0.00  0.00    -0.343 N 
HETATM    5  C   UNK N   1      34.402  16.604   9.510  0.00  0.00     0.060 A 
HETATM    6  H   UNK N   1      36.094  16.304  10.700  0.00  0.00     0.167 HD
HETATM    7  C   UNK N   1      33.221  15.937   9.439  0.00  0.00     0.060 A 
HETATM    8  C   UNK N   1      34.677  17.716   8.721  0.00  0.00     0.032 A 
HETATM    9  C   UNK N   1      32.211  16.316   8.563  0.00  0.00     0.032 A 
HETATM   10  N   UNK N   1      33.216  14.935  10.334  0.00  0.00    -0.343 N 
HETATM   11  C   UNK N   1      32.449  17.437   7.742  0.00  0.00     0.002 A 
HETATM   12  C   UNK N   1      33.677  18.137   7.824  0.00  0.00     0.002 A 
ATOM     13  HN  UNK N   1      32.472  14.263  10.518  1.00  0.00     0.167 HD
ENDBRANCH   2   3
ENDBRANCH   1   2
BRANCH   1  14
HETATM   14  C   UNK N   1      36.267  14.240  13.957  0.00  0.00     0.274 C 
BRANCH  14  15
HETATM   15  C   UNK N   1      37.090  13.137  14.611  0.00  0.00     0.032 C 
BRANCH  15  16
HETATM   16  C   UNK N   1      36.302  12.413  15.693  0.00  0.00     0.021 C 
BRANCH  16  17
HETATM   17  C   UNK N   1      34.913  13.008  15.868  0.00  0.00     0.111 C 
BRANCH  17  18
HETATM   18  N   UNK N   1      34.697  13.388  17.254  0.00  0.00    -0.430 N 
HETATM   19  H   UNK N   1      35.185  13.474  18.146  0.00  0.00     0.149 HD
HETATM   20  H   UNK N   1      33.724  13.664  17.378  0.00  0.00     0.149 HD
ENDBRANCH  17  18
ENDBRANCH  16  17
ENDBRANCH  15  16
ENDBRANCH  14  15
ENDBRANCH   1  14
BRANCH   1  21
HETATM   21  C   UNK N   1      36.944  12.779  12.070  0.00  0.00     0.273 C 
HETATM   22  C   UNK N   1      35.988  11.598  11.958  0.00  0.00     0.042 C 
HETATM   23  C   UNK N   1      36.841  10.332  11.966  0.00  0.00     0.007 C 
HETATM   24  C   UNK N   1      37.846  10.281  10.805  0.00  0.00     0.040 C 
HETATM   25  C   UNK N   1      38.245  11.623  10.242  0.00  0.00    -0.033 A 
HETATM   26  C   UNK N   1      37.781  12.834  10.800  0.00  0.00     0.049 A 
HETATM   27  C   UNK N   1      39.046  11.660   9.100  0.00  0.00     0.010 A 
HETATM   28  N   UNK N   1      38.110  14.012  10.199  0.00  0.00    -0.367 N 
HETATM   29  C   UNK N   1      38.889  14.059   9.086  0.00  0.00     0.088 A 
ATOM     30  HN  UNK N   1      37.762  14.884  10.597  1.00  0.00     0.165 HD
HETATM   31  C   UNK N   1      39.378  12.883   8.522  0.00  0.00     0.018 A 
ENDBRANCH   1  21
TORSDOF 8
ENDMDL
MODEL 9
REMARK VINA RESULT:      -5.9     12.594     15.513
REMARK  8 active torsions:
REMARK  status: ('A' for Active; 'I' for Inactive)
REMARK    1  A    between atoms: C_8  and  C_11 
REMARK    2  A    between atoms: C_11  and  N_12 
REMARK    3  A    between atoms: N_12  and  C_13 
REMARK    4  A    between atoms: C_18  and  N_12 
REMARK    5  A    between atoms: C_13  and  C_14 
REMARK    6  A    between atoms: C_14  and  C_15 
REMARK    7  A    between atoms: C_15  and  C_16 
REMARK    8  A    between atoms: C_16  and  N_17 
ROOT
HETATM    1  N   UNK N   1      21.515  16.153   5.138  0.00  0.00     0.105 N 
ENDROOT
BRANCH   1   2
HETATM    2  C   UNK N   1      21.663  17.629   5.128  0.00  0.00     0.349 C 
BRANCH   2   3
HETATM    3  C   UNK N   1      22.975  18.275   4.704  0.00  0.00     0.111 A 
HETATM    4  N   UNK N   1      24.161  18.166   5.362  0.00  0.00    -0.343 N 
HETATM    5  C   UNK N   1      24.986  18.973   4.689  0.00  0.00     0.060 A 
HETATM    6  H   UNK N   1      24.365  17.617   6.153  0.00  0.00     0.167 HD
HETATM    7  C   UNK N   1      24.324  19.540   3.647  0.00  0.00     0.060 A 
HETATM    8  C   UNK N   1      26.318  19.260   4.968  0.00  0.00     0.032 A 
HETATM    9  C   UNK N   1      24.939  20.438   2.782  0.00  0.00     0.032 A 
HETATM   10  N   UNK N   1      23.050  19.113   3.638  0.00  0.00    -0.343 N 
HETATM   11  C   UNK N   1      26.291  20.754   3.027  0.00  0.00     0.002 A 
HETATM   12  C   UNK N   1      26.976  20.170   4.119  0.00  0.00     0.002 A 
ATOM     13  HN  UNK N   1      22.310  19.362   2.983  1.00  0.00     0.167 HD
ENDBRANCH   2   3
ENDBRANCH   1   2
BRANCH   1  14
HETATM   14  C   UNK N   1      20.515  15.841   6.149  0.00  0.00     0.274 C 
BRANCH  14  15
HETATM   15  C   UNK N   1      21.235  15.354   7.401  0.00  0.00     0.032 C 
BRANCH  15  16
HETATM   16  C   UNK N   1      20.670  15.994   8.660  0.00  0.00     0.021 C 
BRANCH  16  17
HETATM   17  C   UNK N   1      19.682  17.102   8.331  0.00  0.00     0.111 C 
BRANCH  17  18
HETATM   18  N   UNK N   1      18.454  16.926   9.091  0.00  0.00    -0.430 N 
HETATM   19  H   UNK N   1      17.904  16.213   9.569  0.00  0.00     0.149 HD
HETATM   20  H   UNK N   1      17.981  17.825   9.174  0.00  0.00     0.149 HD
ENDBRANCH  17  18
ENDBRANCH  16  17
ENDBRANCH  15  16
ENDBRANCH  14  15
ENDBRANCH   1  14
BRANCH   1  21
HETATM   21  C   UNK N   1      21.307  15.508   3.822  0.00  0.00     0.273 C 
HETATM   22  C   UNK N   1      20.396  16.350   2.937  0.00  0.00     0.042 C 
HETATM   23  C   UNK N   1      19.860  15.428   1.845  0.00  0.00     0.007 C 
HETATM   24  C   UNK N   1      20.972  14.811   0.984  0.00  0.00     0.040 C 
HETATM   25  C   UNK N   1      22.321  14.712   1.652  0.00  0.00    -0.033 A 
HETATM   26  C   UNK N   1      22.517  15.092   2.997  0.00  0.00     0.049 A 
HETATM   27  C   UNK N   1      23.416  14.292   0.896  0.00  0.00     0.010 A 
HETATM   28  N   UNK N   1      23.774  15.057   3.523  0.00  0.00    -0.367 N 
HETATM   29  C   UNK N   1      24.848  14.650   2.794  0.00  0.00     0.088 A 
ATOM     30  HN  UNK N   1      23.914  15.345   4.490  1.00  0.00     0.165 HD
HETATM   31  C   UNK N   1      24.684  14.252   1.469  0.00  0.00     0.018 A 
ENDBRANCH   1  21
TORSDOF 8
ENDMDL
