MODEL 1
REMARK VINA RESULT:      -6.8      0.000      0.000
REMARK  12 active torsions:
REMARK  status: ('A' for Active; 'I' for Inactive)
REMARK    1  A    between atoms: C_6  and  C_5 
REMARK    2  A    between atoms: C_11  and  C_5 
REMARK    3  A    between atoms: C_14  and  C_6 
REMARK    4  A    between atoms: C_9  and  C_7 
REMARK    5  A    between atoms: C_13  and  C_7 
REMARK    6  A    between atoms: C_15  and  C_11 
REMARK    7  A    between atoms: C_11  and  N_17 
REMARK    8  A    between atoms: C_16  and  C_13 
REMARK    9  A    between atoms: C_13  and  N_19 
REMARK   10  A    between atoms: O_22  and  C_14 
REMARK   11  A    between atoms: C_15  and  O_23 
REMARK   12  A    between atoms: O_25  and  C_16 
ROOT
HETATM    1  C   UNK N   1      32.692  17.592   8.111  0.00  0.00     0.185 C 
ENDROOT
BRANCH   1   2
HETATM    2  C   UNK N   1      31.621  18.601   8.571  0.00  0.00     0.076 C 
BRANCH   2   3
HETATM    3  C   UNK N   1      30.172  18.175   8.619  0.00  0.00    -0.028 A 
HETATM    4  C   UNK N   1      29.192  18.563   9.535  0.00  0.00     0.096 A 
HETATM    5  N   UNK N   1      27.990  18.054   9.168  0.00  0.00    -0.365 N 
HETATM    6  C   UNK N   1      28.206  17.369   8.031  0.00  0.00     0.042 A 
HETATM    7  H   UNK N   1      27.133  18.162   9.640  0.00  0.00     0.165 HD
HETATM    8  C   UNK N   1      27.254  16.701   7.267  0.00  0.00     0.030 A 
HETATM    9  C   UNK N   1      29.523  17.422   7.669  0.00  0.00    -0.002 A 
HETATM   10  C   UNK N   1      27.690  16.064   6.090  0.00  0.00     0.002 A 
HETATM   11  C   UNK N   1      29.052  16.114   5.713  0.00  0.00     0.001 A 
HETATM   12  C   UNK N   1      29.987  16.806   6.508  0.00  0.00     0.014 A 
ENDBRANCH   2   3
ENDBRANCH   1   2
BRANCH   1  13
HETATM   13  C   UNK N   1      33.988  18.178   7.615  0.00  0.00     0.163 C 
HETATM   14  O   UNK N   1      34.424  17.883   6.513  0.00  0.00    -0.648 OA
BRANCH  13  15
HETATM   15  O   UNK N   1      34.660  19.056   8.384  0.00  0.00    -0.775 OA
HETATM   16  H   UNK N   1      35.005  19.058   9.255  0.00  0.00     0.167 HD
ENDBRANCH  13  15
ENDBRANCH   1  13
BRANCH   1  17
HETATM   17  N   UNK N   1      32.883  16.530   9.074  0.00  0.00    -0.358 N 
HETATM   18  C   UNK N   1      33.070  15.310   8.689  0.00  0.00     0.135 C 
ATOM     19  HN  UNK N   1      32.869  16.747  10.071  1.00  0.00     0.162 HD
BRANCH  18  20
HETATM   20  C   UNK N   1      33.229  14.220   9.715  0.00  0.00     0.149 C 
BRANCH  20  21
HETATM   21  C   UNK N   1      34.672  14.036  10.176  0.00  0.00     0.043 C 
BRANCH  21  22
HETATM   22  C   UNK N   1      34.965  14.927  11.375  0.00  0.00     0.112 C 
BRANCH  22  23
HETATM   23  C   UNK N   1      35.792  16.111  10.995  0.00  0.00     0.139 C 
HETATM   24  O   UNK N   1      35.261  17.187  10.769  0.00  0.00    -0.650 OA
BRANCH  23  25
HETATM   25  O   UNK N   1      37.126  15.983  10.871  0.00  0.00    -0.776 OA
HETATM   26  H   UNK N   1      37.676  16.034  11.628  0.00  0.00     0.167 HD
ENDBRANCH  23  25
ENDBRANCH  22  23
ENDBRANCH  21  22
ENDBRANCH  20  21
BRANCH  20  27
HETATM   27  N   UNK N   1      32.748  12.968   9.160  0.00  0.00    -0.419 N 
HETATM   28  H   UNK N   1      33.221  12.091   9.375  0.00  0.00     0.150 HD
HETATM   29  H   UNK N   1      31.930  12.964   8.551  0.00  0.00     0.150 HD
ENDBRANCH  20  27
ENDBRANCH  18  20
BRANCH  18  30
HETATM   30  O   UNK N   1      33.122  15.012   7.371  0.00  0.00    -0.348 OA
HETATM   31  H   UNK N   1      32.922  14.450   6.648  0.00  0.00     0.219 HD
ENDBRANCH  18  30
ENDBRANCH   1  17
TORSDOF 12
ENDMDL
MODEL 2
REMARK VINA RESULT:      -6.5      5.768      9.934
REMARK  12 active torsions:
REMARK  status: ('A' for Active; 'I' for Inactive)
REMARK    1  A    between atoms: C_6  and  C_5 
REMARK    2  A    between atoms: C_11  and  C_5 
REMARK    3  A    between atoms: C_14  and  C_6 
REMARK    4  A    between atoms: C_9  and  C_7 
REMARK    5  A    between atoms: C_13  and  C_7 
REMARK    6  A    between atoms: C_15  and  C_11 
REMARK    7  A    between atoms: C_11  and  N_17 
REMARK    8  A    between atoms: C_16  and  C_13 
REMARK    9  A    between atoms: C_13  and  N_19 
REMARK   10  A    between atoms: O_22  and  C_14 
REMARK   11  A    between atoms: C_15  and  O_23 
REMARK   12  A    between atoms: O_25  and  C_16 
ROOT
HETATM    1  C   UNK N   1      35.624  13.622  14.713  0.00  0.00     0.185 C 
ENDROOT
BRANCH   1   2
HETATM    2  C   UNK N   1      34.615  12.975  15.683  0.00  0.00     0.076 C 
BRANCH   2   3
HETATM    3  C   UNK N   1      34.981  12.824  17.142  0.00  0.00    -0.028 A 
HETATM    4  C   UNK N   1      34.993  13.810  18.131  0.00  0.00     0.096 A 
HETATM    5  N   UNK N   1      35.265  13.251  19.336  0.00  0.00    -0.365 N 
HETATM    6  C   UNK N   1      35.406  11.932  19.112  0.00  0.00     0.042 A 
HETATM    7  H   UNK N   1      35.344  13.716  20.200  0.00  0.00     0.165 HD
HETATM    8  C   UNK N   1      35.658  10.948  20.063  0.00  0.00     0.030 A 
HETATM    9  C   UNK N   1      35.239  11.639  17.788  0.00  0.00    -0.002 A 
HETATM   10  C   UNK N   1      35.745   9.616  19.618  0.00  0.00     0.002 A 
HETATM   11  C   UNK N   1      35.577   9.307  18.248  0.00  0.00     0.001 A 
HETATM   12  C   UNK N   1      35.315  10.329  17.314  0.00  0.00     0.014 A 
ENDBRANCH   2   3
ENDBRANCH   1   2
BRANCH   1  13
HETATM   13  C   UNK N   1      37.078  13.498  15.085  0.00  0.00     0.163 C 
HETATM   14  O   UNK N   1      37.664  12.434  14.962  0.00  0.00    -0.648 OA
BRANCH  13  15
HETATM   15  O   UNK N   1      37.745  14.578  15.536  0.00  0.00    -0.775 OA
HETATM   16  H   UNK N   1      38.598  14.741  15.886  0.00  0.00     0.167 HD
ENDBRANCH  13  15
ENDBRANCH   1  13
BRANCH   1  17
HETATM   17  N   UNK N   1      35.358  13.258  13.338  0.00  0.00    -0.358 N 
HETATM   18  C   UNK N   1      35.744  14.017  12.365  0.00  0.00     0.135 C 
ATOM     19  HN  UNK N   1      34.859  12.393  13.134  1.00  0.00     0.162 HD
BRANCH  18  20
HETATM   20  C   UNK N   1      35.422  13.631  10.945  0.00  0.00     0.149 C 
BRANCH  20  21
HETATM   21  C   UNK N   1      35.996  14.600   9.915  0.00  0.00     0.043 C 
BRANCH  21  22
HETATM   22  C   UNK N   1      34.880  15.390   9.247  0.00  0.00     0.112 C 
BRANCH  22  23
HETATM   23  C   UNK N   1      34.841  16.804   9.727  0.00  0.00     0.139 C 
HETATM   24  O   UNK N   1      35.714  17.229  10.467  0.00  0.00    -0.650 OA
BRANCH  23  25
HETATM   25  O   UNK N   1      33.821  17.604   9.365  0.00  0.00    -0.776 OA
HETATM   26  H   UNK N   1      33.729  18.453   9.752  0.00  0.00     0.167 HD
ENDBRANCH  23  25
ENDBRANCH  22  23
ENDBRANCH  21  22
ENDBRANCH  20  21
BRANCH  20  27
HETATM   27  N   UNK N   1      33.980  13.570  10.782  0.00  0.00    -0.419 N 
HETATM   28  H   UNK N   1      33.392  14.347  11.084  0.00  0.00     0.150 HD
HETATM   29  H   UNK N   1      33.552  12.744  10.363  0.00  0.00     0.150 HD
ENDBRANCH  20  27
ENDBRANCH  18  20
BRANCH  18  30
HETATM   30  O   UNK N   1      36.433  15.152  12.617  0.00  0.00    -0.348 OA
HETATM   31  H   UNK N   1      37.185  15.700  12.499  0.00  0.00     0.219 HD
ENDBRANCH  18  30
ENDBRANCH   1  17
TORSDOF 12
ENDMDL
MODEL 3
REMARK VINA RESULT:      -6.4      3.214      7.557
REMARK  12 active torsions:
REMARK  status: ('A' for Active; 'I' for Inactive)
REMARK    1  A    between atoms: C_6  and  C_5 
REMARK    2  A    between atoms: C_11  and  C_5 
REMARK    3  A    between atoms: C_14  and  C_6 
REMARK    4  A    between atoms: C_9  and  C_7 
REMARK    5  A    between atoms: C_13  and  C_7 
REMARK    6  A    between atoms: C_15  and  C_11 
REMARK    7  A    between atoms: C_11  and  N_17 
REMARK    8  A    between atoms: C_16  and  C_13 
REMARK    9  A    between atoms: C_13  and  N_19 
REMARK   10  A    between atoms: O_22  and  C_14 
REMARK   11  A    between atoms: C_15  and  O_23 
REMARK   12  A    between atoms: O_25  and  C_16 
ROOT
HETATM    1  C   UNK N   1      34.799  15.314  11.492  0.00  0.00     0.185 C 
ENDROOT
BRANCH   1   2
HETATM    2  C   UNK N   1      35.262  13.883  11.833  0.00  0.00     0.076 C 
BRANCH   2   3
HETATM    3  C   UNK N   1      35.668  13.553  13.251  0.00  0.00    -0.028 A 
HETATM    4  C   UNK N   1      36.473  14.303  14.110  0.00  0.00     0.096 A 
HETATM    5  N   UNK N   1      36.504  13.725  15.336  0.00  0.00    -0.365 N 
HETATM    6  C   UNK N   1      35.719  12.635  15.255  0.00  0.00     0.042 A 
HETATM    7  H   UNK N   1      37.002  14.038  16.126  0.00  0.00     0.165 HD
HETATM    8  C   UNK N   1      35.420  11.745  16.281  0.00  0.00     0.030 A 
HETATM    9  C   UNK N   1      35.195  12.502  14.000  0.00  0.00    -0.002 A 
HETATM   10  C   UNK N   1      34.551  10.677  15.988  0.00  0.00     0.002 A 
HETATM   11  C   UNK N   1      34.009  10.533  14.691  0.00  0.00     0.001 A 
HETATM   12  C   UNK N   1      34.328  11.458  13.677  0.00  0.00     0.014 A 
ENDBRANCH   2   3
ENDBRANCH   1   2
BRANCH   1  13
HETATM   13  C   UNK N   1      35.840  16.225  10.898  0.00  0.00     0.163 C 
HETATM   14  O   UNK N   1      35.550  17.362  10.555  0.00  0.00    -0.648 OA
BRANCH  13  15
HETATM   15  O   UNK N   1      37.108  15.792  10.765  0.00  0.00    -0.775 OA
HETATM   16  H   UNK N   1      37.901  16.139  10.406  0.00  0.00     0.167 HD
ENDBRANCH  13  15
ENDBRANCH   1  13
BRANCH   1  17
HETATM   17  N   UNK N   1      33.555  15.317  10.754  0.00  0.00    -0.358 N 
HETATM   18  C   UNK N   1      33.541  15.121   9.476  0.00  0.00     0.135 C 
ATOM     19  HN  UNK N   1      32.677  15.475  11.249  1.00  0.00     0.162 HD
BRANCH  18  20
HETATM   20  C   UNK N   1      32.235  15.165   8.729  0.00  0.00     0.149 C 
BRANCH  20  21
HETATM   21  C   UNK N   1      32.404  15.466   7.242  0.00  0.00     0.043 C 
BRANCH  21  22
HETATM   22  C   UNK N   1      32.123  16.935   6.961  0.00  0.00     0.112 C 
BRANCH  22  23
HETATM   23  C   UNK N   1      33.349  17.773   7.124  0.00  0.00     0.139 C 
HETATM   24  O   UNK N   1      33.492  18.471   8.115  0.00  0.00    -0.650 OA
BRANCH  23  25
HETATM   25  O   UNK N   1      34.286  17.781   6.158  0.00  0.00    -0.776 OA
HETATM   26  H   UNK N   1      35.196  17.787   6.385  0.00  0.00     0.167 HD
ENDBRANCH  23  25
ENDBRANCH  22  23
ENDBRANCH  21  22
ENDBRANCH  20  21
BRANCH  20  27
HETATM   27  N   UNK N   1      31.380  16.179   9.321  0.00  0.00    -0.419 N 
HETATM   28  H   UNK N   1      31.176  17.042   8.817  0.00  0.00     0.150 HD
HETATM   29  H   UNK N   1      30.979  16.027  10.246  0.00  0.00     0.150 HD
ENDBRANCH  20  27
ENDBRANCH  18  20
BRANCH  18  30
HETATM   30  O   UNK N   1      34.693  14.879   8.811  0.00  0.00    -0.348 OA
HETATM   31  H   UNK N   1      35.630  14.868   8.768  0.00  0.00     0.219 HD
ENDBRANCH  18  30
ENDBRANCH   1  17
TORSDOF 12
ENDMDL
MODEL 4
REMARK VINA RESULT:      -6.4     10.481     13.060
REMARK  12 active torsions:
REMARK  status: ('A' for Active; 'I' for Inactive)
REMARK    1  A    between atoms: C_6  and  C_5 
REMARK    2  A    between atoms: C_11  and  C_5 
REMARK    3  A    between atoms: C_14  and  C_6 
REMARK    4  A    between atoms: C_9  and  C_7 
REMARK    5  A    between atoms: C_13  and  C_7 
REMARK    6  A    between atoms: C_15  and  C_11 
REMARK    7  A    between atoms: C_11  and  N_17 
REMARK    8  A    between atoms: C_16  and  C_13 
REMARK    9  A    between atoms: C_13  and  N_19 
REMARK   10  A    between atoms: O_22  and  C_14 
REMARK   11  A    between atoms: C_15  and  O_23 
REMARK   12  A    between atoms: O_25  and  C_16 
ROOT
HETATM    1  C   UNK N   1      20.443  15.883   7.069  0.00  0.00     0.185 C 
ENDROOT
BRANCH   1   2
HETATM    2  C   UNK N   1      21.646  15.116   7.654  0.00  0.00     0.076 C 
BRANCH   2   3
HETATM    3  C   UNK N   1      21.458  14.282   8.901  0.00  0.00    -0.028 A 
HETATM    4  C   UNK N   1      20.265  13.978   9.558  0.00  0.00     0.096 A 
HETATM    5  N   UNK N   1      20.505  13.106  10.570  0.00  0.00    -0.365 N 
HETATM    6  C   UNK N   1      21.826  12.855  10.540  0.00  0.00     0.042 A 
HETATM    7  H   UNK N   1      19.845  12.734  11.199  0.00  0.00     0.165 HD
HETATM    8  C   UNK N   1      22.528  11.989  11.372  0.00  0.00     0.030 A 
HETATM    9  C   UNK N   1      22.435  13.554   9.537  0.00  0.00    -0.002 A 
HETATM   10  C   UNK N   1      23.911  11.851  11.155  0.00  0.00     0.002 A 
HETATM   11  C   UNK N   1      24.547  12.575  10.120  0.00  0.00     0.001 A 
HETATM   12  C   UNK N   1      23.803  13.438   9.292  0.00  0.00     0.014 A 
ENDBRANCH   2   3
ENDBRANCH   1   2
BRANCH   1  13
HETATM   13  C   UNK N   1      19.672  16.747   8.033  0.00  0.00     0.163 C 
HETATM   14  O   UNK N   1      20.243  17.592   8.705  0.00  0.00    -0.648 OA
BRANCH  13  15
HETATM   15  O   UNK N   1      18.338  16.603   8.136  0.00  0.00    -0.775 OA
HETATM   16  H   UNK N   1      17.756  15.930   8.433  0.00  0.00     0.167 HD
ENDBRANCH  13  15
ENDBRANCH   1  13
BRANCH   1  17
HETATM   17  N   UNK N   1      20.787  16.570   5.843  0.00  0.00    -0.358 N 
HETATM   18  C   UNK N   1      19.925  16.692   4.887  0.00  0.00     0.135 C 
ATOM     19  HN  UNK N   1      21.721  16.963   5.731  1.00  0.00     0.162 HD
BRANCH  18  20
HETATM   20  C   UNK N   1      20.322  17.380   3.608  0.00  0.00     0.149 C 
BRANCH  20  21
HETATM   21  C   UNK N   1      21.003  18.726   3.837  0.00  0.00     0.043 C 
BRANCH  21  22
HETATM   22  C   UNK N   1      20.369  19.798   2.962  0.00  0.00     0.112 C 
BRANCH  22  23
HETATM   23  C   UNK N   1      21.398  20.570   2.202  0.00  0.00     0.139 C 
HETATM   24  O   UNK N   1      22.223  21.248   2.794  0.00  0.00    -0.650 OA
BRANCH  23  25
HETATM   25  O   UNK N   1      21.396  20.541   0.857  0.00  0.00    -0.776 OA
HETATM   26  H   UNK N   1      21.149  19.758   0.403  0.00  0.00     0.167 HD
ENDBRANCH  23  25
ENDBRANCH  22  23
ENDBRANCH  21  22
ENDBRANCH  20  21
BRANCH  20  27
HETATM   27  N   UNK N   1      19.141  17.582   2.787  0.00  0.00    -0.419 N 
HETATM   28  H   UNK N   1      18.286  17.958   3.196  0.00  0.00     0.150 HD
HETATM   29  H   UNK N   1      19.166  17.347   1.795  0.00  0.00     0.150 HD
ENDBRANCH  20  27
ENDBRANCH  18  20
BRANCH  18  30
HETATM   30  O   UNK N   1      18.672  16.204   5.032  0.00  0.00    -0.348 OA
HETATM   31  H   UNK N   1      17.965  15.658   4.746  0.00  0.00     0.219 HD
ENDBRANCH  18  30
ENDBRANCH   1  17
TORSDOF 12
ENDMDL
MODEL 5
REMARK VINA RESULT:      -6.4      4.781      9.301
REMARK  12 active torsions:
REMARK  status: ('A' for Active; 'I' for Inactive)
REMARK    1  A    between atoms: C_6  and  C_5 
REMARK    2  A    between atoms: C_11  and  C_5 
REMARK    3  A    between atoms: C_14  and  C_6 
REMARK    4  A    between atoms: C_9  and  C_7 
REMARK    5  A    between atoms: C_13  and  C_7 
REMARK    6  A    between atoms: C_15  and  C_11 
REMARK    7  A    between atoms: C_11  and  N_17 
REMARK    8  A    between atoms: C_16  and  C_13 
REMARK    9  A    between atoms: C_13  and  N_19 
REMARK   10  A    between atoms: O_22  and  C_14 
REMARK   11  A    between atoms: C_15  and  O_23 
REMARK   12  A    between atoms: O_25  and  C_16 
ROOT
HETATM    1  C   UNK N   1      35.772  12.856  13.161  0.00  0.00     0.185 C 
ENDROOT
BRANCH   1   2
HETATM    2  C   UNK N   1      34.569  12.129  13.796  0.00  0.00     0.076 C 
BRANCH   2   3
HETATM    3  C   UNK N   1      34.757  11.379  15.094  0.00  0.00    -0.028 A 
HETATM    4  C   UNK N   1      34.932  10.005  15.275  0.00  0.00     0.096 A 
HETATM    5  N   UNK N   1      35.185   9.740  16.581  0.00  0.00    -0.365 N 
HETATM    6  C   UNK N   1      35.185  10.929  17.210  0.00  0.00     0.042 A 
HETATM    7  H   UNK N   1      35.337   8.856  16.986  0.00  0.00     0.165 HD
HETATM    8  C   UNK N   1      35.435  11.157  18.559  0.00  0.00     0.030 A 
HETATM    9  C   UNK N   1      34.929  11.946  16.334  0.00  0.00    -0.002 A 
HETATM   10  C   UNK N   1      35.411  12.489  19.012  0.00  0.00     0.002 A 
HETATM   11  C   UNK N   1      35.143  13.546  18.111  0.00  0.00     0.001 A 
HETATM   12  C   UNK N   1      34.901  13.277  16.749  0.00  0.00     0.014 A 
ENDBRANCH   2   3
ENDBRANCH   1   2
BRANCH   1  13
HETATM   13  C   UNK N   1      37.081  12.112  13.174  0.00  0.00     0.163 C 
HETATM   14  O   UNK N   1      37.389  11.376  12.250  0.00  0.00    -0.648 OA
BRANCH  13  15
HETATM   15  O   UNK N   1      37.933  12.280  14.204  0.00  0.00    -0.775 OA
HETATM   16  H   UNK N   1      37.966  12.826  14.965  0.00  0.00     0.167 HD
ENDBRANCH  13  15
ENDBRANCH   1  13
BRANCH   1  17
HETATM   17  N   UNK N   1      35.445  13.406  11.863  0.00  0.00    -0.358 N 
HETATM   18  C   UNK N   1      35.755  14.625  11.563  0.00  0.00     0.135 C 
ATOM     19  HN  UNK N   1      34.964  12.825  11.177  1.00  0.00     0.162 HD
BRANCH  18  20
HETATM   20  C   UNK N   1      35.371  15.182  10.217  0.00  0.00     0.149 C 
BRANCH  20  21
HETATM   21  C   UNK N   1      35.236  16.702  10.214  0.00  0.00     0.043 C 
BRANCH  21  22
HETATM   22  C   UNK N   1      34.189  17.141   9.199  0.00  0.00     0.112 C 
BRANCH  22  23
HETATM   23  C   UNK N   1      34.726  18.174   8.264  0.00  0.00     0.139 C 
HETATM   24  O   UNK N   1      35.348  19.133   8.695  0.00  0.00    -0.650 OA
BRANCH  23  25
HETATM   25  O   UNK N   1      34.496  18.064   6.943  0.00  0.00    -0.776 OA
HETATM   26  H   UNK N   1      33.636  18.213   6.601  0.00  0.00     0.167 HD
ENDBRANCH  23  25
ENDBRANCH  22  23
ENDBRANCH  21  22
ENDBRANCH  20  21
BRANCH  20  27
HETATM   27  N   UNK N   1      34.110  14.595   9.800  0.00  0.00    -0.419 N 
HETATM   28  H   UNK N   1      33.366  15.183   9.424  0.00  0.00     0.150 HD
HETATM   29  H   UNK N   1      33.967  13.589   9.883  0.00  0.00     0.150 HD
ENDBRANCH  20  27
ENDBRANCH  18  20
BRANCH  18  30
HETATM   30  O   UNK N   1      36.421  15.398  12.450  0.00  0.00    -0.348 OA
HETATM   31  H   UNK N   1      36.715  15.581  13.321  0.00  0.00     0.219 HD
ENDBRANCH  18  30
ENDBRANCH   1  17
TORSDOF 12
ENDMDL
MODEL 6
REMARK VINA RESULT:      -6.3     14.956     16.941
REMARK  12 active torsions:
REMARK  status: ('A' for Active; 'I' for Inactive)
REMARK    1  A    between atoms: C_6  and  C_5 
REMARK    2  A    between atoms: C_11  and  C_5 
REMARK    3  A    between atoms: C_14  and  C_6 
REMARK    4  A    between atoms: C_9  and  C_7 
REMARK    5  A    between atoms: C_13  and  C_7 
REMARK    6  A    between atoms: C_15  and  C_11 
REMARK    7  A    between atoms: C_11  and  N_17 
REMARK    8  A    between atoms: C_16  and  C_13 
REMARK    9  A    between atoms: C_13  and  N_19 
REMARK   10  A    between atoms: O_22  and  C_14 
REMARK   11  A    between atoms: C_15  and  O_23 
REMARK   12  A    between atoms: O_25  and  C_16 
ROOT
HETATM    1  C   UNK N   1      26.355  24.732  -5.770  0.00  0.00     0.185 C 
ENDROOT
BRANCH   1   2
HETATM    2  C   UNK N   1      26.352  26.165  -6.340  0.00  0.00     0.076 C 
BRANCH   2   3
HETATM    3  C   UNK N   1      26.217  27.338  -5.397  0.00  0.00    -0.028 A 
HETATM    4  C   UNK N   1      25.448  27.422  -4.235  0.00  0.00     0.096 A 
HETATM    5  N   UNK N   1      25.689  28.599  -3.606  0.00  0.00    -0.365 N 
HETATM    6  C   UNK N   1      26.605  29.240  -4.353  0.00  0.00     0.042 A 
HETATM    7  H   UNK N   1      25.275  28.920  -2.773  0.00  0.00     0.165 HD
HETATM    8  C   UNK N   1      27.184  30.476  -4.082  0.00  0.00     0.030 A 
HETATM    9  C   UNK N   1      26.948  28.501  -5.449  0.00  0.00    -0.002 A 
HETATM   10  C   UNK N   1      28.147  30.959  -4.986  0.00  0.00     0.002 A 
HETATM   11  C   UNK N   1      28.504  30.199  -6.124  0.00  0.00     0.001 A 
HETATM   12  C   UNK N   1      27.902  28.948  -6.363  0.00  0.00     0.014 A 
ENDBRANCH   2   3
ENDBRANCH   1   2
BRANCH   1  13
HETATM   13  C   UNK N   1      26.000  23.631  -6.734  0.00  0.00     0.163 C 
HETATM   14  O   UNK N   1      25.055  23.754  -7.498  0.00  0.00    -0.648 OA
BRANCH  13  15
HETATM   15  O   UNK N   1      26.746  22.511  -6.772  0.00  0.00    -0.775 OA
HETATM   16  H   UNK N   1      27.575  22.245  -6.426  0.00  0.00     0.167 HD
ENDBRANCH  13  15
ENDBRANCH   1  13
BRANCH   1  17
HETATM   17  N   UNK N   1      27.557  24.456  -5.012  0.00  0.00    -0.358 N 
HETATM   18  C   UNK N   1      27.494  24.146  -3.759  0.00  0.00     0.135 C 
ATOM     19  HN  UNK N   1      28.465  24.507  -5.474  1.00  0.00     0.162 HD
BRANCH  18  20
HETATM   20  C   UNK N   1      28.763  23.899  -2.987  0.00  0.00     0.149 C 
BRANCH  20  21
HETATM   21  C   UNK N   1      29.846  23.216  -3.817  0.00  0.00     0.043 C 
BRANCH  21  22
HETATM   22  C   UNK N   1      31.120  23.053  -2.999  0.00  0.00     0.112 C 
BRANCH  22  23
HETATM   23  C   UNK N   1      31.572  21.630  -2.957  0.00  0.00     0.139 C 
HETATM   24  O   UNK N   1      31.009  20.784  -3.634  0.00  0.00    -0.650 OA
BRANCH  23  25
HETATM   25  O   UNK N   1      32.584  21.274  -2.146  0.00  0.00    -0.776 OA
HETATM   26  H   UNK N   1      33.443  21.137  -2.497  0.00  0.00     0.167 HD
ENDBRANCH  23  25
ENDBRANCH  22  23
ENDBRANCH  21  22
ENDBRANCH  20  21
BRANCH  20  27
HETATM   27  N   UNK N   1      28.466  23.075  -1.829  0.00  0.00    -0.419 N 
HETATM   28  H   UNK N   1      28.654  23.419  -0.888  0.00  0.00     0.150 HD
HETATM   29  H   UNK N   1      28.066  22.146  -1.958  0.00  0.00     0.150 HD
ENDBRANCH  20  27
ENDBRANCH  18  20
BRANCH  18  30
HETATM   30  O   UNK N   1      26.296  24.044  -3.141  0.00  0.00    -0.348 OA
HETATM   31  H   UNK N   1      25.638  24.382  -2.564  0.00  0.00     0.219 HD
ENDBRANCH  18  30
ENDBRANCH   1  17
TORSDOF 12
ENDMDL
MODEL 7
REMARK VINA RESULT:      -6.2      2.946      7.551
REMARK  12 active torsions:
REMARK  status: ('A' for Active; 'I' for Inactive)
REMARK    1  A    between atoms: C_6  and  C_5 
REMARK    2  A    between atoms: C_11  and  C_5 
REMARK    3  A    between atoms: C_14  and  C_6 
REMARK    4  A    between atoms: C_9  and  C_7 
REMARK    5  A    between atoms: C_13  and  C_7 
REMARK    6  A    between atoms: C_15  and  C_11 
REMARK    7  A    between atoms: C_11  and  N_17 
REMARK    8  A    between atoms: C_16  and  C_13 
REMARK    9  A    between atoms: C_13  and  N_19 
REMARK   10  A    between atoms: O_22  and  C_14 
REMARK   11  A    between atoms: C_15  and  O_23 
REMARK   12  A    between atoms: O_25  and  C_16 
ROOT
HETATM    1  C   UNK N   1      36.212  15.023  10.708  0.00  0.00     0.185 C 
ENDROOT
BRANCH   1   2
HETATM    2  C   UNK N   1      36.057  14.691  12.206  0.00  0.00     0.076 C 
BRANCH   2   3
HETATM    3  C   UNK N   1      35.362  13.413  12.614  0.00  0.00    -0.028 A 
HETATM    4  C   UNK N   1      34.794  12.443  11.786  0.00  0.00     0.096 A 
HETATM    5  N   UNK N   1      34.372  11.390  12.531  0.00  0.00    -0.365 N 
HETATM    6  C   UNK N   1      34.683  11.687  13.805  0.00  0.00     0.042 A 
HETATM    7  H   UNK N   1      33.927  10.575  12.205  0.00  0.00     0.165 HD
HETATM    8  C   UNK N   1      34.472  10.885  14.923  0.00  0.00     0.030 A 
HETATM    9  C   UNK N   1      35.287  12.910  13.891  0.00  0.00    -0.002 A 
HETATM   10  C   UNK N   1      34.898  11.377  16.170  0.00  0.00     0.002 A 
HETATM   11  C   UNK N   1      35.520  12.643  16.265  0.00  0.00     0.001 A 
HETATM   12  C   UNK N   1      35.725  13.425  15.111  0.00  0.00     0.014 A 
ENDBRANCH   2   3
ENDBRANCH   1   2
BRANCH   1  13
HETATM   13  C   UNK N   1      37.362  14.362   9.995  0.00  0.00     0.163 C 
HETATM   14  O   UNK N   1      37.198  13.318   9.382  0.00  0.00    -0.648 OA
BRANCH  13  15
HETATM   15  O   UNK N   1      38.578  14.940  10.013  0.00  0.00    -0.775 OA
HETATM   16  H   UNK N   1      39.336  14.894  10.563  0.00  0.00     0.167 HD
ENDBRANCH  13  15
ENDBRANCH   1  13
BRANCH   1  17
HETATM   17  N   UNK N   1      34.958  14.901   9.996  0.00  0.00    -0.358 N 
HETATM   18  C   UNK N   1      34.211  15.934   9.786  0.00  0.00     0.135 C 
ATOM     19  HN  UNK N   1      34.661  13.986   9.656  1.00  0.00     0.162 HD
BRANCH  18  20
HETATM   20  C   UNK N   1      32.894  15.770   9.074  0.00  0.00     0.149 C 
BRANCH  20  21
HETATM   21  C   UNK N   1      32.330  17.086   8.545  0.00  0.00     0.043 C 
BRANCH  21  22
HETATM   22  C   UNK N   1      32.555  17.195   7.044  0.00  0.00     0.112 C 
BRANCH  22  23
HETATM   23  C   UNK N   1      33.994  17.428   6.716  0.00  0.00     0.139 C 
HETATM   24  O   UNK N   1      34.613  18.327   7.263  0.00  0.00    -0.650 OA
BRANCH  23  25
HETATM   25  O   UNK N   1      34.601  16.663   5.791  0.00  0.00    -0.776 OA
HETATM   26  H   UNK N   1      34.101  16.282   5.094  0.00  0.00     0.167 HD
ENDBRANCH  23  25
ENDBRANCH  22  23
ENDBRANCH  21  22
ENDBRANCH  20  21
BRANCH  20  27
HETATM   27  N   UNK N   1      31.930  15.175   9.983  0.00  0.00    -0.419 N 
HETATM   28  H   UNK N   1      31.039  14.824   9.634  0.00  0.00     0.150 HD
HETATM   29  H   UNK N   1      32.147  15.107  10.977  0.00  0.00     0.150 HD
ENDBRANCH  20  27
ENDBRANCH  18  20
BRANCH  18  30
HETATM   30  O   UNK N   1      34.606  17.158  10.204  0.00  0.00    -0.348 OA
HETATM   31  H   UNK N   1      35.015  17.987  10.046  0.00  0.00     0.219 HD
ENDBRANCH  18  30
ENDBRANCH   1  17
TORSDOF 12
ENDMDL
MODEL 8
REMARK VINA RESULT:      -6.2     15.442     17.530
REMARK  12 active torsions:
REMARK  status: ('A' for Active; 'I' for Inactive)
REMARK    1  A    between atoms: C_6  and  C_5 
REMARK    2  A    between atoms: C_11  and  C_5 
REMARK    3  A    between atoms: C_14  and  C_6 
REMARK    4  A    between atoms: C_9  and  C_7 
REMARK    5  A    between atoms: C_13  and  C_7 
REMARK    6  A    between atoms: C_15  and  C_11 
REMARK    7  A    between atoms: C_11  and  N_17 
REMARK    8  A    between atoms: C_16  and  C_13 
REMARK    9  A    between atoms: C_13  and  N_19 
REMARK   10  A    between atoms: O_22  and  C_14 
REMARK   11  A    between atoms: C_15  and  O_23 
REMARK   12  A    between atoms: O_25  and  C_16 
ROOT
HETATM    1  C   UNK N   1      26.055  24.263  -6.891  0.00  0.00     0.185 C 
ENDROOT
BRANCH   1   2
HETATM    2  C   UNK N   1      25.746  25.645  -7.503  0.00  0.00     0.076 C 
BRANCH   2   3
HETATM    3  C   UNK N   1      26.638  26.819  -7.170  0.00  0.00    -0.028 A 
HETATM    4  C   UNK N   1      27.633  27.394  -7.964  0.00  0.00     0.096 A 
HETATM    5  N   UNK N   1      28.125  28.502  -7.357  0.00  0.00    -0.365 N 
HETATM    6  C   UNK N   1      27.441  28.631  -6.206  0.00  0.00     0.042 A 
HETATM    7  H   UNK N   1      28.839  29.091  -7.690  0.00  0.00     0.165 HD
HETATM    8  C   UNK N   1      27.578  29.647  -5.265  0.00  0.00     0.030 A 
HETATM    9  C   UNK N   1      26.528  27.625  -6.062  0.00  0.00    -0.002 A 
HETATM   10  C   UNK N   1      26.741  29.608  -4.134  0.00  0.00     0.002 A 
HETATM   11  C   UNK N   1      25.797  28.567  -3.979  0.00  0.00     0.001 A 
HETATM   12  C   UNK N   1      25.681  27.558  -4.956  0.00  0.00     0.014 A 
ENDBRANCH   2   3
ENDBRANCH   1   2
BRANCH   1  13
HETATM   13  C   UNK N   1      25.549  23.069  -7.657  0.00  0.00     0.163 C 
HETATM   14  O   UNK N   1      24.665  23.192  -8.490  0.00  0.00    -0.648 OA
BRANCH  13  15
HETATM   15  O   UNK N   1      26.095  21.857  -7.439  0.00  0.00    -0.775 OA
HETATM   16  H   UNK N   1      25.828  21.069  -7.008  0.00  0.00     0.167 HD
ENDBRANCH  13  15
ENDBRANCH   1  13
BRANCH   1  17
HETATM   17  N   UNK N   1      27.444  24.142  -6.504  0.00  0.00    -0.358 N 
HETATM   18  C   UNK N   1      27.783  24.088  -5.258  0.00  0.00     0.135 C 
ATOM     19  HN  UNK N   1      28.164  24.100  -7.225  1.00  0.00     0.162 HD
BRANCH  18  20
HETATM   20  C   UNK N   1      29.240  23.998  -4.885  0.00  0.00     0.149 C 
BRANCH  20  21
HETATM   21  C   UNK N   1      29.648  22.614  -4.391  0.00  0.00     0.043 C 
BRANCH  21  22
HETATM   22  C   UNK N   1      31.126  22.594  -4.025  0.00  0.00     0.112 C 
BRANCH  22  23
HETATM   23  C   UNK N   1      31.330  22.324  -2.570  0.00  0.00     0.139 C 
HETATM   24  O   UNK N   1      30.707  22.955  -1.732  0.00  0.00    -0.650 OA
BRANCH  23  25
HETATM   25  O   UNK N   1      32.229  21.400  -2.183  0.00  0.00    -0.776 OA
HETATM   26  H   UNK N   1      32.086  20.494  -2.377  0.00  0.00     0.167 HD
ENDBRANCH  23  25
ENDBRANCH  22  23
ENDBRANCH  21  22
ENDBRANCH  20  21
BRANCH  20  27
HETATM   27  N   UNK N   1      29.528  24.973  -3.848  0.00  0.00    -0.419 N 
HETATM   28  H   UNK N   1      29.726  24.671  -2.895  0.00  0.00     0.150 HD
HETATM   29  H   UNK N   1      29.532  25.968  -4.075  0.00  0.00     0.150 HD
ENDBRANCH  20  27
ENDBRANCH  18  20
BRANCH  18  30
HETATM   30  O   UNK N   1      26.838  24.112  -4.292  0.00  0.00    -0.348 OA
HETATM   31  H   UNK N   1      26.179  24.561  -3.799  0.00  0.00     0.219 HD
ENDBRANCH  18  30
ENDBRANCH   1  17
TORSDOF 12
ENDMDL
MODEL 9
REMARK VINA RESULT:      -6.1      3.023      5.488
REMARK  12 active torsions:
REMARK  status: ('A' for Active; 'I' for Inactive)
REMARK    1  A    between atoms: C_6  and  C_5 
REMARK    2  A    between atoms: C_11  and  C_5 
REMARK    3  A    between atoms: C_14  and  C_6 
REMARK    4  A    between atoms: C_9  and  C_7 
REMARK    5  A    between atoms: C_13  and  C_7 
REMARK    6  A    between atoms: C_15  and  C_11 
REMARK    7  A    between atoms: C_11  and  N_17 
REMARK    8  A    between atoms: C_16  and  C_13 
REMARK    9  A    between atoms: C_13  and  N_19 
REMARK   10  A    between atoms: O_22  and  C_14 
REMARK   11  A    between atoms: C_15  and  O_23 
REMARK   12  A    between atoms: O_25  and  C_16 
ROOT
HETATM    1  C   UNK N   1      33.625  17.064   8.042  0.00  0.00     0.185 C 
ENDROOT
BRANCH   1   2
HETATM    2  C   UNK N   1      33.901  16.625   6.590  0.00  0.00     0.076 C 
BRANCH   2   3
HETATM    3  C   UNK N   1      32.869  16.905   5.521  0.00  0.00    -0.028 A 
HETATM    4  C   UNK N   1      32.904  17.889   4.531  0.00  0.00     0.096 A 
HETATM    5  N   UNK N   1      31.848  17.737   3.694  0.00  0.00    -0.365 N 
HETATM    6  C   UNK N   1      31.167  16.667   4.141  0.00  0.00     0.042 A 
HETATM    7  H   UNK N   1      31.623  18.299   2.917  0.00  0.00     0.165 HD
HETATM    8  C   UNK N   1      30.024  16.110   3.575  0.00  0.00     0.030 A 
HETATM    9  C   UNK N   1      31.762  16.136   5.251  0.00  0.00    -0.002 A 
HETATM   10  C   UNK N   1      29.481  14.967   4.191  0.00  0.00     0.002 A 
HETATM   11  C   UNK N   1      30.091  14.416   5.341  0.00  0.00     0.001 A 
HETATM   12  C   UNK N   1      31.252  15.002   5.882  0.00  0.00     0.014 A 
ENDBRANCH   2   3
ENDBRANCH   1   2
BRANCH   1  13
HETATM   13  C   UNK N   1      34.670  17.939   8.682  0.00  0.00     0.163 C 
HETATM   14  O   UNK N   1      34.955  19.025   8.200  0.00  0.00    -0.648 OA
BRANCH  13  15
HETATM   15  O   UNK N   1      35.280  17.532   9.812  0.00  0.00    -0.775 OA
HETATM   16  H   UNK N   1      35.145  17.659  10.731  0.00  0.00     0.167 HD
ENDBRANCH  13  15
ENDBRANCH   1  13
BRANCH   1  17
HETATM   17  N   UNK N   1      32.281  17.575   8.205  0.00  0.00    -0.358 N 
HETATM   18  C   UNK N   1      31.404  16.926   8.897  0.00  0.00     0.135 C 
ATOM     19  HN  UNK N   1      32.023  18.459   7.766  1.00  0.00     0.162 HD
BRANCH  18  20
HETATM   20  C   UNK N   1      30.003  17.464   9.019  0.00  0.00     0.149 C 
BRANCH  20  21
HETATM   21  C   UNK N   1      29.367  17.790   7.671  0.00  0.00     0.043 C 
BRANCH  21  22
HETATM   22  C   UNK N   1      28.174  18.718   7.857  0.00  0.00     0.112 C 
BRANCH  22  23
HETATM   23  C   UNK N   1      27.685  19.257   6.553  0.00  0.00     0.139 C 
HETATM   24  O   UNK N   1      28.299  19.030   5.522  0.00  0.00    -0.650 OA
BRANCH  23  25
HETATM   25  O   UNK N   1      26.579  20.023   6.519  0.00  0.00    -0.776 OA
HETATM   26  H   UNK N   1      26.591  20.847   6.071  0.00  0.00     0.167 HD
ENDBRANCH  23  25
ENDBRANCH  22  23
ENDBRANCH  21  22
ENDBRANCH  20  21
BRANCH  20  27
HETATM   27  N   UNK N   1      30.021  18.664   9.836  0.00  0.00    -0.419 N 
HETATM   28  H   UNK N   1      30.870  19.224   9.913  0.00  0.00     0.150 HD
HETATM   29  H   UNK N   1      29.180  18.950  10.336  0.00  0.00     0.150 HD
ENDBRANCH  20  27
ENDBRANCH  18  20
BRANCH  18  30
HETATM   30  O   UNK N   1      31.740  15.768   9.510  0.00  0.00    -0.348 OA
HETATM   31  H   UNK N   1      32.369  15.214   9.930  0.00  0.00     0.219 HD
ENDBRANCH  18  30
ENDBRANCH   1  17
TORSDOF 12
ENDMDL
