MODEL 1
REMARK VINA RESULT:      -1.8      0.000      0.000
REMARK  7 active torsions:
REMARK  status: ('A' for Active; 'I' for Inactive)
REMARK    1  A    between atoms: N_5  and  C_8 
REMARK    2  A    between atoms: N_5  and  C_13 
REMARK       I    between atoms: N_6  and  C_15 
REMARK    3  A    between atoms: N_7  and  C_23 
REMARK       I    between atoms: N_7  and  C_31 
REMARK    4  A    between atoms: C_13  and  C_16 
REMARK    5  A    between atoms: C_15  and  C_17 
REMARK    6  A    between atoms: C_16  and  C_18 
REMARK    7  A    between atoms: C_31  and  C_32 
ROOT
HETATM    1  O   UNK N   1      35.458  22.121  12.850  0.00  0.00    -0.411 OA
HETATM    2  H   UNK N   1      35.918  22.904  12.509  0.00  0.00     0.205 HD
HETATM    3  H   UNK N   1      35.921  21.504  13.439  0.00  0.00     0.205 HD
ENDROOT
TORSDOF 7
ENDMDL
MODEL 2
REMARK VINA RESULT:      -1.5     19.772     19.772
REMARK  7 active torsions:
REMARK  status: ('A' for Active; 'I' for Inactive)
REMARK    1  A    between atoms: N_5  and  C_8 
REMARK    2  A    between atoms: N_5  and  C_13 
REMARK       I    between atoms: N_6  and  C_15 
REMARK    3  A    between atoms: N_7  and  C_23 
REMARK       I    between atoms: N_7  and  C_31 
REMARK    4  A    between atoms: C_13  and  C_16 
REMARK    5  A    between atoms: C_15  and  C_17 
REMARK    6  A    between atoms: C_16  and  C_18 
REMARK    7  A    between atoms: C_31  and  C_32 
ROOT
HETATM    1  O   UNK N   1      20.609  20.611  -0.117  0.00  0.00    -0.411 OA
HETATM    2  H   UNK N   1      20.695  20.181  -0.982  0.00  0.00     0.205 HD
HETATM    3  H   UNK N   1      19.845  21.179   0.069  0.00  0.00     0.205 HD
ENDROOT
TORSDOF 7
ENDMDL
MODEL 3
REMARK VINA RESULT:      -1.4     10.371     10.371
REMARK  7 active torsions:
REMARK  status: ('A' for Active; 'I' for Inactive)
REMARK    1  A    between atoms: N_5  and  C_8 
REMARK    2  A    between atoms: N_5  and  C_13 
REMARK       I    between atoms: N_6  and  C_15 
REMARK    3  A    between atoms: N_7  and  C_23 
REMARK       I    between atoms: N_7  and  C_31 
REMARK    4  A    between atoms: C_13  and  C_16 
REMARK    5  A    between atoms: C_15  and  C_17 
REMARK    6  A    between atoms: C_16  and  C_18 
REMARK    7  A    between atoms: C_31  and  C_32 
ROOT
HETATM    1  O   UNK N   1      41.252  21.761  21.445  0.00  0.00    -0.411 OA
HETATM    2  H   UNK N   1      42.077  22.077  21.846  0.00  0.00     0.205 HD
HETATM    3  H   UNK N   1      40.518  21.473  22.009  0.00  0.00     0.205 HD
ENDROOT
TORSDOF 7
ENDMDL
MODEL 4
REMARK VINA RESULT:      -1.3      5.089      5.089
REMARK  7 active torsions:
REMARK  status: ('A' for Active; 'I' for Inactive)
REMARK    1  A    between atoms: N_5  and  C_8 
REMARK    2  A    between atoms: N_5  and  C_13 
REMARK       I    between atoms: N_6  and  C_15 
REMARK    3  A    between atoms: N_7  and  C_23 
REMARK       I    between atoms: N_7  and  C_31 
REMARK    4  A    between atoms: C_13  and  C_16 
REMARK    5  A    between atoms: C_15  and  C_17 
REMARK    6  A    between atoms: C_16  and  C_18 
REMARK    7  A    between atoms: C_31  and  C_32 
ROOT
HETATM    1  O   UNK N   1      35.401  19.346   8.586  0.00  0.00    -0.411 OA
HETATM    2  H   UNK N   1      35.916  20.117   8.871  0.00  0.00     0.205 HD
HETATM    3  H   UNK N   1      35.692  18.453   8.824  0.00  0.00     0.205 HD
ENDROOT
TORSDOF 7
ENDMDL
MODEL 5
REMARK VINA RESULT:      -1.3     16.556     16.556
REMARK  7 active torsions:
REMARK  status: ('A' for Active; 'I' for Inactive)
REMARK    1  A    between atoms: N_5  and  C_8 
REMARK    2  A    between atoms: N_5  and  C_13 
REMARK       I    between atoms: N_6  and  C_15 
REMARK    3  A    between atoms: N_7  and  C_23 
REMARK       I    between atoms: N_7  and  C_31 
REMARK    4  A    between atoms: C_13  and  C_16 
REMARK    5  A    between atoms: C_15  and  C_17 
REMARK    6  A    between atoms: C_16  and  C_18 
REMARK    7  A    between atoms: C_31  and  C_32 
ROOT
HETATM    1  O   UNK N   1      19.138  19.834  11.257  0.00  0.00    -0.411 OA
HETATM    2  H   UNK N   1      19.963  20.150  11.659  0.00  0.00     0.205 HD
HETATM    3  H   UNK N   1      18.403  19.547  11.822  0.00  0.00     0.205 HD
ENDROOT
TORSDOF 7
ENDMDL
MODEL 6
REMARK VINA RESULT:      -1.2     11.320     11.320
REMARK  7 active torsions:
REMARK  status: ('A' for Active; 'I' for Inactive)
REMARK    1  A    between atoms: N_5  and  C_8 
REMARK    2  A    between atoms: N_5  and  C_13 
REMARK       I    between atoms: N_6  and  C_15 
REMARK    3  A    between atoms: N_7  and  C_23 
REMARK       I    between atoms: N_7  and  C_31 
REMARK    4  A    between atoms: C_13  and  C_16 
REMARK    5  A    between atoms: C_15  and  C_17 
REMARK    6  A    between atoms: C_16  and  C_18 
REMARK    7  A    between atoms: C_31  and  C_32 
ROOT
HETATM    1  O   UNK N   1      24.805  21.393   9.092  0.00  0.00    -0.411 OA
HETATM    2  H   UNK N   1      24.117  21.354   8.409  0.00  0.00     0.205 HD
HETATM    3  H   UNK N   1      24.560  21.536  10.019  0.00  0.00     0.205 HD
ENDROOT
TORSDOF 7
ENDMDL
MODEL 7
REMARK VINA RESULT:      -1.2     15.064     15.064
REMARK  7 active torsions:
REMARK  status: ('A' for Active; 'I' for Inactive)
REMARK    1  A    between atoms: N_5  and  C_8 
REMARK    2  A    between atoms: N_5  and  C_13 
REMARK       I    between atoms: N_6  and  C_15 
REMARK    3  A    between atoms: N_7  and  C_23 
REMARK       I    between atoms: N_7  and  C_31 
REMARK    4  A    between atoms: C_13  and  C_16 
REMARK    5  A    between atoms: C_15  and  C_17 
REMARK    6  A    between atoms: C_16  and  C_18 
REMARK    7  A    between atoms: C_31  and  C_32 
ROOT
HETATM    1  O   UNK N   1      32.865  21.100  -1.954  0.00  0.00    -0.411 OA
HETATM    2  H   UNK N   1      33.112  21.503  -1.106  0.00  0.00     0.205 HD
HETATM    3  H   UNK N   1      31.933  21.060  -2.219  0.00  0.00     0.205 HD
ENDROOT
TORSDOF 7
ENDMDL
MODEL 8
REMARK VINA RESULT:      -1.2     13.994     13.994
REMARK  7 active torsions:
REMARK  status: ('A' for Active; 'I' for Inactive)
REMARK    1  A    between atoms: N_5  and  C_8 
REMARK    2  A    between atoms: N_5  and  C_13 
REMARK       I    between atoms: N_6  and  C_15 
REMARK    3  A    between atoms: N_7  and  C_23 
REMARK       I    between atoms: N_7  and  C_31 
REMARK    4  A    between atoms: C_13  and  C_16 
REMARK    5  A    between atoms: C_15  and  C_17 
REMARK    6  A    between atoms: C_16  and  C_18 
REMARK    7  A    between atoms: C_31  and  C_32 
ROOT
HETATM    1  O   UNK N   1      47.633  28.502  15.476  0.00  0.00    -0.411 OA
HETATM    2  H   UNK N   1      48.272  27.902  15.893  0.00  0.00     0.205 HD
HETATM    3  H   UNK N   1      47.944  29.207  14.886  0.00  0.00     0.205 HD
ENDROOT
TORSDOF 7
ENDMDL
MODEL 9
REMARK VINA RESULT:      -1.2     15.161     15.161
REMARK  7 active torsions:
REMARK  status: ('A' for Active; 'I' for Inactive)
REMARK    1  A    between atoms: N_5  and  C_8 
REMARK    2  A    between atoms: N_5  and  C_13 
REMARK       I    between atoms: N_6  and  C_15 
REMARK    3  A    between atoms: N_7  and  C_23 
REMARK       I    between atoms: N_7  and  C_31 
REMARK    4  A    between atoms: C_13  and  C_16 
REMARK    5  A    between atoms: C_15  and  C_17 
REMARK    6  A    between atoms: C_16  and  C_18 
REMARK    7  A    between atoms: C_31  and  C_32 
ROOT
HETATM    1  O   UNK N   1      30.472  23.016  -1.439  0.00  0.00    -0.411 OA
HETATM    2  H   UNK N   1      30.719  23.418  -0.592  0.00  0.00     0.205 HD
HETATM    3  H   UNK N   1      29.540  22.976  -1.704  0.00  0.00     0.205 HD
ENDROOT
TORSDOF 7
ENDMDL
