MODEL 1
REMARK VINA RESULT:      -5.4      0.000      0.000
REMARK WARNING: 32 MAX_TORS EXCEEDED!!!
REMARK  41 active torsions:
REMARK  status: ('A' for Active; 'I' for Inactive)
REMARK    1  A    between atoms: P_1  and  O_2 
REMARK    2  A    between atoms: P_1  and  O_4 
REMARK    3  A    between atoms: O_2  and  C_27 
REMARK    4  A    between atoms: O_3  and  C_38 
REMARK    5  A    between atoms: O_3  and  C_40 
REMARK    6  A    between atoms: O_4  and  C_46 
REMARK    7  A    between atoms: O_5  and  C_47 
REMARK    8  A    between atoms: O_5  and  C_51 
REMARK    9  A    between atoms: N_10  and  C_21 
REMARK   10  A    between atoms: C_11  and  C_12 
REMARK   11  A    between atoms: C_11  and  C_13 
REMARK   12  A    between atoms: C_12  and  C_14 
REMARK   13  A    between atoms: C_13  and  C_15 
REMARK   14  A    between atoms: C_14  and  C_16 
REMARK   15  A    between atoms: C_15  and  C_17 
REMARK   16  A    between atoms: C_16  and  C_18 
REMARK   17  A    between atoms: C_17  and  C_19 
REMARK   18  A    between atoms: C_18  and  C_20 
REMARK   19  A    between atoms: C_19  and  C_22 
REMARK   20  A    between atoms: C_20  and  C_23 
REMARK   21  A    between atoms: C_21  and  C_27 
REMARK   22  A    between atoms: C_22  and  C_28 
REMARK   23  A    between atoms: C_23  and  C_29 
REMARK   24  A    between atoms: C_28  and  C_38 
REMARK   25  A    between atoms: C_30  and  C_31 
REMARK   26  A    between atoms: C_30  and  C_32 
REMARK   27  A    between atoms: C_31  and  C_35 
REMARK   28  A    between atoms: C_32  and  C_39 
REMARK   29  A    between atoms: C_33  and  C_34 
REMARK   30  A    between atoms: C_33  and  C_36 
REMARK   31  A    between atoms: C_34  and  C_37 
REMARK   32  A    between atoms: C_35  and  C_42 
REMARK   33  A    between atoms: C_36  and  C_43 
REMARK   34  A    between atoms: C_37  and  C_44 
REMARK   35  A    between atoms: C_39  and  C_45 
REMARK   36  A    between atoms: C_40  and  C_46 
REMARK   37  A    between atoms: C_40  and  C_47 
REMARK   38  A    between atoms: C_42  and  C_48 
REMARK   39  A    between atoms: C_43  and  C_49 
REMARK   40  A    between atoms: C_44  and  C_50 
REMARK   41  A    between atoms: C_45  and  C_51 
ROOT
HETATM    1  C   UNK N   1      20.778  18.452   3.956  0.00  0.00     0.180 C 
ENDROOT
BRANCH   1   2
HETATM    2  O   UNK N   1      21.587  17.778   4.858  0.00  0.00    -0.312 OA
BRANCH   2   3
HETATM    3  C   UNK N   1      21.360  17.742   6.198  0.00  0.00     0.259 C 
HETATM    4  O   UNK N   1      21.069  18.760   6.812  0.00  0.00    -0.265 OA
BRANCH   3   5
HETATM    5  C   UNK N   1      21.651  16.479   6.946  0.00  0.00     0.111 C 
BRANCH   5   6
HETATM    6  C   UNK N   1      20.859  15.290   6.431  0.00  0.00     0.010 C 
BRANCH   6   7
HETATM    7  C   UNK N   1      20.995  14.085   7.348  0.00  0.00     0.000 C 
BRANCH   7   8
HETATM    8  C   UNK N   1      21.452  14.478   8.743  0.00  0.00     0.000 C 
BRANCH   8   9
HETATM    9  C   UNK N   1      20.434  14.037   9.781  0.00  0.00     0.000 C 
BRANCH   9  10
HETATM   10  C   UNK N   1      20.921  12.796  10.497  0.00  0.00     0.000 C 
BRANCH  10  11
HETATM   11  C   UNK N   1      22.435  12.789  10.592  0.00  0.00     0.000 C 
BRANCH  11  12
HETATM   12  C   UNK N   1      22.982  11.484  10.051  0.00  0.00     0.000 C 
BRANCH  12  13
HETATM   13  C   UNK N   1      24.072  11.757   9.037  0.00  0.00     0.000 C 
BRANCH  13  14
HETATM   14  C   UNK N   1      24.744  13.054   9.423  0.00  0.00     0.000 C 
BRANCH  14  15
HETATM   15  C   UNK N   1      25.192  13.813   8.195  0.00  0.00     0.000 C 
BRANCH  15  16
HETATM   16  C   UNK N   1      24.588  13.121   6.993  0.00  0.00     0.000 C 
BRANCH  16  17
HETATM   17  C   UNK N   1      24.438  14.082   5.836  0.00  0.00    -0.000 C 
BRANCH  17  18
HETATM   18  C   UNK N   1      25.193  15.351   6.174  0.00  0.00    -0.005 C 
HETATM   19  C   UNK N   1      24.856  16.433   5.173  0.00  0.00     0.005 C 
ENDBRANCH  17  18
ENDBRANCH  16  17
ENDBRANCH  15  16
ENDBRANCH  14  15
ENDBRANCH  13  14
ENDBRANCH  12  13
ENDBRANCH  11  12
ENDBRANCH  10  11
ENDBRANCH   9  10
ENDBRANCH   8   9
ENDBRANCH   7   8
ENDBRANCH   6   7
ENDBRANCH   5   6
ENDBRANCH   3   5
ENDBRANCH   2   3
ENDBRANCH   1   2
BRANCH   1  20
HETATM   20  C   UNK N   1      20.371  17.504   2.852  0.00  0.00     0.216 C 
BRANCH  20  21
HETATM   21  O   UNK N   1      21.276  16.453   2.742  0.00  0.00    -0.287 OA
BRANCH  21  22
HETATM   22  P   UNK N   1      20.729  15.628   1.319  0.00  0.00     0.408 P 
HETATM   23  O   UNK N   1      20.221  16.761   0.100  0.00  0.00    -0.624 OA
HETATM   24  O   UNK N   1      21.955  14.881   0.731  0.00  0.00    -0.624 OA
BRANCH  22  25
HETATM   25  O   UNK N   1      19.514  14.426   1.665  0.00  0.00    -0.288 OA
BRANCH  25  26
HETATM   26  C   UNK N   1      20.198  13.342   2.219  0.00  0.00     0.209 C 
BRANCH  26  27
HETATM   27  C   UNK N   1      19.463  12.851   3.470  0.00  0.00     0.262 C 
BRANCH  27  28
HETATM   28  N   UNK N   1      19.385  11.391   3.559  0.00  0.00    -0.077 N 
HETATM   29  C   UNK N   1      20.484  10.765   2.843  0.00  0.00     0.271 C 
HETATM   30  C   UNK N   1      18.139  10.969   2.947  0.00  0.00     0.271 C 
HETATM   31  C   UNK N   1      19.382  10.933   4.940  0.00  0.00     0.271 C 
ENDBRANCH  27  28
ENDBRANCH  26  27
ENDBRANCH  25  26
ENDBRANCH  22  25
ENDBRANCH  21  22
ENDBRANCH  20  21
ENDBRANCH   1  20
BRANCH   1  32
HETATM   32  C   UNK N   1      21.458  19.657   3.326  0.00  0.00     0.213 C 
BRANCH  32  33
HETATM   33  O   UNK N   1      22.828  19.543   3.416  0.00  0.00    -0.319 OA
BRANCH  33  34
HETATM   34  C   UNK N   1      23.678  20.515   2.991  0.00  0.00     0.258 C 
HETATM   35  O   UNK N   1      23.298  21.669   2.949  0.00  0.00    -0.265 OA
BRANCH  34  36
HETATM   36  C   UNK N   1      25.088  20.196   2.560  0.00  0.00     0.111 C 
BRANCH  36  37
HETATM   37  C   UNK N   1      25.923  19.630   3.705  0.00  0.00     0.010 C 
BRANCH  37  38
HETATM   38  C   UNK N   1      26.408  20.718   4.641  0.00  0.00     0.000 C 
BRANCH  38  39
HETATM   39  C   UNK N   1      27.628  20.231   5.391  0.00  0.00     0.000 C 
BRANCH  39  40
HETATM   40  C   UNK N   1      27.343  20.249   6.873  0.00  0.00     0.000 C 
BRANCH  40  41
HETATM   41  C   UNK N   1      28.153  19.178   7.579  0.00  0.00     0.004 C 
BRANCH  41  42
HETATM   42  C   UNK N   1      27.939  17.839   6.896  0.00  0.00     0.027 C 
BRANCH  42  43
HETATM   43  C   UNK N   1      29.224  17.076   6.752  0.00  0.00    -0.031 C 
HETATM   44  C   UNK N   1      29.817  16.830   5.575  0.00  0.00    -0.031 C 
BRANCH  44  45
HETATM   45  C   UNK N   1      29.254  17.270   4.261  0.00  0.00     0.027 C 
BRANCH  45  46
HETATM   46  C   UNK N   1      28.244  16.236   3.797  0.00  0.00     0.004 C 
BRANCH  46  47
HETATM   47  C   UNK N   1      28.834  15.353   2.714  0.00  0.00     0.000 C 
BRANCH  47  48
HETATM   48  C   UNK N   1      27.718  14.807   1.847  0.00  0.00     0.000 C 
BRANCH  48  49
HETATM   49  C   UNK N   1      26.661  14.153   2.712  0.00  0.00     0.000 C 
BRANCH  49  50
HETATM   50  C   UNK N   1      25.316  14.279   2.026  0.00  0.00    -0.000 C 
BRANCH  50  51
HETATM   51  C   UNK N   1      24.846  12.920   1.551  0.00  0.00    -0.005 C 
HETATM   52  C   UNK N   1      23.899  12.332   2.575  0.00  0.00     0.005 C 
ENDBRANCH  50  51
ENDBRANCH  49  50
ENDBRANCH  48  49
ENDBRANCH  47  48
ENDBRANCH  46  47
ENDBRANCH  45  46
ENDBRANCH  44  45
ENDBRANCH  42  43
ENDBRANCH  41  42
ENDBRANCH  40  41
ENDBRANCH  39  40
ENDBRANCH  38  39
ENDBRANCH  37  38
ENDBRANCH  36  37
ENDBRANCH  34  36
ENDBRANCH  33  34
ENDBRANCH  32  33
ENDBRANCH   1  32
TORSDOF 41
ENDMDL
MODEL 2
REMARK VINA RESULT:      -5.4      1.718      3.730
REMARK WARNING: 32 MAX_TORS EXCEEDED!!!
REMARK  41 active torsions:
REMARK  status: ('A' for Active; 'I' for Inactive)
REMARK    1  A    between atoms: P_1  and  O_2 
REMARK    2  A    between atoms: P_1  and  O_4 
REMARK    3  A    between atoms: O_2  and  C_27 
REMARK    4  A    between atoms: O_3  and  C_38 
REMARK    5  A    between atoms: O_3  and  C_40 
REMARK    6  A    between atoms: O_4  and  C_46 
REMARK    7  A    between atoms: O_5  and  C_47 
REMARK    8  A    between atoms: O_5  and  C_51 
REMARK    9  A    between atoms: N_10  and  C_21 
REMARK   10  A    between atoms: C_11  and  C_12 
REMARK   11  A    between atoms: C_11  and  C_13 
REMARK   12  A    between atoms: C_12  and  C_14 
REMARK   13  A    between atoms: C_13  and  C_15 
REMARK   14  A    between atoms: C_14  and  C_16 
REMARK   15  A    between atoms: C_15  and  C_17 
REMARK   16  A    between atoms: C_16  and  C_18 
REMARK   17  A    between atoms: C_17  and  C_19 
REMARK   18  A    between atoms: C_18  and  C_20 
REMARK   19  A    between atoms: C_19  and  C_22 
REMARK   20  A    between atoms: C_20  and  C_23 
REMARK   21  A    between atoms: C_21  and  C_27 
REMARK   22  A    between atoms: C_22  and  C_28 
REMARK   23  A    between atoms: C_23  and  C_29 
REMARK   24  A    between atoms: C_28  and  C_38 
REMARK   25  A    between atoms: C_30  and  C_31 
REMARK   26  A    between atoms: C_30  and  C_32 
REMARK   27  A    between atoms: C_31  and  C_35 
REMARK   28  A    between atoms: C_32  and  C_39 
REMARK   29  A    between atoms: C_33  and  C_34 
REMARK   30  A    between atoms: C_33  and  C_36 
REMARK   31  A    between atoms: C_34  and  C_37 
REMARK   32  A    between atoms: C_35  and  C_42 
REMARK   33  A    between atoms: C_36  and  C_43 
REMARK   34  A    between atoms: C_37  and  C_44 
REMARK   35  A    between atoms: C_39  and  C_45 
REMARK   36  A    between atoms: C_40  and  C_46 
REMARK   37  A    between atoms: C_40  and  C_47 
REMARK   38  A    between atoms: C_42  and  C_48 
REMARK   39  A    between atoms: C_43  and  C_49 
REMARK   40  A    between atoms: C_44  and  C_50 
REMARK   41  A    between atoms: C_45  and  C_51 
ROOT
HETATM    1  C   UNK N   1      20.802  18.505   4.182  0.00  0.00     0.180 C 
ENDROOT
BRANCH   1   2
HETATM    2  O   UNK N   1      21.661  18.036   5.164  0.00  0.00    -0.312 OA
BRANCH   2   3
HETATM    3  C   UNK N   1      21.286  17.807   6.450  0.00  0.00     0.259 C 
HETATM    4  O   UNK N   1      20.872  18.718   7.154  0.00  0.00    -0.265 OA
BRANCH   3   5
HETATM    5  C   UNK N   1      21.561  16.466   7.054  0.00  0.00     0.111 C 
BRANCH   5   6
HETATM    6  C   UNK N   1      20.518  16.052   8.077  0.00  0.00     0.010 C 
BRANCH   6   7
HETATM    7  C   UNK N   1      20.597  14.566   8.389  0.00  0.00     0.000 C 
BRANCH   7   8
HETATM    8  C   UNK N   1      21.318  14.295   9.699  0.00  0.00     0.000 C 
BRANCH   8   9
HETATM    9  C   UNK N   1      20.868  12.970  10.291  0.00  0.00     0.000 C 
BRANCH   9  10
HETATM   10  C   UNK N   1      22.063  12.196  10.807  0.00  0.00     0.000 C 
BRANCH  10  11
HETATM   11  C   UNK N   1      23.063  11.947   9.694  0.00  0.00     0.000 C 
BRANCH  11  12
HETATM   12  C   UNK N   1      24.465  12.246  10.181  0.00  0.00     0.000 C 
BRANCH  12  13
HETATM   13  C   UNK N   1      25.045  13.415   9.414  0.00  0.00     0.000 C 
BRANCH  13  14
HETATM   14  C   UNK N   1      24.425  13.412   8.037  0.00  0.00     0.000 C 
BRANCH  14  15
HETATM   15  C   UNK N   1      25.472  13.659   6.975  0.00  0.00     0.000 C 
BRANCH  15  16
HETATM   16  C   UNK N   1      24.783  13.558   5.632  0.00  0.00     0.000 C 
BRANCH  16  17
HETATM   17  C   UNK N   1      23.281  13.558   5.795  0.00  0.00    -0.000 C 
BRANCH  17  18
HETATM   18  C   UNK N   1      22.660  13.928   4.464  0.00  0.00    -0.005 C 
HETATM   19  C   UNK N   1      23.269  15.213   3.951  0.00  0.00     0.005 C 
ENDBRANCH  17  18
ENDBRANCH  16  17
ENDBRANCH  15  16
ENDBRANCH  14  15
ENDBRANCH  13  14
ENDBRANCH  12  13
ENDBRANCH  11  12
ENDBRANCH  10  11
ENDBRANCH   9  10
ENDBRANCH   8   9
ENDBRANCH   7   8
ENDBRANCH   6   7
ENDBRANCH   5   6
ENDBRANCH   3   5
ENDBRANCH   2   3
ENDBRANCH   1   2
BRANCH   1  20
HETATM   20  C   UNK N   1      20.239  17.332   3.415  0.00  0.00     0.216 C 
BRANCH  20  21
HETATM   21  O   UNK N   1      20.415  17.504   2.046  0.00  0.00    -0.287 OA
BRANCH  21  22
HETATM   22  P   UNK N   1      20.256  15.890   1.434  0.00  0.00     0.408 P 
HETATM   23  O   UNK N   1      19.588  14.831   2.643  0.00  0.00    -0.624 OA
HETATM   24  O   UNK N   1      19.218  15.943   0.283  0.00  0.00    -0.624 OA
BRANCH  22  25
HETATM   25  O   UNK N   1      21.743  15.280   0.757  0.00  0.00    -0.288 OA
BRANCH  25  26
HETATM   26  C   UNK N   1      21.632  13.888   0.789  0.00  0.00     0.209 C 
BRANCH  26  27
HETATM   27  C   UNK N   1      22.987  13.254   0.459  0.00  0.00     0.262 C 
BRANCH  27  28
HETATM   28  N   UNK N   1      23.123  11.885   0.960  0.00  0.00    -0.077 N 
HETATM   29  C   UNK N   1      23.423  10.961  -0.121  0.00  0.00     0.271 C 
HETATM   30  C   UNK N   1      21.858  11.498   1.557  0.00  0.00     0.271 C 
HETATM   31  C   UNK N   1      24.150  11.783   1.985  0.00  0.00     0.271 C 
ENDBRANCH  27  28
ENDBRANCH  26  27
ENDBRANCH  25  26
ENDBRANCH  22  25
ENDBRANCH  21  22
ENDBRANCH  20  21
ENDBRANCH   1  20
BRANCH   1  32
HETATM   32  C   UNK N   1      21.476  19.444   3.194  0.00  0.00     0.213 C 
BRANCH  32  33
HETATM   33  O   UNK N   1      22.833  19.496   3.424  0.00  0.00    -0.319 OA
BRANCH  33  34
HETATM   34  C   UNK N   1      23.615  20.523   2.997  0.00  0.00     0.258 C 
HETATM   35  O   UNK N   1      23.130  21.630   2.864  0.00  0.00    -0.265 OA
BRANCH  34  36
HETATM   36  C   UNK N   1      25.075  20.323   2.677  0.00  0.00     0.111 C 
BRANCH  36  37
HETATM   37  C   UNK N   1      25.790  19.507   3.749  0.00  0.00     0.010 C 
BRANCH  37  38
HETATM   38  C   UNK N   1      25.829  18.032   3.403  0.00  0.00     0.000 C 
BRANCH  38  39
HETATM   39  C   UNK N   1      26.267  17.241   4.615  0.00  0.00     0.000 C 
BRANCH  39  40
HETATM   40  C   UNK N   1      27.734  16.905   4.490  0.00  0.00     0.000 C 
BRANCH  40  41
HETATM   41  C   UNK N   1      28.063  15.668   5.304  0.00  0.00     0.004 C 
BRANCH  41  42
HETATM   42  C   UNK N   1      29.541  15.346   5.174  0.00  0.00     0.027 C 
BRANCH  42  43
HETATM   43  C   UNK N   1      30.374  16.591   5.067  0.00  0.00    -0.031 C 
HETATM   44  C   UNK N   1      31.147  17.057   6.058  0.00  0.00    -0.031 C 
BRANCH  44  45
HETATM   45  C   UNK N   1      31.253  16.403   7.399  0.00  0.00     0.027 C 
BRANCH  45  46
HETATM   46  C   UNK N   1      31.094  17.466   8.470  0.00  0.00     0.004 C 
BRANCH  46  47
HETATM   47  C   UNK N   1      29.825  17.242   9.269  0.00  0.00     0.000 C 
BRANCH  47  48
HETATM   48  C   UNK N   1      28.621  17.467   8.377  0.00  0.00     0.000 C 
BRANCH  48  49
HETATM   49  C   UNK N   1      28.181  18.914   8.455  0.00  0.00     0.000 C 
BRANCH  49  50
HETATM   50  C   UNK N   1      27.945  19.433   7.052  0.00  0.00    -0.000 C 
BRANCH  50  51
HETATM   51  C   UNK N   1      26.897  20.526   7.073  0.00  0.00    -0.005 C 
HETATM   52  C   UNK N   1      27.365  21.684   6.217  0.00  0.00     0.005 C 
ENDBRANCH  50  51
ENDBRANCH  49  50
ENDBRANCH  48  49
ENDBRANCH  47  48
ENDBRANCH  46  47
ENDBRANCH  45  46
ENDBRANCH  44  45
ENDBRANCH  42  43
ENDBRANCH  41  42
ENDBRANCH  40  41
ENDBRANCH  39  40
ENDBRANCH  38  39
ENDBRANCH  37  38
ENDBRANCH  36  37
ENDBRANCH  34  36
ENDBRANCH  33  34
ENDBRANCH  32  33
ENDBRANCH   1  32
TORSDOF 41
ENDMDL
MODEL 3
REMARK VINA RESULT:      -5.2      1.666      2.741
REMARK WARNING: 32 MAX_TORS EXCEEDED!!!
REMARK  41 active torsions:
REMARK  status: ('A' for Active; 'I' for Inactive)
REMARK    1  A    between atoms: P_1  and  O_2 
REMARK    2  A    between atoms: P_1  and  O_4 
REMARK    3  A    between atoms: O_2  and  C_27 
REMARK    4  A    between atoms: O_3  and  C_38 
REMARK    5  A    between atoms: O_3  and  C_40 
REMARK    6  A    between atoms: O_4  and  C_46 
REMARK    7  A    between atoms: O_5  and  C_47 
REMARK    8  A    between atoms: O_5  and  C_51 
REMARK    9  A    between atoms: N_10  and  C_21 
REMARK   10  A    between atoms: C_11  and  C_12 
REMARK   11  A    between atoms: C_11  and  C_13 
REMARK   12  A    between atoms: C_12  and  C_14 
REMARK   13  A    between atoms: C_13  and  C_15 
REMARK   14  A    between atoms: C_14  and  C_16 
REMARK   15  A    between atoms: C_15  and  C_17 
REMARK   16  A    between atoms: C_16  and  C_18 
REMARK   17  A    between atoms: C_17  and  C_19 
REMARK   18  A    between atoms: C_18  and  C_20 
REMARK   19  A    between atoms: C_19  and  C_22 
REMARK   20  A    between atoms: C_20  and  C_23 
REMARK   21  A    between atoms: C_21  and  C_27 
REMARK   22  A    between atoms: C_22  and  C_28 
REMARK   23  A    between atoms: C_23  and  C_29 
REMARK   24  A    between atoms: C_28  and  C_38 
REMARK   25  A    between atoms: C_30  and  C_31 
REMARK   26  A    between atoms: C_30  and  C_32 
REMARK   27  A    between atoms: C_31  and  C_35 
REMARK   28  A    between atoms: C_32  and  C_39 
REMARK   29  A    between atoms: C_33  and  C_34 
REMARK   30  A    between atoms: C_33  and  C_36 
REMARK   31  A    between atoms: C_34  and  C_37 
REMARK   32  A    between atoms: C_35  and  C_42 
REMARK   33  A    between atoms: C_36  and  C_43 
REMARK   34  A    between atoms: C_37  and  C_44 
REMARK   35  A    between atoms: C_39  and  C_45 
REMARK   36  A    between atoms: C_40  and  C_46 
REMARK   37  A    between atoms: C_40  and  C_47 
REMARK   38  A    between atoms: C_42  and  C_48 
REMARK   39  A    between atoms: C_43  and  C_49 
REMARK   40  A    between atoms: C_44  and  C_50 
REMARK   41  A    between atoms: C_45  and  C_51 
ROOT
HETATM    1  C   UNK N   1      20.856  18.239   4.243  0.00  0.00     0.180 C 
ENDROOT
BRANCH   1   2
HETATM    2  O   UNK N   1      21.644  17.863   5.320  0.00  0.00    -0.312 OA
BRANCH   2   3
HETATM    3  C   UNK N   1      21.181  17.750   6.593  0.00  0.00     0.259 C 
HETATM    4  O   UNK N   1      20.905  18.745   7.250  0.00  0.00    -0.265 OA
BRANCH   3   5
HETATM    5  C   UNK N   1      21.187  16.405   7.248  0.00  0.00     0.111 C 
BRANCH   5   6
HETATM    6  C   UNK N   1      20.512  16.404   8.607  0.00  0.00     0.010 C 
BRANCH   6   7
HETATM    7  C   UNK N   1      20.156  14.995   9.057  0.00  0.00     0.000 C 
BRANCH   7   8
HETATM    8  C   UNK N   1      21.379  14.211   9.500  0.00  0.00     0.000 C 
BRANCH   8   9
HETATM    9  C   UNK N   1      20.965  12.978  10.286  0.00  0.00     0.000 C 
BRANCH   9  10
HETATM   10  C   UNK N   1      22.184  12.304  10.881  0.00  0.00     0.000 C 
BRANCH  10  11
HETATM   11  C   UNK N   1      23.129  11.841   9.789  0.00  0.00     0.000 C 
BRANCH  11  12
HETATM   12  C   UNK N   1      24.550  12.236  10.132  0.00  0.00     0.000 C 
BRANCH  12  13
HETATM   13  C   UNK N   1      24.967  13.442   9.317  0.00  0.00     0.000 C 
BRANCH  13  14
HETATM   14  C   UNK N   1      24.578  13.182   7.881  0.00  0.00     0.000 C 
BRANCH  14  15
HETATM   15  C   UNK N   1      25.595  13.774   6.933  0.00  0.00     0.000 C 
BRANCH  15  16
HETATM   16  C   UNK N   1      24.984  13.754   5.549  0.00  0.00     0.000 C 
BRANCH  16  17
HETATM   17  C   UNK N   1      23.794  14.682   5.471  0.00  0.00    -0.000 C 
BRANCH  17  18
HETATM   18  C   UNK N   1      23.523  14.983   4.011  0.00  0.00    -0.005 C 
HETATM   19  C   UNK N   1      24.210  16.271   3.615  0.00  0.00     0.005 C 
ENDBRANCH  17  18
ENDBRANCH  16  17
ENDBRANCH  15  16
ENDBRANCH  14  15
ENDBRANCH  13  14
ENDBRANCH  12  13
ENDBRANCH  11  12
ENDBRANCH  10  11
ENDBRANCH   9  10
ENDBRANCH   8   9
ENDBRANCH   7   8
ENDBRANCH   6   7
ENDBRANCH   5   6
ENDBRANCH   3   5
ENDBRANCH   2   3
ENDBRANCH   1   2
BRANCH   1  20
HETATM   20  C   UNK N   1      20.519  17.014   3.426  0.00  0.00     0.216 C 
BRANCH  20  21
HETATM   21  O   UNK N   1      20.499  17.315   2.067  0.00  0.00    -0.287 OA
BRANCH  21  22
HETATM   22  P   UNK N   1      20.254  15.762   1.337  0.00  0.00     0.408 P 
HETATM   23  O   UNK N   1      19.503  14.660   2.456  0.00  0.00    -0.624 OA
HETATM   24  O   UNK N   1      19.240  15.961   0.180  0.00  0.00    -0.624 OA
BRANCH  22  25
HETATM   25  O   UNK N   1      21.713  15.113   0.635  0.00  0.00    -0.288 OA
BRANCH  25  26
HETATM   26  C   UNK N   1      21.703  13.749   0.931  0.00  0.00     0.209 C 
BRANCH  26  27
HETATM   27  C   UNK N   1      22.967  13.089   0.371  0.00  0.00     0.262 C 
BRANCH  27  28
HETATM   28  N   UNK N   1      23.205  11.747   0.906  0.00  0.00    -0.077 N 
HETATM   29  C   UNK N   1      22.314  10.776   0.293  0.00  0.00     0.271 C 
HETATM   30  C   UNK N   1      22.939  11.777   2.332  0.00  0.00     0.271 C 
HETATM   31  C   UNK N   1      24.585  11.325   0.717  0.00  0.00     0.271 C 
ENDBRANCH  27  28
ENDBRANCH  26  27
ENDBRANCH  25  26
ENDBRANCH  22  25
ENDBRANCH  21  22
ENDBRANCH  20  21
ENDBRANCH   1  20
BRANCH   1  32
HETATM   32  C   UNK N   1      21.532  19.252   3.332  0.00  0.00     0.213 C 
BRANCH  32  33
HETATM   33  O   UNK N   1      22.850  19.422   3.690  0.00  0.00    -0.319 OA
BRANCH  33  34
HETATM   34  C   UNK N   1      23.679  20.298   3.060  0.00  0.00     0.258 C 
HETATM   35  O   UNK N   1      23.317  21.445   2.886  0.00  0.00    -0.265 OA
BRANCH  34  36
HETATM   36  C   UNK N   1      25.039  19.878   2.563  0.00  0.00     0.111 C 
BRANCH  36  37
HETATM   37  C   UNK N   1      26.160  20.381   3.466  0.00  0.00     0.010 C 
BRANCH  37  38
HETATM   38  C   UNK N   1      26.027  19.852   4.880  0.00  0.00     0.000 C 
BRANCH  38  39
HETATM   39  C   UNK N   1      26.328  20.961   5.864  0.00  0.00     0.000 C 
BRANCH  39  40
HETATM   40  C   UNK N   1      27.656  20.691   6.529  0.00  0.00     0.000 C 
BRANCH  40  41
HETATM   41  C   UNK N   1      27.839  19.202   6.756  0.00  0.00     0.004 C 
BRANCH  41  42
HETATM   42  C   UNK N   1      28.612  18.972   8.043  0.00  0.00     0.027 C 
BRANCH  42  43
HETATM   43  C   UNK N   1      28.753  17.510   8.353  0.00  0.00    -0.031 C 
HETATM   44  C   UNK N   1      29.902  16.830   8.234  0.00  0.00    -0.031 C 
BRANCH  44  45
HETATM   45  C   UNK N   1      31.178  17.446   7.754  0.00  0.00     0.027 C 
BRANCH  45  46
HETATM   46  C   UNK N   1      31.756  16.570   6.658  0.00  0.00     0.004 C 
BRANCH  46  47
HETATM   47  C   UNK N   1      32.012  17.376   5.400  0.00  0.00     0.000 C 
BRANCH  47  48
HETATM   48  C   UNK N   1      30.718  17.531   4.628  0.00  0.00     0.000 C 
BRANCH  48  49
HETATM   49  C   UNK N   1      30.055  16.181   4.451  0.00  0.00     0.000 C 
BRANCH  49  50
HETATM   50  C   UNK N   1      28.574  16.317   4.743  0.00  0.00    -0.000 C 
BRANCH  50  51
HETATM   51  C   UNK N   1      27.784  16.249   3.453  0.00  0.00    -0.005 C 
HETATM   52  C   UNK N   1      28.335  15.137   2.587  0.00  0.00     0.005 C 
ENDBRANCH  50  51
ENDBRANCH  49  50
ENDBRANCH  48  49
ENDBRANCH  47  48
ENDBRANCH  46  47
ENDBRANCH  45  46
ENDBRANCH  44  45
ENDBRANCH  42  43
ENDBRANCH  41  42
ENDBRANCH  40  41
ENDBRANCH  39  40
ENDBRANCH  38  39
ENDBRANCH  37  38
ENDBRANCH  36  37
ENDBRANCH  34  36
ENDBRANCH  33  34
ENDBRANCH  32  33
ENDBRANCH   1  32
TORSDOF 41
ENDMDL
MODEL 4
REMARK VINA RESULT:      -5.1      7.000     11.088
REMARK WARNING: 32 MAX_TORS EXCEEDED!!!
REMARK  41 active torsions:
REMARK  status: ('A' for Active; 'I' for Inactive)
REMARK    1  A    between atoms: P_1  and  O_2 
REMARK    2  A    between atoms: P_1  and  O_4 
REMARK    3  A    between atoms: O_2  and  C_27 
REMARK    4  A    between atoms: O_3  and  C_38 
REMARK    5  A    between atoms: O_3  and  C_40 
REMARK    6  A    between atoms: O_4  and  C_46 
REMARK    7  A    between atoms: O_5  and  C_47 
REMARK    8  A    between atoms: O_5  and  C_51 
REMARK    9  A    between atoms: N_10  and  C_21 
REMARK   10  A    between atoms: C_11  and  C_12 
REMARK   11  A    between atoms: C_11  and  C_13 
REMARK   12  A    between atoms: C_12  and  C_14 
REMARK   13  A    between atoms: C_13  and  C_15 
REMARK   14  A    between atoms: C_14  and  C_16 
REMARK   15  A    between atoms: C_15  and  C_17 
REMARK   16  A    between atoms: C_16  and  C_18 
REMARK   17  A    between atoms: C_17  and  C_19 
REMARK   18  A    between atoms: C_18  and  C_20 
REMARK   19  A    between atoms: C_19  and  C_22 
REMARK   20  A    between atoms: C_20  and  C_23 
REMARK   21  A    between atoms: C_21  and  C_27 
REMARK   22  A    between atoms: C_22  and  C_28 
REMARK   23  A    between atoms: C_23  and  C_29 
REMARK   24  A    between atoms: C_28  and  C_38 
REMARK   25  A    between atoms: C_30  and  C_31 
REMARK   26  A    between atoms: C_30  and  C_32 
REMARK   27  A    between atoms: C_31  and  C_35 
REMARK   28  A    between atoms: C_32  and  C_39 
REMARK   29  A    between atoms: C_33  and  C_34 
REMARK   30  A    between atoms: C_33  and  C_36 
REMARK   31  A    between atoms: C_34  and  C_37 
REMARK   32  A    between atoms: C_35  and  C_42 
REMARK   33  A    between atoms: C_36  and  C_43 
REMARK   34  A    between atoms: C_37  and  C_44 
REMARK   35  A    between atoms: C_39  and  C_45 
REMARK   36  A    between atoms: C_40  and  C_46 
REMARK   37  A    between atoms: C_40  and  C_47 
REMARK   38  A    between atoms: C_42  and  C_48 
REMARK   39  A    between atoms: C_43  and  C_49 
REMARK   40  A    between atoms: C_44  and  C_50 
REMARK   41  A    between atoms: C_45  and  C_51 
ROOT
HETATM    1  C   UNK N   1      32.543  17.898   7.897  0.00  0.00     0.180 C 
ENDROOT
BRANCH   1   2
HETATM    2  O   UNK N   1      32.430  16.991   6.855  0.00  0.00    -0.312 OA
BRANCH   2   3
HETATM    3  C   UNK N   1      32.878  17.228   5.594  0.00  0.00     0.259 C 
HETATM    4  O   UNK N   1      33.905  17.866   5.404  0.00  0.00    -0.265 OA
BRANCH   3   5
HETATM    5  C   UNK N   1      32.005  16.861   4.436  0.00  0.00     0.111 C 
BRANCH   5   6
HETATM    6  C   UNK N   1      30.663  16.294   4.863  0.00  0.00     0.010 C 
BRANCH   6   7
HETATM    7  C   UNK N   1      30.240  15.127   3.984  0.00  0.00     0.000 C 
BRANCH   7   8
HETATM    8  C   UNK N   1      29.357  15.572   2.831  0.00  0.00     0.000 C 
BRANCH   8   9
HETATM    9  C   UNK N   1      28.431  16.694   3.271  0.00  0.00     0.000 C 
BRANCH   9  10
HETATM   10  C   UNK N   1      27.090  16.131   3.691  0.00  0.00     0.000 C 
BRANCH  10  11
HETATM   11  C   UNK N   1      26.842  16.379   5.167  0.00  0.00     0.000 C 
BRANCH  11  12
HETATM   12  C   UNK N   1      26.431  15.089   5.846  0.00  0.00     0.000 C 
BRANCH  12  13
HETATM   13  C   UNK N   1      24.943  15.100   6.127  0.00  0.00     0.000 C 
BRANCH  13  14
HETATM   14  C   UNK N   1      24.413  13.715   5.844  0.00  0.00     0.000 C 
BRANCH  14  15
HETATM   15  C   UNK N   1      24.219  13.506   4.359  0.00  0.00     0.000 C 
BRANCH  15  16
HETATM   16  C   UNK N   1      23.215  14.536   3.888  0.00  0.00     0.000 C 
BRANCH  16  17
HETATM   17  C   UNK N   1      23.707  15.239   2.644  0.00  0.00    -0.000 C 
BRANCH  17  18
HETATM   18  C   UNK N   1      24.499  14.244   1.820  0.00  0.00    -0.005 C 
HETATM   19  C   UNK N   1      23.760  13.934   0.538  0.00  0.00     0.005 C 
ENDBRANCH  17  18
ENDBRANCH  16  17
ENDBRANCH  15  16
ENDBRANCH  14  15
ENDBRANCH  13  14
ENDBRANCH  12  13
ENDBRANCH  11  12
ENDBRANCH  10  11
ENDBRANCH   9  10
ENDBRANCH   8   9
ENDBRANCH   7   8
ENDBRANCH   6   7
ENDBRANCH   5   6
ENDBRANCH   3   5
ENDBRANCH   2   3
ENDBRANCH   1   2
BRANCH   1  20
HETATM   20  C   UNK N   1      33.668  17.468   8.809  0.00  0.00     0.216 C 
BRANCH  20  21
HETATM   21  O   UNK N   1      33.466  16.170   9.268  0.00  0.00    -0.287 OA
BRANCH  21  22
HETATM   22  P   UNK N   1      34.920  15.849  10.156  0.00  0.00     0.408 P 
HETATM   23  O   UNK N   1      36.062  14.968   9.182  0.00  0.00    -0.624 OA
HETATM   24  O   UNK N   1      35.577  17.222  10.458  0.00  0.00    -0.624 OA
BRANCH  22  25
HETATM   25  O   UNK N   1      34.612  15.079  11.690  0.00  0.00    -0.288 OA
BRANCH  25  26
HETATM   26  C   UNK N   1      35.851  14.614  12.136  0.00  0.00     0.209 C 
BRANCH  26  27
HETATM   27  C   UNK N   1      35.687  13.935  13.500  0.00  0.00     0.262 C 
BRANCH  27  28
HETATM   28  N   UNK N   1      36.263  12.589  13.549  0.00  0.00    -0.077 N 
HETATM   29  C   UNK N   1      35.222  11.575  13.545  0.00  0.00     0.271 C 
HETATM   30  C   UNK N   1      37.017  12.468  14.782  0.00  0.00     0.271 C 
HETATM   31  C   UNK N   1      37.176  12.351  12.442  0.00  0.00     0.271 C 
ENDBRANCH  27  28
ENDBRANCH  26  27
ENDBRANCH  25  26
ENDBRANCH  22  25
ENDBRANCH  21  22
ENDBRANCH  20  21
ENDBRANCH   1  20
BRANCH   1  32
HETATM   32  C   UNK N   1      31.274  18.018   8.728  0.00  0.00     0.213 C 
BRANCH  32  33
HETATM   33  O   UNK N   1      30.300  17.172   8.248  0.00  0.00    -0.319 OA
BRANCH  33  34
HETATM   34  C   UNK N   1      29.026  17.579   8.001  0.00  0.00     0.258 C 
HETATM   35  O   UNK N   1      28.123  17.188   8.714  0.00  0.00    -0.265 OA
BRANCH  34  36
HETATM   36  C   UNK N   1      28.702  18.504   6.855  0.00  0.00     0.111 C 
BRANCH  36  37
HETATM   37  C   UNK N   1      27.820  19.670   7.289  0.00  0.00     0.010 C 
BRANCH  37  38
HETATM   38  C   UNK N   1      27.336  20.482   6.106  0.00  0.00     0.000 C 
BRANCH  38  39
HETATM   39  C   UNK N   1      28.015  19.993   4.846  0.00  0.00     0.000 C 
BRANCH  39  40
HETATM   40  C   UNK N   1      27.044  20.070   3.693  0.00  0.00     0.000 C 
BRANCH  40  41
HETATM   41  C   UNK N   1      25.629  20.263   4.207  0.00  0.00     0.004 C 
BRANCH  41  42
HETATM   42  C   UNK N   1      24.729  19.172   3.654  0.00  0.00     0.027 C 
BRANCH  42  43
HETATM   43  C   UNK N   1      23.970  18.472   4.743  0.00  0.00    -0.031 C 
HETATM   44  C   UNK N   1      22.679  18.127   4.648  0.00  0.00    -0.031 C 
BRANCH  44  45
HETATM   45  C   UNK N   1      21.832  18.422   3.451  0.00  0.00     0.027 C 
BRANCH  45  46
HETATM   46  C   UNK N   1      20.393  18.068   3.777  0.00  0.00     0.004 C 
BRANCH  46  47
HETATM   47  C   UNK N   1      19.929  16.880   2.956  0.00  0.00     0.000 C 
BRANCH  47  48
HETATM   48  C   UNK N   1      19.852  15.654   3.843  0.00  0.00     0.000 C 
BRANCH  48  49
HETATM   49  C   UNK N   1      19.519  16.061   5.262  0.00  0.00     0.000 C 
BRANCH  49  50
HETATM   50  C   UNK N   1      20.313  15.199   6.222  0.00  0.00    -0.000 C 
BRANCH  50  51
HETATM   51  C   UNK N   1      21.156  16.072   7.127  0.00  0.00    -0.005 C 
HETATM   52  C   UNK N   1      20.792  15.793   8.570  0.00  0.00     0.005 C 
ENDBRANCH  50  51
ENDBRANCH  49  50
ENDBRANCH  48  49
ENDBRANCH  47  48
ENDBRANCH  46  47
ENDBRANCH  45  46
ENDBRANCH  44  45
ENDBRANCH  42  43
ENDBRANCH  41  42
ENDBRANCH  40  41
ENDBRANCH  39  40
ENDBRANCH  38  39
ENDBRANCH  37  38
ENDBRANCH  36  37
ENDBRANCH  34  36
ENDBRANCH  33  34
ENDBRANCH  32  33
ENDBRANCH   1  32
TORSDOF 41
ENDMDL
MODEL 5
REMARK VINA RESULT:      -5.1      7.345     11.466
REMARK WARNING: 32 MAX_TORS EXCEEDED!!!
REMARK  41 active torsions:
REMARK  status: ('A' for Active; 'I' for Inactive)
REMARK    1  A    between atoms: P_1  and  O_2 
REMARK    2  A    between atoms: P_1  and  O_4 
REMARK    3  A    between atoms: O_2  and  C_27 
REMARK    4  A    between atoms: O_3  and  C_38 
REMARK    5  A    between atoms: O_3  and  C_40 
REMARK    6  A    between atoms: O_4  and  C_46 
REMARK    7  A    between atoms: O_5  and  C_47 
REMARK    8  A    between atoms: O_5  and  C_51 
REMARK    9  A    between atoms: N_10  and  C_21 
REMARK   10  A    between atoms: C_11  and  C_12 
REMARK   11  A    between atoms: C_11  and  C_13 
REMARK   12  A    between atoms: C_12  and  C_14 
REMARK   13  A    between atoms: C_13  and  C_15 
REMARK   14  A    between atoms: C_14  and  C_16 
REMARK   15  A    between atoms: C_15  and  C_17 
REMARK   16  A    between atoms: C_16  and  C_18 
REMARK   17  A    between atoms: C_17  and  C_19 
REMARK   18  A    between atoms: C_18  and  C_20 
REMARK   19  A    between atoms: C_19  and  C_22 
REMARK   20  A    between atoms: C_20  and  C_23 
REMARK   21  A    between atoms: C_21  and  C_27 
REMARK   22  A    between atoms: C_22  and  C_28 
REMARK   23  A    between atoms: C_23  and  C_29 
REMARK   24  A    between atoms: C_28  and  C_38 
REMARK   25  A    between atoms: C_30  and  C_31 
REMARK   26  A    between atoms: C_30  and  C_32 
REMARK   27  A    between atoms: C_31  and  C_35 
REMARK   28  A    between atoms: C_32  and  C_39 
REMARK   29  A    between atoms: C_33  and  C_34 
REMARK   30  A    between atoms: C_33  and  C_36 
REMARK   31  A    between atoms: C_34  and  C_37 
REMARK   32  A    between atoms: C_35  and  C_42 
REMARK   33  A    between atoms: C_36  and  C_43 
REMARK   34  A    between atoms: C_37  and  C_44 
REMARK   35  A    between atoms: C_39  and  C_45 
REMARK   36  A    between atoms: C_40  and  C_46 
REMARK   37  A    between atoms: C_40  and  C_47 
REMARK   38  A    between atoms: C_42  and  C_48 
REMARK   39  A    between atoms: C_43  and  C_49 
REMARK   40  A    between atoms: C_44  and  C_50 
REMARK   41  A    between atoms: C_45  and  C_51 
ROOT
HETATM    1  C   UNK N   1      32.999  16.180   8.217  0.00  0.00     0.180 C 
ENDROOT
BRANCH   1   2
HETATM    2  O   UNK N   1      33.090  16.181   6.834  0.00  0.00    -0.312 OA
BRANCH   2   3
HETATM    3  C   UNK N   1      33.634  17.197   6.112  0.00  0.00     0.259 C 
HETATM    4  O   UNK N   1      34.478  17.933   6.604  0.00  0.00    -0.265 OA
BRANCH   3   5
HETATM    5  C   UNK N   1      33.054  17.521   4.771  0.00  0.00     0.111 C 
BRANCH   5   6
HETATM    6  C   UNK N   1      31.774  16.758   4.480  0.00  0.00     0.010 C 
BRANCH   6   7
HETATM    7  C   UNK N   1      30.541  17.562   4.861  0.00  0.00     0.000 C 
BRANCH   7   8
HETATM    8  C   UNK N   1      29.255  16.864   4.453  0.00  0.00     0.000 C 
BRANCH   8   9
HETATM    9  C   UNK N   1      29.562  15.555   3.744  0.00  0.00     0.000 C 
BRANCH   9  10
HETATM   10  C   UNK N   1      28.560  15.314   2.635  0.00  0.00     0.000 C 
BRANCH  10  11
HETATM   11  C   UNK N   1      27.144  15.529   3.134  0.00  0.00     0.000 C 
BRANCH  11  12
HETATM   12  C   UNK N   1      26.196  15.662   1.961  0.00  0.00     0.000 C 
BRANCH  12  13
HETATM   13  C   UNK N   1      24.802  15.231   2.365  0.00  0.00     0.000 C 
BRANCH  13  14
HETATM   14  C   UNK N   1      24.923  13.909   3.085  0.00  0.00     0.000 C 
BRANCH  14  15
HETATM   15  C   UNK N   1      23.630  13.558   3.786  0.00  0.00     0.000 C 
BRANCH  15  16
HETATM   16  C   UNK N   1      23.875  13.689   5.274  0.00  0.00     0.000 C 
BRANCH  16  17
HETATM   17  C   UNK N   1      25.288  13.285   5.625  0.00  0.00    -0.000 C 
BRANCH  17  18
HETATM   18  C   UNK N   1      25.710  14.058   6.857  0.00  0.00    -0.005 C 
HETATM   19  C   UNK N   1      25.895  15.518   6.511  0.00  0.00     0.005 C 
ENDBRANCH  17  18
ENDBRANCH  16  17
ENDBRANCH  15  16
ENDBRANCH  14  15
ENDBRANCH  13  14
ENDBRANCH  12  13
ENDBRANCH  11  12
ENDBRANCH  10  11
ENDBRANCH   9  10
ENDBRANCH   8   9
ENDBRANCH   7   8
ENDBRANCH   6   7
ENDBRANCH   5   6
ENDBRANCH   3   5
ENDBRANCH   2   3
ENDBRANCH   1   2
BRANCH   1  20
HETATM   20  C   UNK N   1      33.690  14.950   8.758  0.00  0.00     0.216 C 
BRANCH  20  21
HETATM   21  O   UNK N   1      35.052  15.179   8.925  0.00  0.00    -0.287 OA
BRANCH  21  22
HETATM   22  P   UNK N   1      35.185  15.450  10.632  0.00  0.00     0.408 P 
HETATM   23  O   UNK N   1      35.279  17.151  10.986  0.00  0.00    -0.624 OA
HETATM   24  O   UNK N   1      33.866  14.947  11.275  0.00  0.00    -0.624 OA
BRANCH  22  25
HETATM   25  O   UNK N   1      36.487  14.542  11.355  0.00  0.00    -0.288 OA
BRANCH  25  26
HETATM   26  C   UNK N   1      36.163  14.426  12.709  0.00  0.00     0.209 C 
BRANCH  26  27
HETATM   27  C   UNK N   1      36.328  12.971  13.157  0.00  0.00     0.262 C 
BRANCH  27  28
HETATM   28  N   UNK N   1      36.263  12.801  14.610  0.00  0.00    -0.077 N 
HETATM   29  C   UNK N   1      37.017  11.633  15.033  0.00  0.00     0.271 C 
HETATM   30  C   UNK N   1      34.873  12.609  14.978  0.00  0.00     0.271 C 
HETATM   31  C   UNK N   1      36.753  13.976  15.314  0.00  0.00     0.271 C 
ENDBRANCH  27  28
ENDBRANCH  26  27
ENDBRANCH  25  26
ENDBRANCH  22  25
ENDBRANCH  21  22
ENDBRANCH  20  21
ENDBRANCH   1  20
BRANCH   1  32
HETATM   32  C   UNK N   1      31.564  16.184   8.723  0.00  0.00     0.213 C 
BRANCH  32  33
HETATM   33  O   UNK N   1      30.941  17.369   8.400  0.00  0.00    -0.319 OA
BRANCH  33  34
HETATM   34  C   UNK N   1      29.751  17.747   8.941  0.00  0.00     0.258 C 
HETATM   35  O   UNK N   1      29.708  18.111  10.099  0.00  0.00    -0.265 OA
BRANCH  34  36
HETATM   36  C   UNK N   1      28.476  17.719   8.136  0.00  0.00     0.111 C 
BRANCH  36  37
HETATM   37  C   UNK N   1      27.908  19.117   7.915  0.00  0.00     0.010 C 
BRANCH  37  38
HETATM   38  C   UNK N   1      27.845  19.474   6.443  0.00  0.00     0.000 C 
BRANCH  38  39
HETATM   39  C   UNK N   1      27.303  20.878   6.287  0.00  0.00     0.000 C 
BRANCH  39  40
HETATM   40  C   UNK N   1      26.554  20.982   4.980  0.00  0.00     0.000 C 
BRANCH  40  41
HETATM   41  C   UNK N   1      26.949  19.846   4.055  0.00  0.00     0.004 C 
BRANCH  41  42
HETATM   42  C   UNK N   1      25.707  19.252   3.414  0.00  0.00     0.027 C 
BRANCH  42  43
HETATM   43  C   UNK N   1      24.975  18.342   4.356  0.00  0.00    -0.031 C 
HETATM   44  C   UNK N   1      23.639  18.249   4.416  0.00  0.00    -0.031 C 
BRANCH  44  45
HETATM   45  C   UNK N   1      22.717  19.061   3.563  0.00  0.00     0.027 C 
BRANCH  45  46
HETATM   46  C   UNK N   1      21.333  19.035   4.186  0.00  0.00     0.004 C 
BRANCH  46  47
HETATM   47  C   UNK N   1      20.281  18.697   3.147  0.00  0.00     0.000 C 
BRANCH  47  48
HETATM   48  C   UNK N   1      20.268  17.201   2.911  0.00  0.00     0.000 C 
BRANCH  48  49
HETATM   49  C   UNK N   1      19.624  16.496   4.087  0.00  0.00     0.000 C 
BRANCH  49  50
HETATM   50  C   UNK N   1      20.682  15.698   4.822  0.00  0.00    -0.000 C 
BRANCH  50  51
HETATM   51  C   UNK N   1      20.547  15.910   6.315  0.00  0.00    -0.005 C 
HETATM   52  C   UNK N   1      21.905  16.234   6.900  0.00  0.00     0.005 C 
ENDBRANCH  50  51
ENDBRANCH  49  50
ENDBRANCH  48  49
ENDBRANCH  47  48
ENDBRANCH  46  47
ENDBRANCH  45  46
ENDBRANCH  44  45
ENDBRANCH  42  43
ENDBRANCH  41  42
ENDBRANCH  40  41
ENDBRANCH  39  40
ENDBRANCH  38  39
ENDBRANCH  37  38
ENDBRANCH  36  37
ENDBRANCH  34  36
ENDBRANCH  33  34
ENDBRANCH  32  33
ENDBRANCH   1  32
TORSDOF 41
ENDMDL
MODEL 6
REMARK VINA RESULT:      -5.1      7.213     11.095
REMARK WARNING: 32 MAX_TORS EXCEEDED!!!
REMARK  41 active torsions:
REMARK  status: ('A' for Active; 'I' for Inactive)
REMARK    1  A    between atoms: P_1  and  O_2 
REMARK    2  A    between atoms: P_1  and  O_4 
REMARK    3  A    between atoms: O_2  and  C_27 
REMARK    4  A    between atoms: O_3  and  C_38 
REMARK    5  A    between atoms: O_3  and  C_40 
REMARK    6  A    between atoms: O_4  and  C_46 
REMARK    7  A    between atoms: O_5  and  C_47 
REMARK    8  A    between atoms: O_5  and  C_51 
REMARK    9  A    between atoms: N_10  and  C_21 
REMARK   10  A    between atoms: C_11  and  C_12 
REMARK   11  A    between atoms: C_11  and  C_13 
REMARK   12  A    between atoms: C_12  and  C_14 
REMARK   13  A    between atoms: C_13  and  C_15 
REMARK   14  A    between atoms: C_14  and  C_16 
REMARK   15  A    between atoms: C_15  and  C_17 
REMARK   16  A    between atoms: C_16  and  C_18 
REMARK   17  A    between atoms: C_17  and  C_19 
REMARK   18  A    between atoms: C_18  and  C_20 
REMARK   19  A    between atoms: C_19  and  C_22 
REMARK   20  A    between atoms: C_20  and  C_23 
REMARK   21  A    between atoms: C_21  and  C_27 
REMARK   22  A    between atoms: C_22  and  C_28 
REMARK   23  A    between atoms: C_23  and  C_29 
REMARK   24  A    between atoms: C_28  and  C_38 
REMARK   25  A    between atoms: C_30  and  C_31 
REMARK   26  A    between atoms: C_30  and  C_32 
REMARK   27  A    between atoms: C_31  and  C_35 
REMARK   28  A    between atoms: C_32  and  C_39 
REMARK   29  A    between atoms: C_33  and  C_34 
REMARK   30  A    between atoms: C_33  and  C_36 
REMARK   31  A    between atoms: C_34  and  C_37 
REMARK   32  A    between atoms: C_35  and  C_42 
REMARK   33  A    between atoms: C_36  and  C_43 
REMARK   34  A    between atoms: C_37  and  C_44 
REMARK   35  A    between atoms: C_39  and  C_45 
REMARK   36  A    between atoms: C_40  and  C_46 
REMARK   37  A    between atoms: C_40  and  C_47 
REMARK   38  A    between atoms: C_42  and  C_48 
REMARK   39  A    between atoms: C_43  and  C_49 
REMARK   40  A    between atoms: C_44  and  C_50 
REMARK   41  A    between atoms: C_45  and  C_51 
ROOT
HETATM    1  C   UNK N   1      33.023  15.658   7.177  0.00  0.00     0.180 C 
ENDROOT
BRANCH   1   2
HETATM    2  O   UNK N   1      31.887  16.452   7.146  0.00  0.00    -0.312 OA
BRANCH   2   3
HETATM    3  C   UNK N   1      31.621  17.427   8.055  0.00  0.00     0.259 C 
HETATM    4  O   UNK N   1      32.446  18.298   8.299  0.00  0.00    -0.265 OA
BRANCH   3   5
HETATM    5  C   UNK N   1      30.384  17.319   8.889  0.00  0.00     0.111 C 
BRANCH   5   6
HETATM    6  C   UNK N   1      29.694  18.654   9.101  0.00  0.00     0.010 C 
BRANCH   6   7
HETATM    7  C   UNK N   1      28.290  18.660   8.517  0.00  0.00     0.000 C 
BRANCH   7   8
HETATM    8  C   UNK N   1      28.257  19.242   7.114  0.00  0.00     0.000 C 
BRANCH   8   9
HETATM    9  C   UNK N   1      27.227  20.355   7.022  0.00  0.00     0.000 C 
BRANCH   9  10
HETATM   10  C   UNK N   1      27.331  21.054   5.684  0.00  0.00     0.000 C 
BRANCH  10  11
HETATM   11  C   UNK N   1      27.442  20.045   4.557  0.00  0.00     0.000 C 
BRANCH  11  12
HETATM   12  C   UNK N   1      26.680  20.536   3.344  0.00  0.00     0.000 C 
BRANCH  12  13
HETATM   13  C   UNK N   1      25.206  20.225   3.494  0.00  0.00     0.000 C 
BRANCH  13  14
HETATM   14  C   UNK N   1      25.080  18.760   3.840  0.00  0.00     0.000 C 
BRANCH  14  15
HETATM   15  C   UNK N   1      23.909  18.526   4.767  0.00  0.00     0.000 C 
BRANCH  15  16
HETATM   16  C   UNK N   1      22.706  18.215   3.902  0.00  0.00     0.000 C 
BRANCH  16  17
HETATM   17  C   UNK N   1      21.610  17.568   4.716  0.00  0.00    -0.000 C 
BRANCH  17  18
HETATM   18  C   UNK N   1      22.187  17.173   6.059  0.00  0.00    -0.005 C 
HETATM   19  C   UNK N   1      21.751  15.769   6.414  0.00  0.00     0.005 C 
ENDBRANCH  17  18
ENDBRANCH  16  17
ENDBRANCH  15  16
ENDBRANCH  14  15
ENDBRANCH  13  14
ENDBRANCH  12  13
ENDBRANCH  11  12
ENDBRANCH  10  11
ENDBRANCH   9  10
ENDBRANCH   8   9
ENDBRANCH   7   8
ENDBRANCH   6   7
ENDBRANCH   5   6
ENDBRANCH   3   5
ENDBRANCH   2   3
ENDBRANCH   1   2
BRANCH   1  20
HETATM   20  C   UNK N   1      33.602  15.678   8.572  0.00  0.00     0.216 C 
BRANCH  20  21
HETATM   21  O   UNK N   1      34.951  16.017   8.544  0.00  0.00    -0.287 OA
BRANCH  21  22
HETATM   22  P   UNK N   1      35.436  15.788  10.193  0.00  0.00     0.408 P 
HETATM   23  O   UNK N   1      37.127  15.389  10.294  0.00  0.00    -0.624 OA
HETATM   24  O   UNK N   1      35.271  17.156  10.906  0.00  0.00    -0.624 OA
BRANCH  22  25
HETATM   25  O   UNK N   1      34.426  14.644  11.036  0.00  0.00    -0.288 OA
BRANCH  25  26
HETATM   26  C   UNK N   1      35.164  14.232  12.148  0.00  0.00     0.209 C 
BRANCH  26  27
HETATM   27  C   UNK N   1      35.021  12.718  12.331  0.00  0.00     0.262 C 
BRANCH  27  28
HETATM   28  N   UNK N   1      35.322  12.270  13.693  0.00  0.00    -0.077 N 
HETATM   29  C   UNK N   1      35.624  13.397  14.559  0.00  0.00     0.271 C 
HETATM   30  C   UNK N   1      36.488  11.410  13.635  0.00  0.00     0.271 C 
HETATM   31  C   UNK N   1      34.227  11.500  14.263  0.00  0.00     0.271 C 
ENDBRANCH  27  28
ENDBRANCH  26  27
ENDBRANCH  25  26
ENDBRANCH  22  25
ENDBRANCH  21  22
ENDBRANCH  20  21
ENDBRANCH   1  20
BRANCH   1  32
HETATM   32  C   UNK N   1      34.100  16.114   6.205  0.00  0.00     0.213 C 
BRANCH  32  33
HETATM   33  O   UNK N   1      33.552  16.881   5.201  0.00  0.00    -0.319 OA
BRANCH  33  34
HETATM   34  C   UNK N   1      33.205  16.370   3.989  0.00  0.00     0.258 C 
HETATM   35  O   UNK N   1      33.806  15.410   3.549  0.00  0.00    -0.265 OA
BRANCH  34  36
HETATM   36  C   UNK N   1      32.091  16.973   3.170  0.00  0.00     0.111 C 
BRANCH  36  37
HETATM   37  C   UNK N   1      30.762  16.260   3.398  0.00  0.00     0.010 C 
BRANCH  37  38
HETATM   38  C   UNK N   1      29.828  17.076   4.270  0.00  0.00     0.000 C 
BRANCH  38  39
HETATM   39  C   UNK N   1      29.122  16.160   5.246  0.00  0.00     0.000 C 
BRANCH  39  40
HETATM   40  C   UNK N   1      27.632  16.391   5.158  0.00  0.00     0.000 C 
BRANCH  40  41
HETATM   41  C   UNK N   1      26.942  15.850   6.396  0.00  0.00     0.004 C 
BRANCH  41  42
HETATM   42  C   UNK N   1      25.483  15.566   6.086  0.00  0.00     0.027 C 
BRANCH  42  43
HETATM   43  C   UNK N   1      25.282  14.163   5.591  0.00  0.00    -0.031 C 
HETATM   44  C   UNK N   1      24.668  13.860   4.438  0.00  0.00    -0.031 C 
BRANCH  44  45
HETATM   45  C   UNK N   1      24.089  14.888   3.518  0.00  0.00     0.027 C 
BRANCH  45  46
HETATM   46  C   UNK N   1      25.198  15.424   2.632  0.00  0.00     0.004 C 
BRANCH  46  47
HETATM   47  C   UNK N   1      26.067  14.296   2.111  0.00  0.00     0.000 C 
BRANCH  47  48
HETATM   48  C   UNK N   1      27.491  14.788   1.952  0.00  0.00     0.000 C 
BRANCH  48  49
HETATM   49  C   UNK N   1      28.461  13.641   2.145  0.00  0.00     0.000 C 
BRANCH  49  50
HETATM   50  C   UNK N   1      27.843  12.627   3.085  0.00  0.00    -0.000 C 
BRANCH  50  51
HETATM   51  C   UNK N   1      28.458  12.754   4.463  0.00  0.00    -0.005 C 
HETATM   52  C   UNK N   1      29.963  12.643   4.351  0.00  0.00     0.005 C 
ENDBRANCH  50  51
ENDBRANCH  49  50
ENDBRANCH  48  49
ENDBRANCH  47  48
ENDBRANCH  46  47
ENDBRANCH  45  46
ENDBRANCH  44  45
ENDBRANCH  42  43
ENDBRANCH  41  42
ENDBRANCH  40  41
ENDBRANCH  39  40
ENDBRANCH  38  39
ENDBRANCH  37  38
ENDBRANCH  36  37
ENDBRANCH  34  36
ENDBRANCH  33  34
ENDBRANCH  32  33
ENDBRANCH   1  32
TORSDOF 41
ENDMDL
MODEL 7
REMARK VINA RESULT:      -5.0      2.269      5.176
REMARK WARNING: 32 MAX_TORS EXCEEDED!!!
REMARK  41 active torsions:
REMARK  status: ('A' for Active; 'I' for Inactive)
REMARK    1  A    between atoms: P_1  and  O_2 
REMARK    2  A    between atoms: P_1  and  O_4 
REMARK    3  A    between atoms: O_2  and  C_27 
REMARK    4  A    between atoms: O_3  and  C_38 
REMARK    5  A    between atoms: O_3  and  C_40 
REMARK    6  A    between atoms: O_4  and  C_46 
REMARK    7  A    between atoms: O_5  and  C_47 
REMARK    8  A    between atoms: O_5  and  C_51 
REMARK    9  A    between atoms: N_10  and  C_21 
REMARK   10  A    between atoms: C_11  and  C_12 
REMARK   11  A    between atoms: C_11  and  C_13 
REMARK   12  A    between atoms: C_12  and  C_14 
REMARK   13  A    between atoms: C_13  and  C_15 
REMARK   14  A    between atoms: C_14  and  C_16 
REMARK   15  A    between atoms: C_15  and  C_17 
REMARK   16  A    between atoms: C_16  and  C_18 
REMARK   17  A    between atoms: C_17  and  C_19 
REMARK   18  A    between atoms: C_18  and  C_20 
REMARK   19  A    between atoms: C_19  and  C_22 
REMARK   20  A    between atoms: C_20  and  C_23 
REMARK   21  A    between atoms: C_21  and  C_27 
REMARK   22  A    between atoms: C_22  and  C_28 
REMARK   23  A    between atoms: C_23  and  C_29 
REMARK   24  A    between atoms: C_28  and  C_38 
REMARK   25  A    between atoms: C_30  and  C_31 
REMARK   26  A    between atoms: C_30  and  C_32 
REMARK   27  A    between atoms: C_31  and  C_35 
REMARK   28  A    between atoms: C_32  and  C_39 
REMARK   29  A    between atoms: C_33  and  C_34 
REMARK   30  A    between atoms: C_33  and  C_36 
REMARK   31  A    between atoms: C_34  and  C_37 
REMARK   32  A    between atoms: C_35  and  C_42 
REMARK   33  A    between atoms: C_36  and  C_43 
REMARK   34  A    between atoms: C_37  and  C_44 
REMARK   35  A    between atoms: C_39  and  C_45 
REMARK   36  A    between atoms: C_40  and  C_46 
REMARK   37  A    between atoms: C_40  and  C_47 
REMARK   38  A    between atoms: C_42  and  C_48 
REMARK   39  A    between atoms: C_43  and  C_49 
REMARK   40  A    between atoms: C_44  and  C_50 
REMARK   41  A    between atoms: C_45  and  C_51 
ROOT
HETATM    1  C   UNK N   1      21.891  17.988   5.016  0.00  0.00     0.180 C 
ENDROOT
BRANCH   1   2
HETATM    2  O   UNK N   1      21.206  19.065   4.476  0.00  0.00    -0.312 OA
BRANCH   2   3
HETATM    3  C   UNK N   1      20.492  19.006   3.321  0.00  0.00     0.259 C 
HETATM    4  O   UNK N   1      20.054  20.024   2.802  0.00  0.00    -0.265 OA
BRANCH   3   5
HETATM    5  C   UNK N   1      20.089  17.666   2.790  0.00  0.00     0.111 C 
BRANCH   5   6
HETATM    6  C   UNK N   1      19.934  17.651   1.280  0.00  0.00     0.010 C 
BRANCH   6   7
HETATM    7  C   UNK N   1      20.372  16.322   0.684  0.00  0.00     0.000 C 
BRANCH   7   8
HETATM    8  C   UNK N   1      19.223  15.333   0.584  0.00  0.00     0.000 C 
BRANCH   8   9
HETATM    9  C   UNK N   1      19.689  13.936   0.957  0.00  0.00     0.000 C 
BRANCH   9  10
HETATM   10  C   UNK N   1      19.217  13.581   2.351  0.00  0.00     0.000 C 
BRANCH  10  11
HETATM   11  C   UNK N   1      20.386  13.172   3.226  0.00  0.00     0.000 C 
BRANCH  11  12
HETATM   12  C   UNK N   1      20.934  14.379   3.957  0.00  0.00     0.000 C 
BRANCH  12  13
HETATM   13  C   UNK N   1      22.447  14.374   3.910  0.00  0.00     0.000 C 
BRANCH  13  14
HETATM   14  C   UNK N   1      22.872  15.195   2.716  0.00  0.00     0.000 C 
BRANCH  14  15
HETATM   15  C   UNK N   1      23.880  14.443   1.877  0.00  0.00     0.000 C 
BRANCH  15  16
HETATM   16  C   UNK N   1      23.128  13.822   0.720  0.00  0.00     0.000 C 
BRANCH  16  17
HETATM   17  C   UNK N   1      23.965  12.764   0.039  0.00  0.00    -0.000 C 
BRANCH  17  18
HETATM   18  C   UNK N   1      23.081  11.565  -0.235  0.00  0.00    -0.005 C 
HETATM   19  C   UNK N   1      22.296  11.209   1.007  0.00  0.00     0.005 C 
ENDBRANCH  17  18
ENDBRANCH  16  17
ENDBRANCH  15  16
ENDBRANCH  14  15
ENDBRANCH  13  14
ENDBRANCH  12  13
ENDBRANCH  11  12
ENDBRANCH  10  11
ENDBRANCH   9  10
ENDBRANCH   8   9
ENDBRANCH   7   8
ENDBRANCH   6   7
ENDBRANCH   5   6
ENDBRANCH   3   5
ENDBRANCH   2   3
ENDBRANCH   1   2
BRANCH   1  20
HETATM   20  C   UNK N   1      21.388  17.733   6.417  0.00  0.00     0.216 C 
BRANCH  20  21
HETATM   21  O   UNK N   1      21.456  16.379   6.730  0.00  0.00    -0.287 OA
BRANCH  21  22
HETATM   22  P   UNK N   1      20.109  16.167   7.801  0.00  0.00     0.408 P 
HETATM   23  O   UNK N   1      19.967  17.514   8.894  0.00  0.00    -0.624 OA
HETATM   24  O   UNK N   1      18.829  16.184   6.925  0.00  0.00    -0.624 OA
BRANCH  22  25
HETATM   25  O   UNK N   1      20.146  14.633   8.629  0.00  0.00    -0.288 OA
BRANCH  25  26
HETATM   26  C   UNK N   1      20.982  13.811   7.870  0.00  0.00     0.209 C 
BRANCH  26  27
HETATM   27  C   UNK N   1      21.577  12.716   8.760  0.00  0.00     0.262 C 
BRANCH  27  28
HETATM   28  N   UNK N   1      23.004  12.490   8.522  0.00  0.00    -0.077 N 
HETATM   29  C   UNK N   1      23.381  12.898   7.179  0.00  0.00     0.271 C 
HETATM   30  C   UNK N   1      23.262  11.069   8.659  0.00  0.00     0.271 C 
HETATM   31  C   UNK N   1      23.833  13.190   9.492  0.00  0.00     0.271 C 
ENDBRANCH  27  28
ENDBRANCH  26  27
ENDBRANCH  25  26
ENDBRANCH  22  25
ENDBRANCH  21  22
ENDBRANCH  20  21
ENDBRANCH   1  20
BRANCH   1  32
HETATM   32  C   UNK N   1      23.396  18.206   5.079  0.00  0.00     0.213 C 
BRANCH  32  33
HETATM   33  O   UNK N   1      23.897  18.487   3.828  0.00  0.00    -0.319 OA
BRANCH  33  34
HETATM   34  C   UNK N   1      24.525  19.656   3.531  0.00  0.00     0.258 C 
HETATM   35  O   UNK N   1      23.866  20.665   3.372  0.00  0.00    -0.265 OA
BRANCH  34  36
HETATM   36  C   UNK N   1      26.024  19.732   3.386  0.00  0.00     0.111 C 
BRANCH  36  37
HETATM   37  C   UNK N   1      26.666  20.559   4.496  0.00  0.00     0.010 C 
BRANCH  37  38
HETATM   38  C   UNK N   1      27.688  19.757   5.277  0.00  0.00     0.000 C 
BRANCH  38  39
HETATM   39  C   UNK N   1      27.440  19.932   6.759  0.00  0.00     0.000 C 
BRANCH  39  40
HETATM   40  C   UNK N   1      28.433  19.099   7.533  0.00  0.00     0.000 C 
BRANCH  40  41
HETATM   41  C   UNK N   1      28.536  17.709   6.932  0.00  0.00     0.004 C 
BRANCH  41  42
HETATM   42  C   UNK N   1      29.990  17.272   6.899  0.00  0.00     0.027 C 
BRANCH  42  43
HETATM   43  C   UNK N   1      30.144  15.894   6.324  0.00  0.00    -0.031 C 
HETATM   44  C   UNK N   1      30.466  15.652   5.045  0.00  0.00    -0.031 C 
BRANCH  44  45
HETATM   45  C   UNK N   1      30.687  16.730   4.032  0.00  0.00     0.027 C 
BRANCH  45  46
HETATM   46  C   UNK N   1      29.753  16.493   2.860  0.00  0.00     0.004 C 
BRANCH  46  47
HETATM   47  C   UNK N   1      28.307  16.689   3.274  0.00  0.00     0.000 C 
BRANCH  47  48
HETATM   48  C   UNK N   1      27.438  15.666   2.570  0.00  0.00     0.000 C 
BRANCH  48  49
HETATM   49  C   UNK N   1      27.007  14.593   3.547  0.00  0.00     0.000 C 
BRANCH  49  50
HETATM   50  C   UNK N   1      26.255  15.241   4.691  0.00  0.00    -0.000 C 
BRANCH  50  51
HETATM   51  C   UNK N   1      26.625  14.574   5.999  0.00  0.00    -0.005 C 
HETATM   52  C   UNK N   1      25.979  15.324   7.144  0.00  0.00     0.005 C 
ENDBRANCH  50  51
ENDBRANCH  49  50
ENDBRANCH  48  49
ENDBRANCH  47  48
ENDBRANCH  46  47
ENDBRANCH  45  46
ENDBRANCH  44  45
ENDBRANCH  42  43
ENDBRANCH  41  42
ENDBRANCH  40  41
ENDBRANCH  39  40
ENDBRANCH  38  39
ENDBRANCH  37  38
ENDBRANCH  36  37
ENDBRANCH  34  36
ENDBRANCH  33  34
ENDBRANCH  32  33
ENDBRANCH   1  32
TORSDOF 41
ENDMDL
MODEL 8
REMARK VINA RESULT:      -5.0      7.009     11.096
REMARK WARNING: 32 MAX_TORS EXCEEDED!!!
REMARK  41 active torsions:
REMARK  status: ('A' for Active; 'I' for Inactive)
REMARK    1  A    between atoms: P_1  and  O_2 
REMARK    2  A    between atoms: P_1  and  O_4 
REMARK    3  A    between atoms: O_2  and  C_27 
REMARK    4  A    between atoms: O_3  and  C_38 
REMARK    5  A    between atoms: O_3  and  C_40 
REMARK    6  A    between atoms: O_4  and  C_46 
REMARK    7  A    between atoms: O_5  and  C_47 
REMARK    8  A    between atoms: O_5  and  C_51 
REMARK    9  A    between atoms: N_10  and  C_21 
REMARK   10  A    between atoms: C_11  and  C_12 
REMARK   11  A    between atoms: C_11  and  C_13 
REMARK   12  A    between atoms: C_12  and  C_14 
REMARK   13  A    between atoms: C_13  and  C_15 
REMARK   14  A    between atoms: C_14  and  C_16 
REMARK   15  A    between atoms: C_15  and  C_17 
REMARK   16  A    between atoms: C_16  and  C_18 
REMARK   17  A    between atoms: C_17  and  C_19 
REMARK   18  A    between atoms: C_18  and  C_20 
REMARK   19  A    between atoms: C_19  and  C_22 
REMARK   20  A    between atoms: C_20  and  C_23 
REMARK   21  A    between atoms: C_21  and  C_27 
REMARK   22  A    between atoms: C_22  and  C_28 
REMARK   23  A    between atoms: C_23  and  C_29 
REMARK   24  A    between atoms: C_28  and  C_38 
REMARK   25  A    between atoms: C_30  and  C_31 
REMARK   26  A    between atoms: C_30  and  C_32 
REMARK   27  A    between atoms: C_31  and  C_35 
REMARK   28  A    between atoms: C_32  and  C_39 
REMARK   29  A    between atoms: C_33  and  C_34 
REMARK   30  A    between atoms: C_33  and  C_36 
REMARK   31  A    between atoms: C_34  and  C_37 
REMARK   32  A    between atoms: C_35  and  C_42 
REMARK   33  A    between atoms: C_36  and  C_43 
REMARK   34  A    between atoms: C_37  and  C_44 
REMARK   35  A    between atoms: C_39  and  C_45 
REMARK   36  A    between atoms: C_40  and  C_46 
REMARK   37  A    between atoms: C_40  and  C_47 
REMARK   38  A    between atoms: C_42  and  C_48 
REMARK   39  A    between atoms: C_43  and  C_49 
REMARK   40  A    between atoms: C_44  and  C_50 
REMARK   41  A    between atoms: C_45  and  C_51 
ROOT
HETATM    1  C   UNK N   1      32.360  17.412   8.024  0.00  0.00     0.180 C 
ENDROOT
BRANCH   1   2
HETATM    2  O   UNK N   1      32.548  16.762   6.814  0.00  0.00    -0.312 OA
BRANCH   2   3
HETATM    3  C   UNK N   1      33.168  17.323   5.743  0.00  0.00     0.259 C 
HETATM    4  O   UNK N   1      34.183  17.991   5.885  0.00  0.00    -0.265 OA
BRANCH   3   5
HETATM    5  C   UNK N   1      32.492  17.270   4.409  0.00  0.00     0.111 C 
BRANCH   5   6
HETATM    6  C   UNK N   1      31.011  17.597   4.482  0.00  0.00     0.010 C 
BRANCH   6   7
HETATM    7  C   UNK N   1      30.152  16.360   4.269  0.00  0.00     0.000 C 
BRANCH   7   8
HETATM    8  C   UNK N   1      29.291  16.471   3.022  0.00  0.00     0.000 C 
BRANCH   8   9
HETATM    9  C   UNK N   1      27.868  16.854   3.390  0.00  0.00     0.000 C 
BRANCH   9  10
HETATM   10  C   UNK N   1      26.955  15.652   3.267  0.00  0.00     0.000 C 
BRANCH  10  11
HETATM   11  C   UNK N   1      25.829  15.727   4.281  0.00  0.00     0.000 C 
BRANCH  11  12
HETATM   12  C   UNK N   1      24.493  15.585   3.582  0.00  0.00     0.000 C 
BRANCH  12  13
HETATM   13  C   UNK N   1      23.417  15.223   4.584  0.00  0.00     0.000 C 
BRANCH  13  14
HETATM   14  C   UNK N   1      23.166  16.437   5.446  0.00  0.00     0.000 C 
BRANCH  14  15
HETATM   15  C   UNK N   1      22.315  16.080   6.643  0.00  0.00     0.000 C 
BRANCH  15  16
HETATM   16  C   UNK N   1      22.482  14.596   6.887  0.00  0.00     0.000 C 
BRANCH  16  17
HETATM   17  C   UNK N   1      21.160  13.955   7.241  0.00  0.00    -0.000 C 
BRANCH  17  18
HETATM   18  C   UNK N   1      20.626  14.628   8.488  0.00  0.00    -0.005 C 
HETATM   19  C   UNK N   1      21.181  13.947   9.719  0.00  0.00     0.005 C 
ENDBRANCH  17  18
ENDBRANCH  16  17
ENDBRANCH  15  16
ENDBRANCH  14  15
ENDBRANCH  13  14
ENDBRANCH  12  13
ENDBRANCH  11  12
ENDBRANCH  10  11
ENDBRANCH   9  10
ENDBRANCH   8   9
ENDBRANCH   7   8
ENDBRANCH   6   7
ENDBRANCH   5   6
ENDBRANCH   3   5
ENDBRANCH   2   3
ENDBRANCH   1   2
BRANCH   1  20
HETATM   20  C   UNK N   1      33.474  17.029   8.970  0.00  0.00     0.216 C 
BRANCH  20  21
HETATM   21  O   UNK N   1      33.288  15.741   9.460  0.00  0.00    -0.287 OA
BRANCH  21  22
HETATM   22  P   UNK N   1      34.684  15.508  10.462  0.00  0.00     0.408 P 
HETATM   23  O   UNK N   1      36.018  14.886   9.534  0.00  0.00    -0.624 OA
HETATM   24  O   UNK N   1      35.121  16.911  10.960  0.00  0.00    -0.624 OA
BRANCH  22  25
HETATM   25  O   UNK N   1      34.343  14.545  11.875  0.00  0.00    -0.288 OA
BRANCH  25  26
HETATM   26  C   UNK N   1      35.557  13.957  12.236  0.00  0.00     0.209 C 
BRANCH  26  27
HETATM   27  C   UNK N   1      35.431  12.432  12.176  0.00  0.00     0.262 C 
BRANCH  27  28
HETATM   28  N   UNK N   1      36.188  11.747  13.226  0.00  0.00    -0.077 N 
HETATM   29  C   UNK N   1      35.596  10.457  13.539  0.00  0.00     0.271 C 
HETATM   30  C   UNK N   1      36.148  12.571  14.419  0.00  0.00     0.271 C 
HETATM   31  C   UNK N   1      37.583  11.563  12.855  0.00  0.00     0.271 C 
ENDBRANCH  27  28
ENDBRANCH  26  27
ENDBRANCH  25  26
ENDBRANCH  22  25
ENDBRANCH  21  22
ENDBRANCH  20  21
ENDBRANCH   1  20
BRANCH   1  32
HETATM   32  C   UNK N   1      31.033  17.074   8.686  0.00  0.00     0.213 C 
BRANCH  32  33
HETATM   33  O   UNK N   1      30.039  16.948   7.742  0.00  0.00    -0.319 OA
BRANCH  33  34
HETATM   34  C   UNK N   1      28.796  17.477   7.904  0.00  0.00     0.258 C 
HETATM   35  O   UNK N   1      28.162  17.219   8.909  0.00  0.00    -0.265 OA
BRANCH  34  36
HETATM   36  C   UNK N   1      28.178  18.374   6.862  0.00  0.00     0.111 C 
BRANCH  36  37
HETATM   37  C   UNK N   1      27.789  19.734   7.433  0.00  0.00     0.010 C 
BRANCH  37  38
HETATM   38  C   UNK N   1      27.646  20.781   6.348  0.00  0.00     0.000 C 
BRANCH  38  39
HETATM   39  C   UNK N   1      27.830  20.133   4.994  0.00  0.00     0.000 C 
BRANCH  39  40
HETATM   40  C   UNK N   1      26.626  20.428   4.131  0.00  0.00     0.000 C 
BRANCH  40  41
HETATM   41  C   UNK N   1      25.469  19.524   4.514  0.00  0.00     0.004 C 
BRANCH  41  42
HETATM   42  C   UNK N   1      24.587  19.281   3.303  0.00  0.00     0.027 C 
BRANCH  42  43
HETATM   43  C   UNK N   1      23.810  20.509   2.924  0.00  0.00    -0.031 C 
HETATM   44  C   UNK N   1      22.472  20.552   2.855  0.00  0.00    -0.031 C 
BRANCH  44  45
HETATM   45  C   UNK N   1      21.593  19.372   3.126  0.00  0.00     0.027 C 
BRANCH  45  46
HETATM   46  C   UNK N   1      20.451  19.380   2.127  0.00  0.00     0.004 C 
BRANCH  46  47
HETATM   47  C   UNK N   1      20.002  17.967   1.808  0.00  0.00     0.000 C 
BRANCH  47  48
HETATM   48  C   UNK N   1      20.897  16.980   2.529  0.00  0.00     0.000 C 
BRANCH  48  49
HETATM   49  C   UNK N   1      20.384  15.570   2.324  0.00  0.00     0.000 C 
BRANCH  49  50
HETATM   50  C   UNK N   1      19.795  15.066   3.626  0.00  0.00    -0.000 C 
BRANCH  50  51
HETATM   51  C   UNK N   1      19.481  16.233   4.539  0.00  0.00    -0.005 C 
HETATM   52  C   UNK N   1      18.439  15.809   5.552  0.00  0.00     0.005 C 
ENDBRANCH  50  51
ENDBRANCH  49  50
ENDBRANCH  48  49
ENDBRANCH  47  48
ENDBRANCH  46  47
ENDBRANCH  45  46
ENDBRANCH  44  45
ENDBRANCH  42  43
ENDBRANCH  41  42
ENDBRANCH  40  41
ENDBRANCH  39  40
ENDBRANCH  38  39
ENDBRANCH  37  38
ENDBRANCH  36  37
ENDBRANCH  34  36
ENDBRANCH  33  34
ENDBRANCH  32  33
ENDBRANCH   1  32
TORSDOF 41
ENDMDL
MODEL 9
REMARK VINA RESULT:      -5.0      2.799      6.411
REMARK WARNING: 32 MAX_TORS EXCEEDED!!!
REMARK  41 active torsions:
REMARK  status: ('A' for Active; 'I' for Inactive)
REMARK    1  A    between atoms: P_1  and  O_2 
REMARK    2  A    between atoms: P_1  and  O_4 
REMARK    3  A    between atoms: O_2  and  C_27 
REMARK    4  A    between atoms: O_3  and  C_38 
REMARK    5  A    between atoms: O_3  and  C_40 
REMARK    6  A    between atoms: O_4  and  C_46 
REMARK    7  A    between atoms: O_5  and  C_47 
REMARK    8  A    between atoms: O_5  and  C_51 
REMARK    9  A    between atoms: N_10  and  C_21 
REMARK   10  A    between atoms: C_11  and  C_12 
REMARK   11  A    between atoms: C_11  and  C_13 
REMARK   12  A    between atoms: C_12  and  C_14 
REMARK   13  A    between atoms: C_13  and  C_15 
REMARK   14  A    between atoms: C_14  and  C_16 
REMARK   15  A    between atoms: C_15  and  C_17 
REMARK   16  A    between atoms: C_16  and  C_18 
REMARK   17  A    between atoms: C_17  and  C_19 
REMARK   18  A    between atoms: C_18  and  C_20 
REMARK   19  A    between atoms: C_19  and  C_22 
REMARK   20  A    between atoms: C_20  and  C_23 
REMARK   21  A    between atoms: C_21  and  C_27 
REMARK   22  A    between atoms: C_22  and  C_28 
REMARK   23  A    between atoms: C_23  and  C_29 
REMARK   24  A    between atoms: C_28  and  C_38 
REMARK   25  A    between atoms: C_30  and  C_31 
REMARK   26  A    between atoms: C_30  and  C_32 
REMARK   27  A    between atoms: C_31  and  C_35 
REMARK   28  A    between atoms: C_32  and  C_39 
REMARK   29  A    between atoms: C_33  and  C_34 
REMARK   30  A    between atoms: C_33  and  C_36 
REMARK   31  A    between atoms: C_34  and  C_37 
REMARK   32  A    between atoms: C_35  and  C_42 
REMARK   33  A    between atoms: C_36  and  C_43 
REMARK   34  A    between atoms: C_37  and  C_44 
REMARK   35  A    between atoms: C_39  and  C_45 
REMARK   36  A    between atoms: C_40  and  C_46 
REMARK   37  A    between atoms: C_40  and  C_47 
REMARK   38  A    between atoms: C_42  and  C_48 
REMARK   39  A    between atoms: C_43  and  C_49 
REMARK   40  A    between atoms: C_44  and  C_50 
REMARK   41  A    between atoms: C_45  and  C_51 
ROOT
HETATM    1  C   UNK N   1      21.378  17.850   4.669  0.00  0.00     0.180 C 
ENDROOT
BRANCH   1   2
HETATM    2  O   UNK N   1      20.271  17.289   4.050  0.00  0.00    -0.312 OA
BRANCH   2   3
HETATM    3  C   UNK N   1      20.204  17.023   2.718  0.00  0.00     0.259 C 
HETATM    4  O   UNK N   1      19.565  17.746   1.966  0.00  0.00    -0.265 OA
BRANCH   3   5
HETATM    5  C   UNK N   1      20.767  15.732   2.211  0.00  0.00     0.111 C 
BRANCH   5   6
HETATM    6  C   UNK N   1      20.216  15.340   0.852  0.00  0.00     0.010 C 
BRANCH   6   7
HETATM    7  C   UNK N   1      19.258  14.162   0.953  0.00  0.00     0.000 C 
BRANCH   7   8
HETATM    8  C   UNK N   1      19.885  12.872   0.450  0.00  0.00     0.000 C 
BRANCH   8   9
HETATM    9  C   UNK N   1      20.806  12.281   1.505  0.00  0.00     0.000 C 
BRANCH   9  10
HETATM   10  C   UNK N   1      22.072  11.760   0.859  0.00  0.00     0.000 C 
BRANCH  10  11
HETATM   11  C   UNK N   1      22.802  12.873   0.132  0.00  0.00     0.000 C 
BRANCH  11  12
HETATM   12  C   UNK N   1      24.146  13.124   0.784  0.00  0.00     0.000 C 
BRANCH  12  13
HETATM   13  C   UNK N   1      24.228  14.553   1.276  0.00  0.00     0.000 C 
BRANCH  13  14
HETATM   14  C   UNK N   1      24.196  14.521   2.785  0.00  0.00     0.000 C 
BRANCH  14  15
HETATM   15  C   UNK N   1      24.977  15.678   3.365  0.00  0.00     0.000 C 
BRANCH  15  16
HETATM   16  C   UNK N   1      26.134  15.953   2.430  0.00  0.00     0.000 C 
BRANCH  16  17
HETATM   17  C   UNK N   1      27.450  15.908   3.172  0.00  0.00    -0.000 C 
BRANCH  17  18
HETATM   18  C   UNK N   1      27.296  14.971   4.352  0.00  0.00    -0.005 C 
HETATM   19  C   UNK N   1      28.655  14.622   4.913  0.00  0.00     0.005 C 
ENDBRANCH  17  18
ENDBRANCH  16  17
ENDBRANCH  15  16
ENDBRANCH  14  15
ENDBRANCH  13  14
ENDBRANCH  12  13
ENDBRANCH  11  12
ENDBRANCH  10  11
ENDBRANCH   9  10
ENDBRANCH   8   9
ENDBRANCH   7   8
ENDBRANCH   6   7
ENDBRANCH   5   6
ENDBRANCH   3   5
ENDBRANCH   2   3
ENDBRANCH   1   2
BRANCH   1  20
HETATM   20  C   UNK N   1      21.131  17.915   6.158  0.00  0.00     0.216 C 
BRANCH  20  21
HETATM   21  O   UNK N   1      21.654  16.795   6.797  0.00  0.00    -0.287 OA
BRANCH  21  22
HETATM   22  P   UNK N   1      20.493  16.493   8.048  0.00  0.00     0.408 P 
HETATM   23  O   UNK N   1      20.081  17.964   8.882  0.00  0.00    -0.624 OA
HETATM   24  O   UNK N   1      19.192  16.012   7.352  0.00  0.00    -0.624 OA
BRANCH  22  25
HETATM   25  O   UNK N   1      20.992  15.224   9.135  0.00  0.00    -0.288 OA
BRANCH  25  26
HETATM   26  C   UNK N   1      21.258  14.115   8.328  0.00  0.00     0.209 C 
BRANCH  26  27
HETATM   27  C   UNK N   1      22.758  13.810   8.347  0.00  0.00     0.262 C 
BRANCH  27  28
HETATM   28  N   UNK N   1      23.095  12.609   9.115  0.00  0.00    -0.077 N 
HETATM   29  C   UNK N   1      22.050  12.295  10.076  0.00  0.00     0.271 C 
HETATM   30  C   UNK N   1      24.323  12.869   9.841  0.00  0.00     0.271 C 
HETATM   31  C   UNK N   1      23.320  11.460   8.251  0.00  0.00     0.271 C 
ENDBRANCH  27  28
ENDBRANCH  26  27
ENDBRANCH  25  26
ENDBRANCH  22  25
ENDBRANCH  21  22
ENDBRANCH  20  21
ENDBRANCH   1  20
BRANCH   1  32
HETATM   32  C   UNK N   1      21.694  19.253   4.175  0.00  0.00     0.213 C 
BRANCH  32  33
HETATM   33  O   UNK N   1      22.978  19.315   3.682  0.00  0.00    -0.319 OA
BRANCH  33  34
HETATM   34  C   UNK N   1      23.460  20.397   3.013  0.00  0.00     0.258 C 
HETATM   35  O   UNK N   1      22.711  21.314   2.738  0.00  0.00    -0.265 OA
BRANCH  34  36
HETATM   36  C   UNK N   1      24.907  20.485   2.596  0.00  0.00     0.111 C 
BRANCH  36  37
HETATM   37  C   UNK N   1      25.812  19.632   3.479  0.00  0.00     0.010 C 
BRANCH  37  38
HETATM   38  C   UNK N   1      26.657  20.481   4.407  0.00  0.00     0.000 C 
BRANCH  38  39
HETATM   39  C   UNK N   1      27.869  19.691   4.848  0.00  0.00     0.000 C 
BRANCH  39  40
HETATM   40  C   UNK N   1      27.428  18.554   5.738  0.00  0.00     0.000 C 
BRANCH  40  41
HETATM   41  C   UNK N   1      28.633  17.855   6.338  0.00  0.00     0.004 C 
BRANCH  41  42
HETATM   42  C   UNK N   1      28.553  17.906   7.853  0.00  0.00     0.027 C 
BRANCH  42  43
HETATM   43  C   UNK N   1      29.762  18.563   8.453  0.00  0.00    -0.031 C 
HETATM   44  C   UNK N   1      30.916  17.924   8.692  0.00  0.00    -0.031 C 
BRANCH  44  45
HETATM   45  C   UNK N   1      31.127  16.470   8.411  0.00  0.00     0.027 C 
BRANCH  45  46
HETATM   46  C   UNK N   1      31.855  16.335   7.086  0.00  0.00     0.004 C 
BRANCH  46  47
HETATM   47  C   UNK N   1      32.667  17.580   6.786  0.00  0.00     0.000 C 
BRANCH  47  48
HETATM   48  C   UNK N   1      34.129  17.310   7.076  0.00  0.00     0.000 C 
BRANCH  48  49
HETATM   49  C   UNK N   1      34.575  18.110   8.282  0.00  0.00     0.000 C 
BRANCH  49  50
HETATM   50  C   UNK N   1      34.727  17.175   9.465  0.00  0.00    -0.000 C 
BRANCH  50  51
HETATM   51  C   UNK N   1      35.004  15.767   8.980  0.00  0.00    -0.005 C 
HETATM   52  C   UNK N   1      34.176  14.789   9.785  0.00  0.00     0.005 C 
ENDBRANCH  50  51
ENDBRANCH  49  50
ENDBRANCH  48  49
ENDBRANCH  47  48
ENDBRANCH  46  47
ENDBRANCH  45  46
ENDBRANCH  44  45
ENDBRANCH  42  43
ENDBRANCH  41  42
ENDBRANCH  40  41
ENDBRANCH  39  40
ENDBRANCH  38  39
ENDBRANCH  37  38
ENDBRANCH  36  37
ENDBRANCH  34  36
ENDBRANCH  33  34
ENDBRANCH  32  33
ENDBRANCH   1  32
TORSDOF 41
ENDMDL
