MODEL 1
REMARK VINA RESULT:      -6.3      0.000      0.000
REMARK  13 active torsions:
REMARK  status: ('A' for Active; 'I' for Inactive)
REMARK    1  A    between atoms: C_2  and  C_3 
REMARK    2  A    between atoms: C_3  and  C_4 
REMARK    3  A    between atoms: C_4  and  C_5 
REMARK    4  A    between atoms: C_5  and  C_6 
REMARK    5  A    between atoms: C_6  and  C_7 
REMARK    6  A    between atoms: C_7  and  C_10 
REMARK    7  A    between atoms: C_12  and  O_34 
REMARK    8  A    between atoms: C_24  and  C_13 
REMARK    9  A    between atoms: C_14  and  O_16 
REMARK   10  A    between atoms: O_16  and  C_17 
REMARK   11  A    between atoms: C_17  and  C_19 
REMARK   12  A    between atoms: C_20  and  C_21 
REMARK   13  A    between atoms: C_21  and  O_23 
ROOT
HETATM    1  C   UNK N   1      28.219  27.972  -4.013  0.00  0.00    -0.045 A 
HETATM    2  C   UNK N   1      29.577  28.146  -3.729  0.00  0.00     0.045 A 
HETATM    3  C   UNK N   1      30.440  27.056  -3.665  0.00  0.00     0.075 A 
HETATM    4  C   UNK N   1      29.956  25.741  -3.856  0.00  0.00     0.014 A 
HETATM    5  C   UNK N   1      28.566  25.546  -4.083  0.00  0.00     0.089 A 
HETATM    6  C   UNK N   1      27.730  26.673  -4.173  0.00  0.00     0.046 A 
ENDROOT
BRANCH   4   7
HETATM    7  C   UNK N   1      30.962  24.605  -3.871  0.00  0.00     0.036 C 
HETATM    8  C   UNK N   1      30.781  23.475  -2.820  0.00  0.00     0.088 C 
HETATM    9  C   UNK N   1      31.736  22.341  -3.136  0.00  0.00     0.132 C 
HETATM   10  O   UNK N   1      32.075  21.556  -2.267  0.00  0.00    -0.298 OA
HETATM   11  C   UNK N   1      32.310  22.242  -4.539  0.00  0.00     0.064 C 
HETATM   12  C   UNK N   1      32.978  23.604  -4.751  0.00  0.00     0.019 C 
HETATM   13  C   UNK N   1      31.253  22.707  -5.556  0.00  0.00    -0.033 C 
HETATM   14  C   UNK N   1      31.623  24.159  -5.210  0.00  0.00     0.004 C 
HETATM   15  C   UNK N   1      29.805  22.259  -5.359  0.00  0.00     0.016 C 
HETATM   16  C   UNK N   1      31.691  22.366  -6.979  0.00  0.00     0.016 C 
ENDBRANCH   4   7
BRANCH   3  17
HETATM   17  O   UNK N   1      31.748  27.282  -3.446  0.00  0.00    -0.360 OA
HETATM   18  H   UNK N   1      32.352  26.567  -3.440  0.00  0.00     0.217 HD
ENDBRANCH   3  17
BRANCH   5  19
HETATM   19  O   UNK N   1      28.051  24.286  -4.213  0.00  0.00    -0.275 OA
BRANCH  19  20
HETATM   20  C   UNK N   1      26.754  23.967  -4.516  0.00  0.00     0.288 C 
HETATM   21  O   UNK N   1      25.882  23.980  -3.661  0.00  0.00    -0.260 OA
BRANCH  20  22
HETATM   22  C   UNK N   1      26.403  23.587  -5.898  0.00  0.00     0.089 C 
HETATM   23  C   UNK N   1      25.892  24.499  -6.736  0.00  0.00     0.087 C 
BRANCH  23  24
HETATM   24  C   UNK N   1      25.506  24.183  -8.120  0.00  0.00     0.165 C 
HETATM   25  O   UNK N   1      25.977  24.804  -9.059  0.00  0.00    -0.647 OA
BRANCH  24  26
HETATM   26  O   UNK N   1      24.624  23.191  -8.350  0.00  0.00    -0.773 OA
HETATM   27  H   UNK N   1      23.875  23.346  -8.891  0.00  0.00     0.167 HD
ENDBRANCH  24  26
ENDBRANCH  23  24
ENDBRANCH  20  22
ENDBRANCH  19  20
ENDBRANCH   5  19
BRANCH   1  28
HETATM   28  C   UNK N   1      27.327  29.187  -4.197  0.00  0.00    -0.020 C 
HETATM   29  C   UNK N   1      27.456  30.172  -3.038  0.00  0.00     0.020 C 
HETATM   30  C   UNK N   1      25.879  28.706  -4.241  0.00  0.00     0.020 C 
BRANCH  28  31
HETATM   31  C   UNK N   1      27.735  29.899  -5.498  0.00  0.00     0.013 C 
BRANCH  31  32
HETATM   32  C   UNK N   1      27.940  29.060  -6.769  0.00  0.00     0.001 C 
BRANCH  32  33
HETATM   33  C   UNK N   1      29.318  29.134  -7.418  0.00  0.00     0.000 C 
BRANCH  33  34
HETATM   34  C   UNK N   1      29.879  27.725  -7.549  0.00  0.00    -0.000 C 
BRANCH  34  35
HETATM   35  C   UNK N   1      28.752  26.712  -7.657  0.00  0.00    -0.005 C 
HETATM   36  C   UNK N   1      29.326  25.312  -7.712  0.00  0.00     0.005 C 
ENDBRANCH  34  35
ENDBRANCH  33  34
ENDBRANCH  32  33
ENDBRANCH  31  32
ENDBRANCH  28  31
ENDBRANCH   1  28
TORSDOF 13
ENDMDL
MODEL 2
REMARK VINA RESULT:      -6.2     16.794     21.387
REMARK  13 active torsions:
REMARK  status: ('A' for Active; 'I' for Inactive)
REMARK    1  A    between atoms: C_2  and  C_3 
REMARK    2  A    between atoms: C_3  and  C_4 
REMARK    3  A    between atoms: C_4  and  C_5 
REMARK    4  A    between atoms: C_5  and  C_6 
REMARK    5  A    between atoms: C_6  and  C_7 
REMARK    6  A    between atoms: C_7  and  C_10 
REMARK    7  A    between atoms: C_12  and  O_34 
REMARK    8  A    between atoms: C_24  and  C_13 
REMARK    9  A    between atoms: C_14  and  O_16 
REMARK   10  A    between atoms: O_16  and  C_17 
REMARK   11  A    between atoms: C_17  and  C_19 
REMARK   12  A    between atoms: C_20  and  C_21 
REMARK   13  A    between atoms: C_21  and  O_23 
ROOT
HETATM    1  C   UNK N   1      35.658  13.919  12.166  0.00  0.00    -0.045 A 
HETATM    2  C   UNK N   1      35.998  15.267  12.013  0.00  0.00     0.045 A 
HETATM    3  C   UNK N   1      35.605  15.980  10.884  0.00  0.00     0.075 A 
HETATM    4  C   UNK N   1      34.880  15.348   9.848  0.00  0.00     0.014 A 
HETATM    5  C   UNK N   1      34.583  13.962   9.963  0.00  0.00     0.089 A 
HETATM    6  C   UNK N   1      34.968  13.282  11.131  0.00  0.00     0.046 A 
ENDROOT
BRANCH   4   7
HETATM    7  C   UNK N   1      34.398  16.202   8.690  0.00  0.00     0.036 C 
HETATM    8  C   UNK N   1      34.728  15.711   7.253  0.00  0.00     0.088 C 
HETATM    9  C   UNK N   1      33.983  16.568   6.249  0.00  0.00     0.132 C 
HETATM   10  O   UNK N   1      34.375  16.657   5.098  0.00  0.00    -0.298 OA
HETATM   11  C   UNK N   1      32.776  17.361   6.721  0.00  0.00     0.064 C 
HETATM   12  C   UNK N   1      33.332  18.210   7.870  0.00  0.00     0.019 C 
HETATM   13  C   UNK N   1      32.029  16.558   7.801  0.00  0.00    -0.033 C 
HETATM   14  C   UNK N   1      33.083  17.029   8.818  0.00  0.00     0.004 C 
HETATM   15  C   UNK N   1      31.841  15.055   7.593  0.00  0.00     0.016 C 
HETATM   16  C   UNK N   1      30.674  17.193   8.101  0.00  0.00     0.016 C 
ENDBRANCH   4   7
BRANCH   3  17
HETATM   17  O   UNK N   1      35.907  17.290  10.812  0.00  0.00    -0.360 OA
HETATM   18  H   UNK N   1      35.716  17.772  10.033  0.00  0.00     0.217 HD
ENDBRANCH   3  17
BRANCH   5  19
HETATM   19  O   UNK N   1      33.936  13.302   8.955  0.00  0.00    -0.275 OA
BRANCH  19  20
HETATM   20  C   UNK N   1      34.376  12.179   8.306  0.00  0.00     0.288 C 
HETATM   21  O   UNK N   1      35.446  12.167   7.718  0.00  0.00    -0.260 OA
BRANCH  20  22
HETATM   22  C   UNK N   1      33.539  10.965   8.306  0.00  0.00     0.089 C 
HETATM   23  C   UNK N   1      32.935  10.565   9.432  0.00  0.00     0.087 C 
BRANCH  23  24
HETATM   24  C   UNK N   1      32.100   9.355   9.504  0.00  0.00     0.165 C 
HETATM   25  O   UNK N   1      31.090   9.251   8.827  0.00  0.00    -0.647 OA
BRANCH  24  26
HETATM   26  O   UNK N   1      32.462   8.350  10.324  0.00  0.00    -0.773 OA
HETATM   27  H   UNK N   1      32.548   7.480   9.989  0.00  0.00     0.167 HD
ENDBRANCH  24  26
ENDBRANCH  23  24
ENDBRANCH  20  22
ENDBRANCH  19  20
ENDBRANCH   5  19
BRANCH   1  28
HETATM   28  C   UNK N   1      35.993  13.200  13.461  0.00  0.00    -0.020 C 
HETATM   29  C   UNK N   1      36.570  14.149  14.508  0.00  0.00     0.020 C 
HETATM   30  C   UNK N   1      37.051  12.144  13.154  0.00  0.00     0.020 C 
BRANCH  28  31
HETATM   31  C   UNK N   1      34.703  12.576  14.019  0.00  0.00     0.013 C 
BRANCH  31  32
HETATM   32  C   UNK N   1      34.638  11.052  14.206  0.00  0.00     0.001 C 
BRANCH  32  33
HETATM   33  C   UNK N   1      34.503  10.548  15.638  0.00  0.00     0.000 C 
BRANCH  33  34
HETATM   34  C   UNK N   1      35.704  11.024  16.445  0.00  0.00    -0.000 C 
BRANCH  34  35
HETATM   35  C   UNK N   1      35.260  11.552  17.799  0.00  0.00    -0.005 C 
HETATM   36  C   UNK N   1      35.103  13.056  17.735  0.00  0.00     0.005 C 
ENDBRANCH  34  35
ENDBRANCH  33  34
ENDBRANCH  32  33
ENDBRANCH  31  32
ENDBRANCH  28  31
ENDBRANCH   1  28
TORSDOF 13
ENDMDL
MODEL 3
REMARK VINA RESULT:      -6.2     16.602     21.175
REMARK  13 active torsions:
REMARK  status: ('A' for Active; 'I' for Inactive)
REMARK    1  A    between atoms: C_2  and  C_3 
REMARK    2  A    between atoms: C_3  and  C_4 
REMARK    3  A    between atoms: C_4  and  C_5 
REMARK    4  A    between atoms: C_5  and  C_6 
REMARK    5  A    between atoms: C_6  and  C_7 
REMARK    6  A    between atoms: C_7  and  C_10 
REMARK    7  A    between atoms: C_12  and  O_34 
REMARK    8  A    between atoms: C_24  and  C_13 
REMARK    9  A    between atoms: C_14  and  O_16 
REMARK   10  A    between atoms: O_16  and  C_17 
REMARK   11  A    between atoms: C_17  and  C_19 
REMARK   12  A    between atoms: C_20  and  C_21 
REMARK   13  A    between atoms: C_21  and  O_23 
ROOT
HETATM    1  C   UNK N   1      35.693  14.096  12.347  0.00  0.00    -0.045 A 
HETATM    2  C   UNK N   1      36.040  15.428  12.099  0.00  0.00     0.045 A 
HETATM    3  C   UNK N   1      35.658  16.058  10.918  0.00  0.00     0.075 A 
HETATM    4  C   UNK N   1      34.936  15.356   9.925  0.00  0.00     0.014 A 
HETATM    5  C   UNK N   1      34.632  13.983  10.139  0.00  0.00     0.089 A 
HETATM    6  C   UNK N   1      35.006  13.389  11.357  0.00  0.00     0.046 A 
ENDROOT
BRANCH   4   7
HETATM    7  C   UNK N   1      34.466  16.125   8.705  0.00  0.00     0.036 C 
HETATM    8  C   UNK N   1      34.824  15.543   7.310  0.00  0.00     0.088 C 
HETATM    9  C   UNK N   1      34.088  16.322   6.239  0.00  0.00     0.132 C 
HETATM   10  O   UNK N   1      34.498  16.339   5.091  0.00  0.00    -0.298 OA
HETATM   11  C   UNK N   1      32.866  17.133   6.638  0.00  0.00     0.064 C 
HETATM   12  C   UNK N   1      33.395  18.062   7.736  0.00  0.00     0.019 C 
HETATM   13  C   UNK N   1      32.109  16.396   7.757  0.00  0.00    -0.033 C 
HETATM   14  C   UNK N   1      33.141  16.946   8.757  0.00  0.00     0.004 C 
HETATM   15  C   UNK N   1      31.938  14.881   7.647  0.00  0.00     0.016 C 
HETATM   16  C   UNK N   1      30.743  17.036   7.992  0.00  0.00     0.016 C 
ENDBRANCH   4   7
BRANCH   3  17
HETATM   17  O   UNK N   1      35.966  17.358  10.753  0.00  0.00    -0.360 OA
HETATM   18  H   UNK N   1      35.616  18.000  11.338  0.00  0.00     0.217 HD
ENDBRANCH   3  17
BRANCH   5  19
HETATM   19  O   UNK N   1      33.988  13.255   9.178  0.00  0.00    -0.275 OA
BRANCH  19  20
HETATM   20  C   UNK N   1      34.451  12.113   8.580  0.00  0.00     0.288 C 
HETATM   21  O   UNK N   1      35.585  12.047   8.131  0.00  0.00    -0.260 OA
BRANCH  20  22
HETATM   22  C   UNK N   1      33.560  10.942   8.461  0.00  0.00     0.089 C 
HETATM   23  C   UNK N   1      32.963  10.440   9.550  0.00  0.00     0.087 C 
BRANCH  23  24
HETATM   24  C   UNK N   1      32.077   9.266   9.505  0.00  0.00     0.165 C 
HETATM   25  O   UNK N   1      31.061   9.275   8.829  0.00  0.00    -0.647 OA
BRANCH  24  26
HETATM   26  O   UNK N   1      32.398   8.168  10.215  0.00  0.00    -0.773 OA
HETATM   27  H   UNK N   1      33.262   7.808  10.155  0.00  0.00     0.167 HD
ENDBRANCH  24  26
ENDBRANCH  23  24
ENDBRANCH  20  22
ENDBRANCH  19  20
ENDBRANCH   5  19
BRANCH   1  28
HETATM   28  C   UNK N   1      36.016  13.472  13.693  0.00  0.00    -0.020 C 
HETATM   29  C   UNK N   1      36.669  14.472  14.643  0.00  0.00     0.020 C 
HETATM   30  C   UNK N   1      37.006  12.335  13.460  0.00  0.00     0.020 C 
BRANCH  28  31
HETATM   31  C   UNK N   1      34.706  12.973  14.325  0.00  0.00     0.013 C 
BRANCH  31  32
HETATM   32  C   UNK N   1      34.776  11.910  15.433  0.00  0.00     0.001 C 
BRANCH  32  33
HETATM   33  C   UNK N   1      34.309  10.508  15.060  0.00  0.00     0.000 C 
BRANCH  33  34
HETATM   34  C   UNK N   1      33.738  10.536  13.648  0.00  0.00    -0.000 C 
BRANCH  34  35
HETATM   35  C   UNK N   1      34.515   9.596  12.741  0.00  0.00    -0.005 C 
HETATM   36  C   UNK N   1      35.531   8.823  13.555  0.00  0.00     0.005 C 
ENDBRANCH  34  35
ENDBRANCH  33  34
ENDBRANCH  32  33
ENDBRANCH  31  32
ENDBRANCH  28  31
ENDBRANCH   1  28
TORSDOF 13
ENDMDL
MODEL 4
REMARK VINA RESULT:      -6.1     11.211     14.258
REMARK  13 active torsions:
REMARK  status: ('A' for Active; 'I' for Inactive)
REMARK    1  A    between atoms: C_2  and  C_3 
REMARK    2  A    between atoms: C_3  and  C_4 
REMARK    3  A    between atoms: C_4  and  C_5 
REMARK    4  A    between atoms: C_5  and  C_6 
REMARK    5  A    between atoms: C_6  and  C_7 
REMARK    6  A    between atoms: C_7  and  C_10 
REMARK    7  A    between atoms: C_12  and  O_34 
REMARK    8  A    between atoms: C_24  and  C_13 
REMARK    9  A    between atoms: C_14  and  O_16 
REMARK   10  A    between atoms: O_16  and  C_17 
REMARK   11  A    between atoms: C_17  and  C_19 
REMARK   12  A    between atoms: C_20  and  C_21 
REMARK   13  A    between atoms: C_21  and  O_23 
ROOT
HETATM    1  C   UNK N   1      27.801  18.899   5.428  0.00  0.00    -0.045 A 
HETATM    2  C   UNK N   1      27.734  18.403   6.733  0.00  0.00     0.045 A 
HETATM    3  C   UNK N   1      28.776  17.650   7.266  0.00  0.00     0.075 A 
HETATM    4  C   UNK N   1      29.915  17.341   6.489  0.00  0.00     0.014 A 
HETATM    5  C   UNK N   1      29.967  17.787   5.139  0.00  0.00     0.089 A 
HETATM    6  C   UNK N   1      28.911  18.572   4.644  0.00  0.00     0.046 A 
ENDROOT
BRANCH   4   7
HETATM    7  C   UNK N   1      31.058  16.601   7.157  0.00  0.00     0.036 C 
HETATM    8  C   UNK N   1      31.591  15.321   6.454  0.00  0.00     0.088 C 
HETATM    9  C   UNK N   1      32.855  14.859   7.149  0.00  0.00     0.132 C 
HETATM   10  O   UNK N   1      33.222  13.699   7.063  0.00  0.00    -0.298 OA
HETATM   11  C   UNK N   1      33.621  15.853   8.006  0.00  0.00     0.064 C 
HETATM   12  C   UNK N   1      32.576  16.334   9.018  0.00  0.00     0.019 C 
HETATM   13  C   UNK N   1      33.518  17.254   7.377  0.00  0.00    -0.033 C 
HETATM   14  C   UNK N   1      32.116  17.381   7.996  0.00  0.00     0.004 C 
HETATM   15  C   UNK N   1      33.658  17.383   5.859  0.00  0.00     0.016 C 
HETATM   16  C   UNK N   1      34.491  18.218   8.051  0.00  0.00     0.016 C 
ENDBRANCH   4   7
BRANCH   3  17
HETATM   17  O   UNK N   1      28.688  17.245   8.547  0.00  0.00    -0.360 OA
HETATM   18  H   UNK N   1      27.945  17.485   9.064  0.00  0.00     0.217 HD
ENDBRANCH   3  17
BRANCH   5  19
HETATM   19  O   UNK N   1      31.025  17.459   4.337  0.00  0.00    -0.275 OA
BRANCH  19  20
HETATM   20  C   UNK N   1      30.967  16.742   3.171  0.00  0.00     0.288 C 
HETATM   21  O   UNK N   1      31.788  16.910   2.283  0.00  0.00    -0.260 OA
BRANCH  20  22
HETATM   22  C   UNK N   1      29.885  15.758   2.976  0.00  0.00     0.089 C 
HETATM   23  C   UNK N   1      30.153  14.447   3.024  0.00  0.00     0.087 C 
BRANCH  23  24
HETATM   24  C   UNK N   1      29.125  13.414   2.821  0.00  0.00     0.165 C 
HETATM   25  O   UNK N   1      28.575  13.282   1.740  0.00  0.00    -0.647 OA
BRANCH  24  26
HETATM   26  O   UNK N   1      28.793  12.603   3.844  0.00  0.00    -0.773 OA
HETATM   27  H   UNK N   1      27.893  12.490   4.078  0.00  0.00     0.167 HD
ENDBRANCH  24  26
ENDBRANCH  23  24
ENDBRANCH  20  22
ENDBRANCH  19  20
ENDBRANCH   5  19
BRANCH   1  28
HETATM   28  C   UNK N   1      26.708  19.819   4.914  0.00  0.00    -0.020 C 
HETATM   29  C   UNK N   1      26.980  20.289   3.488  0.00  0.00     0.020 C 
HETATM   30  C   UNK N   1      26.669  21.053   5.812  0.00  0.00     0.020 C 
BRANCH  28  31
HETATM   31  C   UNK N   1      25.375  19.052   4.935  0.00  0.00     0.013 C 
BRANCH  31  32
HETATM   32  C   UNK N   1      25.054  18.092   3.779  0.00  0.00     0.001 C 
BRANCH  32  33
HETATM   33  C   UNK N   1      24.942  16.614   4.134  0.00  0.00     0.000 C 
BRANCH  33  34
HETATM   34  C   UNK N   1      26.273  15.933   3.844  0.00  0.00    -0.000 C 
BRANCH  34  35
HETATM   35  C   UNK N   1      26.823  15.281   5.102  0.00  0.00    -0.005 C 
HETATM   36  C   UNK N   1      25.788  15.346   6.206  0.00  0.00     0.005 C 
ENDBRANCH  34  35
ENDBRANCH  33  34
ENDBRANCH  32  33
ENDBRANCH  31  32
ENDBRANCH  28  31
ENDBRANCH   1  28
TORSDOF 13
ENDMDL
MODEL 5
REMARK VINA RESULT:      -6.1      2.188      7.269
REMARK  13 active torsions:
REMARK  status: ('A' for Active; 'I' for Inactive)
REMARK    1  A    between atoms: C_2  and  C_3 
REMARK    2  A    between atoms: C_3  and  C_4 
REMARK    3  A    between atoms: C_4  and  C_5 
REMARK    4  A    between atoms: C_5  and  C_6 
REMARK    5  A    between atoms: C_6  and  C_7 
REMARK    6  A    between atoms: C_7  and  C_10 
REMARK    7  A    between atoms: C_12  and  O_34 
REMARK    8  A    between atoms: C_24  and  C_13 
REMARK    9  A    between atoms: C_14  and  O_16 
REMARK   10  A    between atoms: O_16  and  C_17 
REMARK   11  A    between atoms: C_17  and  C_19 
REMARK   12  A    between atoms: C_20  and  C_21 
REMARK   13  A    between atoms: C_21  and  O_23 
ROOT
HETATM    1  C   UNK N   1      28.353  22.167  -7.704  0.00  0.00    -0.045 A 
HETATM    2  C   UNK N   1      26.987  22.245  -7.416  0.00  0.00     0.045 A 
HETATM    3  C   UNK N   1      26.477  23.289  -6.649  0.00  0.00     0.075 A 
HETATM    4  C   UNK N   1      27.333  24.280  -6.117  0.00  0.00     0.014 A 
HETATM    5  C   UNK N   1      28.732  24.176  -6.351  0.00  0.00     0.089 A 
HETATM    6  C   UNK N   1      29.208  23.127  -7.156  0.00  0.00     0.046 A 
ENDROOT
BRANCH   4   7
HETATM    7  C   UNK N   1      26.705  25.443  -5.373  0.00  0.00     0.036 C 
HETATM    8  C   UNK N   1      26.846  25.463  -3.825  0.00  0.00     0.088 C 
HETATM    9  C   UNK N   1      26.354  26.795  -3.296  0.00  0.00     0.132 C 
HETATM   10  O   UNK N   1      25.983  26.904  -2.139  0.00  0.00    -0.298 OA
HETATM   11  C   UNK N   1      26.272  27.974  -4.251  0.00  0.00     0.064 C 
HETATM   12  C   UNK N   1      25.372  27.459  -5.380  0.00  0.00     0.019 C 
HETATM   13  C   UNK N   1      27.429  27.891  -5.263  0.00  0.00    -0.033 C 
HETATM   14  C   UNK N   1      26.613  26.847  -6.044  0.00  0.00     0.004 C 
HETATM   15  C   UNK N   1      28.816  27.497  -4.754  0.00  0.00     0.016 C 
HETATM   16  C   UNK N   1      27.540  29.189  -6.058  0.00  0.00     0.016 C 
ENDBRANCH   4   7
BRANCH   3  17
HETATM   17  O   UNK N   1      25.147  23.350  -6.449  0.00  0.00    -0.360 OA
HETATM   18  H   UNK N   1      24.753  24.151  -6.165  0.00  0.00     0.217 HD
ENDBRANCH   3  17
BRANCH   5  19
HETATM   19  O   UNK N   1      29.599  25.081  -5.804  0.00  0.00    -0.275 OA
BRANCH  19  20
HETATM   20  C   UNK N   1      30.934  24.886  -5.568  0.00  0.00     0.288 C 
HETATM   21  O   UNK N   1      31.777  25.216  -6.388  0.00  0.00    -0.260 OA
BRANCH  20  22
HETATM   22  C   UNK N   1      31.364  24.252  -4.308  0.00  0.00     0.089 C 
HETATM   23  C   UNK N   1      30.520  23.463  -3.630  0.00  0.00     0.087 C 
BRANCH  23  24
HETATM   24  C   UNK N   1      30.880  22.814  -2.360  0.00  0.00     0.165 C 
HETATM   25  O   UNK N   1      31.821  22.039  -2.297  0.00  0.00    -0.647 OA
BRANCH  24  26
HETATM   26  O   UNK N   1      30.162  23.085  -1.253  0.00  0.00    -0.773 OA
HETATM   27  H   UNK N   1      29.622  23.851  -1.221  0.00  0.00     0.167 HD
ENDBRANCH  24  26
ENDBRANCH  23  24
ENDBRANCH  20  22
ENDBRANCH  19  20
ENDBRANCH   5  19
BRANCH   1  28
HETATM   28  C   UNK N   1      28.864  21.089  -8.643  0.00  0.00    -0.020 C 
HETATM   29  C   UNK N   1      27.944  20.897  -9.846  0.00  0.00     0.020 C 
HETATM   30  C   UNK N   1      28.903  19.772  -7.871  0.00  0.00     0.020 C 
BRANCH  28  31
HETATM   31  C   UNK N   1      30.257  21.501  -9.147  0.00  0.00     0.013 C 
BRANCH  31  32
HETATM   32  C   UNK N   1      31.466  20.625  -8.783  0.00  0.00     0.001 C 
BRANCH  32  33
HETATM   33  C   UNK N   1      32.703  21.354  -8.269  0.00  0.00     0.000 C 
BRANCH  33  34
HETATM   34  C   UNK N   1      32.640  21.422  -6.749  0.00  0.00    -0.000 C 
BRANCH  34  35
HETATM   35  C   UNK N   1      32.241  20.074  -6.172  0.00  0.00    -0.005 C 
HETATM   36  C   UNK N   1      31.154  20.263  -5.135  0.00  0.00     0.005 C 
ENDBRANCH  34  35
ENDBRANCH  33  34
ENDBRANCH  32  33
ENDBRANCH  31  32
ENDBRANCH  28  31
ENDBRANCH   1  28
TORSDOF 13
ENDMDL
MODEL 6
REMARK VINA RESULT:      -6.1      2.135      4.971
REMARK  13 active torsions:
REMARK  status: ('A' for Active; 'I' for Inactive)
REMARK    1  A    between atoms: C_2  and  C_3 
REMARK    2  A    between atoms: C_3  and  C_4 
REMARK    3  A    between atoms: C_4  and  C_5 
REMARK    4  A    between atoms: C_5  and  C_6 
REMARK    5  A    between atoms: C_6  and  C_7 
REMARK    6  A    between atoms: C_7  and  C_10 
REMARK    7  A    between atoms: C_12  and  O_34 
REMARK    8  A    between atoms: C_24  and  C_13 
REMARK    9  A    between atoms: C_14  and  O_16 
REMARK   10  A    between atoms: O_16  and  C_17 
REMARK   11  A    between atoms: C_17  and  C_19 
REMARK   12  A    between atoms: C_20  and  C_21 
REMARK   13  A    between atoms: C_21  and  O_23 
ROOT
HETATM    1  C   UNK N   1      29.493  27.454  -4.314  0.00  0.00    -0.045 A 
HETATM    2  C   UNK N   1      29.803  27.502  -5.677  0.00  0.00     0.045 A 
HETATM    3  C   UNK N   1      29.568  26.406  -6.502  0.00  0.00     0.075 A 
HETATM    4  C   UNK N   1      29.040  25.205  -5.976  0.00  0.00     0.014 A 
HETATM    5  C   UNK N   1      28.780  25.123  -4.580  0.00  0.00     0.089 A 
HETATM    6  C   UNK N   1      28.999  26.260  -3.783  0.00  0.00     0.046 A 
ENDROOT
BRANCH   4   7
HETATM    7  C   UNK N   1      28.716  24.082  -6.943  0.00  0.00     0.036 C 
HETATM    8  C   UNK N   1      28.971  22.627  -6.461  0.00  0.00     0.088 C 
HETATM    9  C   UNK N   1      28.387  21.658  -7.469  0.00  0.00     0.132 C 
HETATM   10  O   UNK N   1      28.798  20.511  -7.537  0.00  0.00    -0.298 OA
HETATM   11  C   UNK N   1      27.326  22.160  -8.434  0.00  0.00     0.064 C 
HETATM   12  C   UNK N   1      28.007  23.342  -9.131  0.00  0.00     0.019 C 
HETATM   13  C   UNK N   1      26.448  23.206  -7.725  0.00  0.00    -0.033 C 
HETATM   14  C   UNK N   1      27.557  24.242  -7.973  0.00  0.00     0.004 C 
HETATM   15  C   UNK N   1      26.013  22.937  -6.284  0.00  0.00     0.016 C 
HETATM   16  C   UNK N   1      25.215  23.529  -8.566  0.00  0.00     0.016 C 
ENDBRANCH   4   7
BRANCH   3  17
HETATM   17  O   UNK N   1      29.830  26.524  -7.818  0.00  0.00    -0.360 OA
HETATM   18  H   UNK N   1      30.433  27.173  -8.119  0.00  0.00     0.217 HD
ENDBRANCH   3  17
BRANCH   5  19
HETATM   19  O   UNK N   1      28.324  23.960  -4.024  0.00  0.00    -0.275 OA
BRANCH  19  20
HETATM   20  C   UNK N   1      28.737  23.412  -2.839  0.00  0.00     0.288 C 
HETATM   21  O   UNK N   1      27.952  23.214  -1.924  0.00  0.00    -0.260 OA
BRANCH  20  22
HETATM   22  C   UNK N   1      30.160  23.065  -2.655  0.00  0.00     0.089 C 
HETATM   23  C   UNK N   1      30.705  22.067  -3.363  0.00  0.00     0.087 C 
BRANCH  23  24
HETATM   24  C   UNK N   1      32.111  21.660  -3.216  0.00  0.00     0.165 C 
HETATM   25  O   UNK N   1      32.864  21.655  -4.176  0.00  0.00    -0.647 OA
BRANCH  24  26
HETATM   26  O   UNK N   1      32.570  21.294  -2.004  0.00  0.00    -0.773 OA
HETATM   27  H   UNK N   1      32.704  21.940  -1.339  0.00  0.00     0.167 HD
ENDBRANCH  24  26
ENDBRANCH  23  24
ENDBRANCH  20  22
ENDBRANCH  19  20
ENDBRANCH   5  19
BRANCH   1  28
HETATM   28  C   UNK N   1      29.645  28.702  -3.463  0.00  0.00    -0.020 C 
HETATM   29  C   UNK N   1      29.936  29.938  -4.309  0.00  0.00     0.020 C 
HETATM   30  C   UNK N   1      30.828  28.491  -2.522  0.00  0.00     0.020 C 
BRANCH  28  31
HETATM   31  C   UNK N   1      28.333  28.929  -2.693  0.00  0.00     0.013 C 
BRANCH  31  32
HETATM   32  C   UNK N   1      27.472  30.155  -3.039  0.00  0.00     0.001 C 
BRANCH  32  33
HETATM   33  C   UNK N   1      26.351  29.935  -4.048  0.00  0.00     0.000 C 
BRANCH  33  34
HETATM   34  C   UNK N   1      25.958  28.464  -4.038  0.00  0.00    -0.000 C 
BRANCH  34  35
HETATM   35  C   UNK N   1      26.021  27.886  -5.442  0.00  0.00    -0.005 C 
HETATM   36  C   UNK N   1      25.372  26.519  -5.463  0.00  0.00     0.005 C 
ENDBRANCH  34  35
ENDBRANCH  33  34
ENDBRANCH  32  33
ENDBRANCH  31  32
ENDBRANCH  28  31
ENDBRANCH   1  28
TORSDOF 13
ENDMDL
MODEL 7
REMARK VINA RESULT:      -6.1      2.004      3.241
REMARK  13 active torsions:
REMARK  status: ('A' for Active; 'I' for Inactive)
REMARK    1  A    between atoms: C_2  and  C_3 
REMARK    2  A    between atoms: C_3  and  C_4 
REMARK    3  A    between atoms: C_4  and  C_5 
REMARK    4  A    between atoms: C_5  and  C_6 
REMARK    5  A    between atoms: C_6  and  C_7 
REMARK    6  A    between atoms: C_7  and  C_10 
REMARK    7  A    between atoms: C_12  and  O_34 
REMARK    8  A    between atoms: C_24  and  C_13 
REMARK    9  A    between atoms: C_14  and  O_16 
REMARK   10  A    between atoms: O_16  and  C_17 
REMARK   11  A    between atoms: C_17  and  C_19 
REMARK   12  A    between atoms: C_20  and  C_21 
REMARK   13  A    between atoms: C_21  and  O_23 
ROOT
HETATM    1  C   UNK N   1      26.906  26.127  -4.921  0.00  0.00    -0.045 A 
HETATM    2  C   UNK N   1      27.108  25.341  -3.781  0.00  0.00     0.045 A 
HETATM    3  C   UNK N   1      27.988  24.263  -3.802  0.00  0.00     0.075 A 
HETATM    4  C   UNK N   1      28.676  23.916  -4.988  0.00  0.00     0.014 A 
HETATM    5  C   UNK N   1      28.431  24.669  -6.170  0.00  0.00     0.089 A 
HETATM    6  C   UNK N   1      27.561  25.770  -6.103  0.00  0.00     0.046 A 
ENDROOT
BRANCH   4   7
HETATM    7  C   UNK N   1      29.693  22.793  -4.921  0.00  0.00     0.036 C 
HETATM    8  C   UNK N   1      29.591  21.670  -5.991  0.00  0.00     0.088 C 
HETATM    9  C   UNK N   1      30.809  20.774  -5.892  0.00  0.00     0.132 C 
HETATM   10  O   UNK N   1      30.774  19.631  -6.315  0.00  0.00    -0.298 OA
HETATM   11  C   UNK N   1      32.052  21.306  -5.198  0.00  0.00     0.064 C 
HETATM   12  C   UNK N   1      31.543  21.707  -3.809  0.00  0.00     0.019 C 
HETATM   13  C   UNK N   1      32.186  22.813  -5.480  0.00  0.00    -0.033 C 
HETATM   14  C   UNK N   1      31.132  23.067  -4.388  0.00  0.00     0.004 C 
HETATM   15  C   UNK N   1      31.903  23.319  -6.895  0.00  0.00     0.016 C 
HETATM   16  C   UNK N   1      33.554  23.323  -5.032  0.00  0.00     0.016 C 
ENDBRANCH   4   7
BRANCH   3  17
HETATM   17  O   UNK N   1      28.190  23.575  -2.664  0.00  0.00    -0.360 OA
HETATM   18  H   UNK N   1      27.530  22.993  -2.345  0.00  0.00     0.217 HD
ENDBRANCH   3  17
BRANCH   5  19
HETATM   19  O   UNK N   1      29.033  24.328  -7.350  0.00  0.00    -0.275 OA
BRANCH  19  20
HETATM   20  C   UNK N   1      28.398  24.001  -8.518  0.00  0.00     0.288 C 
HETATM   21  O   UNK N   1      28.602  24.629  -9.547  0.00  0.00    -0.260 OA
BRANCH  20  22
HETATM   22  C   UNK N   1      27.438  22.881  -8.536  0.00  0.00     0.089 C 
HETATM   23  C   UNK N   1      26.131  23.113  -8.363  0.00  0.00     0.087 C 
BRANCH  23  24
HETATM   24  C   UNK N   1      25.124  22.040  -8.353  0.00  0.00     0.165 C 
HETATM   25  O   UNK N   1      24.455  21.819  -7.357  0.00  0.00    -0.647 OA
BRANCH  24  26
HETATM   26  O   UNK N   1      24.937  21.299  -9.462  0.00  0.00    -0.773 OA
HETATM   27  H   UNK N   1      24.899  21.714 -10.301  0.00  0.00     0.167 HD
ENDBRANCH  24  26
ENDBRANCH  23  24
ENDBRANCH  20  22
ENDBRANCH  19  20
ENDBRANCH   5  19
BRANCH   1  28
HETATM   28  C   UNK N   1      26.036  27.368  -4.835  0.00  0.00    -0.020 C 
HETATM   29  C   UNK N   1      25.682  27.719  -3.393  0.00  0.00     0.020 C 
HETATM   30  C   UNK N   1      24.734  27.084  -5.579  0.00  0.00     0.020 C 
BRANCH  28  31
HETATM   31  C   UNK N   1      26.806  28.546  -5.455  0.00  0.00     0.013 C 
BRANCH  31  32
HETATM   32  C   UNK N   1      27.378  29.629  -4.526  0.00  0.00     0.001 C 
BRANCH  32  33
HETATM   33  C   UNK N   1      28.896  29.684  -4.400  0.00  0.00     0.000 C 
BRANCH  33  34
HETATM   34  C   UNK N   1      29.366  28.503  -3.560  0.00  0.00    -0.000 C 
BRANCH  34  35
HETATM   35  C   UNK N   1      30.270  27.595  -4.378  0.00  0.00    -0.005 C 
HETATM   36  C   UNK N   1      30.915  26.567  -3.473  0.00  0.00     0.005 C 
ENDBRANCH  34  35
ENDBRANCH  33  34
ENDBRANCH  32  33
ENDBRANCH  31  32
ENDBRANCH  28  31
ENDBRANCH   1  28
TORSDOF 13
ENDMDL
MODEL 8
REMARK VINA RESULT:      -6.0     12.239     14.883
REMARK  13 active torsions:
REMARK  status: ('A' for Active; 'I' for Inactive)
REMARK    1  A    between atoms: C_2  and  C_3 
REMARK    2  A    between atoms: C_3  and  C_4 
REMARK    3  A    between atoms: C_4  and  C_5 
REMARK    4  A    between atoms: C_5  and  C_6 
REMARK    5  A    between atoms: C_6  and  C_7 
REMARK    6  A    between atoms: C_7  and  C_10 
REMARK    7  A    between atoms: C_12  and  O_34 
REMARK    8  A    between atoms: C_24  and  C_13 
REMARK    9  A    between atoms: C_14  and  O_16 
REMARK   10  A    between atoms: O_16  and  C_17 
REMARK   11  A    between atoms: C_17  and  C_19 
REMARK   12  A    between atoms: C_20  and  C_21 
REMARK   13  A    between atoms: C_21  and  O_23 
ROOT
HETATM    1  C   UNK N   1      25.039  18.806   4.448  0.00  0.00    -0.045 A 
HETATM    2  C   UNK N   1      25.418  17.554   4.940  0.00  0.00     0.045 A 
HETATM    3  C   UNK N   1      24.463  16.598   5.275  0.00  0.00     0.075 A 
HETATM    4  C   UNK N   1      23.083  16.883   5.155  0.00  0.00     0.014 A 
HETATM    5  C   UNK N   1      22.685  18.176   4.715  0.00  0.00     0.089 A 
HETATM    6  C   UNK N   1      23.677  19.104   4.355  0.00  0.00     0.046 A 
ENDROOT
BRANCH   4   7
HETATM    7  C   UNK N   1      22.095  15.769   5.442  0.00  0.00     0.036 C 
HETATM    8  C   UNK N   1      22.390  14.374   4.824  0.00  0.00     0.088 C 
HETATM    9  C   UNK N   1      21.423  13.358   5.399  0.00  0.00     0.132 C 
HETATM   10  O   UNK N   1      21.179  12.326   4.798  0.00  0.00    -0.298 OA
HETATM   11  C   UNK N   1      20.718  13.681   6.705  0.00  0.00     0.064 C 
HETATM   12  C   UNK N   1      20.016  15.012   6.415  0.00  0.00     0.019 C 
HETATM   13  C   UNK N   1      21.667  14.487   7.610  0.00  0.00    -0.033 C 
HETATM   14  C   UNK N   1      21.314  15.740   6.791  0.00  0.00     0.004 C 
HETATM   15  C   UNK N   1      23.133  14.061   7.693  0.00  0.00     0.016 C 
HETATM   16  C   UNK N   1      21.098  14.593   9.024  0.00  0.00     0.016 C 
ENDBRANCH   4   7
BRANCH   3  17
HETATM   17  O   UNK N   1      24.880  15.388   5.689  0.00  0.00    -0.360 OA
HETATM   18  H   UNK N   1      24.994  14.694   5.071  0.00  0.00     0.217 HD
ENDBRANCH   3  17
BRANCH   5  19
HETATM   19  O   UNK N   1      21.360  18.510   4.642  0.00  0.00    -0.275 OA
BRANCH  19  20
HETATM   20  C   UNK N   1      20.524  18.285   3.581  0.00  0.00     0.288 C 
HETATM   21  O   UNK N   1      19.601  17.489   3.659  0.00  0.00    -0.260 OA
BRANCH  20  22
HETATM   22  C   UNK N   1      20.750  19.005   2.313  0.00  0.00     0.089 C 
HETATM   23  C   UNK N   1      20.543  20.326   2.245  0.00  0.00     0.087 C 
BRANCH  23  24
HETATM   24  C   UNK N   1      20.733  21.102   1.009  0.00  0.00     0.165 C 
HETATM   25  O   UNK N   1      21.136  20.565  -0.010  0.00  0.00    -0.647 OA
BRANCH  24  26
HETATM   26  O   UNK N   1      20.453  22.419   1.006  0.00  0.00    -0.773 OA
HETATM   27  H   UNK N   1      21.118  23.039   1.231  0.00  0.00     0.167 HD
ENDBRANCH  24  26
ENDBRANCH  23  24
ENDBRANCH  20  22
ENDBRANCH  19  20
ENDBRANCH   5  19
BRANCH   1  28
HETATM   28  C   UNK N   1      26.102  19.783   3.976  0.00  0.00    -0.020 C 
HETATM   29  C   UNK N   1      25.685  20.505   2.697  0.00  0.00     0.020 C 
HETATM   30  C   UNK N   1      27.369  18.989   3.671  0.00  0.00     0.020 C 
BRANCH  28  31
HETATM   31  C   UNK N   1      26.330  20.827   5.081  0.00  0.00     0.013 C 
BRANCH  31  32
HETATM   32  C   UNK N   1      27.540  20.667   6.014  0.00  0.00     0.001 C 
BRANCH  32  33
HETATM   33  C   UNK N   1      27.301  19.905   7.313  0.00  0.00     0.000 C 
BRANCH  33  34
HETATM   34  C   UNK N   1      28.557  19.120   7.664  0.00  0.00    -0.000 C 
BRANCH  34  35
HETATM   35  C   UNK N   1      28.589  17.801   6.911  0.00  0.00    -0.005 C 
HETATM   36  C   UNK N   1      27.681  16.800   7.593  0.00  0.00     0.005 C 
ENDBRANCH  34  35
ENDBRANCH  33  34
ENDBRANCH  32  33
ENDBRANCH  31  32
ENDBRANCH  28  31
ENDBRANCH   1  28
TORSDOF 13
ENDMDL
MODEL 9
REMARK VINA RESULT:      -6.0      2.116      7.453
REMARK  13 active torsions:
REMARK  status: ('A' for Active; 'I' for Inactive)
REMARK    1  A    between atoms: C_2  and  C_3 
REMARK    2  A    between atoms: C_3  and  C_4 
REMARK    3  A    between atoms: C_4  and  C_5 
REMARK    4  A    between atoms: C_5  and  C_6 
REMARK    5  A    between atoms: C_6  and  C_7 
REMARK    6  A    between atoms: C_7  and  C_10 
REMARK    7  A    between atoms: C_12  and  O_34 
REMARK    8  A    between atoms: C_24  and  C_13 
REMARK    9  A    between atoms: C_14  and  O_16 
REMARK   10  A    between atoms: O_16  and  C_17 
REMARK   11  A    between atoms: C_17  and  C_19 
REMARK   12  A    between atoms: C_20  and  C_21 
REMARK   13  A    between atoms: C_21  and  O_23 
ROOT
HETATM    1  C   UNK N   1      29.009  21.851  -6.587  0.00  0.00    -0.045 A 
HETATM    2  C   UNK N   1      27.807  22.243  -7.183  0.00  0.00     0.045 A 
HETATM    3  C   UNK N   1      27.103  23.348  -6.713  0.00  0.00     0.075 A 
HETATM    4  C   UNK N   1      27.571  24.082  -5.600  0.00  0.00     0.014 A 
HETATM    5  C   UNK N   1      28.760  23.656  -4.946  0.00  0.00     0.089 A 
HETATM    6  C   UNK N   1      29.461  22.555  -5.467  0.00  0.00     0.046 A 
ENDROOT
BRANCH   4   7
HETATM    7  C   UNK N   1      26.811  25.332  -5.197  0.00  0.00     0.036 C 
HETATM    8  C   UNK N   1      26.677  25.631  -3.678  0.00  0.00     0.088 C 
HETATM    9  C   UNK N   1      26.088  27.014  -3.491  0.00  0.00     0.132 C 
HETATM   10  O   UNK N   1      25.518  27.310  -2.454  0.00  0.00    -0.298 OA
HETATM   11  C   UNK N   1      26.165  28.001  -4.643  0.00  0.00     0.064 C 
HETATM   12  C   UNK N   1      25.483  27.260  -5.797  0.00  0.00     0.019 C 
HETATM   13  C   UNK N   1      27.482  27.788  -5.409  0.00  0.00    -0.033 C 
HETATM   14  C   UNK N   1      26.826  26.591  -6.117  0.00  0.00     0.004 C 
HETATM   15  C   UNK N   1      28.761  27.547  -4.607  0.00  0.00     0.016 C 
HETATM   16  C   UNK N   1      27.720  28.929  -6.395  0.00  0.00     0.016 C 
ENDBRANCH   4   7
BRANCH   3  17
HETATM   17  O   UNK N   1      25.981  23.718  -7.358  0.00  0.00    -0.360 OA
HETATM   18  H   UNK N   1      25.870  23.506  -8.263  0.00  0.00     0.217 HD
ENDBRANCH   3  17
BRANCH   5  19
HETATM   19  O   UNK N   1      29.212  24.304  -3.830  0.00  0.00    -0.275 OA
BRANCH  19  20
HETATM   20  C   UNK N   1      30.497  24.302  -3.356  0.00  0.00     0.288 C 
HETATM   21  O   UNK N   1      30.817  23.618  -2.396  0.00  0.00    -0.260 OA
BRANCH  20  22
HETATM   22  C   UNK N   1      31.514  25.150  -4.007  0.00  0.00     0.089 C 
HETATM   23  C   UNK N   1      32.434  24.600  -4.810  0.00  0.00     0.087 C 
BRANCH  23  24
HETATM   24  C   UNK N   1      33.484  25.385  -5.477  0.00  0.00     0.165 C 
HETATM   25  O   UNK N   1      34.625  25.400  -5.043  0.00  0.00    -0.647 OA
BRANCH  24  26
HETATM   26  O   UNK N   1      33.180  26.092  -6.582  0.00  0.00    -0.773 OA
HETATM   27  H   UNK N   1      33.499  25.813  -7.418  0.00  0.00     0.167 HD
ENDBRANCH  24  26
ENDBRANCH  23  24
ENDBRANCH  20  22
ENDBRANCH  19  20
ENDBRANCH   5  19
BRANCH   1  28
HETATM   28  C   UNK N   1      29.818  20.719  -7.195  0.00  0.00    -0.020 C 
HETATM   29  C   UNK N   1      30.583  21.167  -8.438  0.00  0.00     0.020 C 
HETATM   30  C   UNK N   1      28.846  19.620  -7.617  0.00  0.00     0.020 C 
BRANCH  28  31
HETATM   31  C   UNK N   1      30.827  20.222  -6.147  0.00  0.00     0.013 C 
BRANCH  31  32
HETATM   32  C   UNK N   1      32.257  19.883  -6.597  0.00  0.00     0.001 C 
BRANCH  32  33
HETATM   33  C   UNK N   1      33.389  20.532  -5.809  0.00  0.00     0.000 C 
BRANCH  33  34
HETATM   34  C   UNK N   1      32.839  21.050  -4.487  0.00  0.00    -0.000 C 
BRANCH  34  35
HETATM   35  C   UNK N   1      33.826  20.791  -3.362  0.00  0.00    -0.005 C 
HETATM   36  C   UNK N   1      35.233  21.084  -3.839  0.00  0.00     0.005 C 
ENDBRANCH  34  35
ENDBRANCH  33  34
ENDBRANCH  32  33
ENDBRANCH  31  32
ENDBRANCH  28  31
ENDBRANCH   1  28
TORSDOF 13
ENDMDL
