MODEL 1
REMARK VINA RESULT:      -7.8      0.000      0.000
REMARK  5 active torsions:
REMARK  status: ('A' for Active; 'I' for Inactive)
REMARK       I    between atoms: N_4  and  C_20 
REMARK    1  A    between atoms: N_5  and  C_19 
REMARK       I    between atoms: N_6  and  C_22 
REMARK    2  A    between atoms: N_6  and  C_30 
REMARK    3  A    between atoms: C_7  and  C_12 
REMARK    4  A    between atoms: C_12  and  C_22 
REMARK    5  A    between atoms: C_20  and  C_23 
ROOT
HETATM    1  O   UNK N   1      35.454  15.551   6.209  0.00  0.00    -0.267 OA
HETATM    2  N   UNK N   1      33.261  15.382   6.730  0.00  0.00    -0.313 N 
HETATM    3  C   UNK N   1      30.532  16.700   6.437  0.00  0.00     0.030 C 
HETATM    4  C   UNK N   1      31.256  17.204   7.672  0.00  0.00     0.011 C 
HETATM    5  C   UNK N   1      31.675  16.021   8.514  0.00  0.00     0.021 C 
HETATM    6  C   UNK N   1      31.513  16.516   5.285  0.00  0.00    -0.027 A 
HETATM    7  C   UNK N   1      32.255  14.901   7.661  0.00  0.00     0.132 C 
HETATM    8  C   UNK N   1      32.805  15.899   5.448  0.00  0.00     0.044 A 
HETATM    9  C   UNK N   1      31.155  17.024   4.023  0.00  0.00     0.010 A 
HETATM   10  C   UNK N   1      34.612  15.265   7.048  0.00  0.00     0.260 C 
HETATM   11  C   UNK N   1      33.655  15.845   4.323  0.00  0.00     0.030 A 
HETATM   12  C   UNK N   1      32.014  16.932   2.933  0.00  0.00     0.001 A 
HETATM   13  C   UNK N   1      33.263  16.345   3.084  0.00  0.00     0.002 A 
ENDROOT
BRANCH  10  14
HETATM   14  C   UNK N   1      35.108  14.885   8.432  0.00  0.00     0.054 A 
HETATM   15  C   UNK N   1      35.199  15.814   9.509  0.00  0.00     0.051 A 
HETATM   16 Cl   UNK N   1      34.845  17.528   9.329  0.00  0.00    -0.083 Cl
HETATM   17  C   UNK N   1      35.608  15.376  10.780  0.00  0.00     0.054 A 
HETATM   18  C   UNK N   1      35.912  14.025  11.016  0.00  0.00     0.031 A 
HETATM   19  C   UNK N   1      35.814  13.120   9.965  0.00  0.00     0.030 A 
HETATM   20  C   UNK N   1      35.422  13.548   8.709  0.00  0.00     0.021 A 
BRANCH  18  21
HETATM   21  N   UNK N   1      36.323  13.569  12.302  0.00  0.00    -0.381 N 
HETATM   22  C   UNK N   1      36.945  12.297  12.512  0.00  0.00     0.123 A 
HETATM   23  C   UNK N   1      37.173  12.209  14.011  0.00  0.00     0.021 A 
HETATM   24  C   UNK N   1      36.691  13.525  14.620  0.00  0.00     0.021 A 
HETATM   25  C   UNK N   1      36.129  14.357  13.486  0.00  0.00     0.123 A 
ENDBRANCH  18  21
ENDBRANCH  10  14
BRANCH   3  26
HETATM   26  C   UNK N   1      29.397  17.683   6.141  0.00  0.00     0.112 C 
BRANCH  26  27
HETATM   27  C   UNK N   1      28.106  16.992   5.807  0.00  0.00     0.218 C 
HETATM   28  O   UNK N   1      27.560  16.266   6.626  0.00  0.00    -0.274 OA
HETATM   29  N   UNK N   1      27.541  17.213   4.595  0.00  0.00    -0.357 N 
HETATM   30  H   UNK N   1      27.997  17.820   3.969  0.00  0.00     0.162 HD
BRANCH  29  31
HETATM   31  C   UNK N   1      26.301  16.600   4.177  0.00  0.00     0.076 C 
HETATM   32  C   UNK N   1      25.177  17.622   4.118  0.00  0.00     0.032 C 
HETATM   33  C   UNK N   1      26.490  16.011   2.795  0.00  0.00     0.032 C 
ENDBRANCH  29  31
ENDBRANCH  26  27
ENDBRANCH   3  26
TORSDOF 5
ENDMDL
MODEL 2
REMARK VINA RESULT:      -7.6      2.984      9.394
REMARK  5 active torsions:
REMARK  status: ('A' for Active; 'I' for Inactive)
REMARK       I    between atoms: N_4  and  C_20 
REMARK    1  A    between atoms: N_5  and  C_19 
REMARK       I    between atoms: N_6  and  C_22 
REMARK    2  A    between atoms: N_6  and  C_30 
REMARK    3  A    between atoms: C_7  and  C_12 
REMARK    4  A    between atoms: C_12  and  C_22 
REMARK    5  A    between atoms: C_20  and  C_23 
ROOT
HETATM    1  O   UNK N   1      35.676  14.967   6.994  0.00  0.00    -0.267 OA
HETATM    2  N   UNK N   1      35.897  14.811   9.238  0.00  0.00    -0.313 N 
HETATM    3  C   UNK N   1      36.726  12.984  11.528  0.00  0.00     0.030 C 
HETATM    4  C   UNK N   1      35.252  12.824  11.203  0.00  0.00     0.011 C 
HETATM    5  C   UNK N   1      34.591  14.182  11.238  0.00  0.00     0.021 C 
HETATM    6  C   UNK N   1      37.535  13.159  10.248  0.00  0.00    -0.027 A 
HETATM    7  C   UNK N   1      35.440  15.240  10.548  0.00  0.00     0.132 C 
HETATM    8  C   UNK N   1      37.118  14.022   9.171  0.00  0.00     0.044 A 
HETATM    9  C   UNK N   1      38.710  12.400  10.098  0.00  0.00     0.010 A 
HETATM   10  C   UNK N   1      35.213  15.223   8.096  0.00  0.00     0.260 C 
HETATM   11  C   UNK N   1      37.915  14.051   8.007  0.00  0.00     0.030 A 
HETATM   12  C   UNK N   1      39.480  12.475   8.942  0.00  0.00     0.001 A 
HETATM   13  C   UNK N   1      39.081  13.298   7.897  0.00  0.00     0.002 A 
ENDROOT
BRANCH  10  14
HETATM   14  C   UNK N   1      33.856  15.902   8.142  0.00  0.00     0.054 A 
HETATM   15  C   UNK N   1      33.696  17.316   8.226  0.00  0.00     0.051 A 
HETATM   16 Cl   UNK N   1      35.051  18.427   8.389  0.00  0.00    -0.083 Cl
HETATM   17  C   UNK N   1      32.408  17.878   8.201  0.00  0.00     0.054 A 
HETATM   18  C   UNK N   1      31.268  17.067   8.075  0.00  0.00     0.031 A 
HETATM   19  C   UNK N   1      31.429  15.689   7.985  0.00  0.00     0.030 A 
HETATM   20  C   UNK N   1      32.695  15.130   8.019  0.00  0.00     0.021 A 
BRANCH  18  21
HETATM   21  N   UNK N   1      29.958  17.627   8.044  0.00  0.00    -0.381 N 
HETATM   22  C   UNK N   1      29.258  17.897   6.824  0.00  0.00     0.123 A 
HETATM   23  C   UNK N   1      27.938  18.514   7.252  0.00  0.00     0.021 A 
HETATM   24  C   UNK N   1      27.918  18.526   8.780  0.00  0.00     0.021 A 
HETATM   25  C   UNK N   1      29.249  17.970   9.243  0.00  0.00     0.123 A 
ENDBRANCH  18  21
ENDBRANCH  10  14
BRANCH   3  26
HETATM   26  C   UNK N   1      37.142  11.775  12.370  0.00  0.00     0.112 C 
BRANCH  26  27
HETATM   27  C   UNK N   1      37.310  12.112  13.823  0.00  0.00     0.218 C 
HETATM   28  O   UNK N   1      37.885  11.340  14.577  0.00  0.00    -0.274 OA
HETATM   29  N   UNK N   1      36.845  13.301  14.277  0.00  0.00    -0.357 N 
HETATM   30  H   UNK N   1      36.407  13.907  13.637  0.00  0.00     0.162 HD
BRANCH  29  31
HETATM   31  C   UNK N   1      36.959  13.722  15.654  0.00  0.00     0.076 C 
HETATM   32  C   UNK N   1      37.259  15.209  15.750  0.00  0.00     0.032 C 
HETATM   33  C   UNK N   1      35.647  13.448  16.358  0.00  0.00     0.032 C 
ENDBRANCH  29  31
ENDBRANCH  26  27
ENDBRANCH   3  26
TORSDOF 5
ENDMDL
MODEL 3
REMARK VINA RESULT:      -7.6      3.085      5.215
REMARK  5 active torsions:
REMARK  status: ('A' for Active; 'I' for Inactive)
REMARK       I    between atoms: N_4  and  C_20 
REMARK    1  A    between atoms: N_5  and  C_19 
REMARK       I    between atoms: N_6  and  C_22 
REMARK    2  A    between atoms: N_6  and  C_30 
REMARK    3  A    between atoms: C_7  and  C_12 
REMARK    4  A    between atoms: C_12  and  C_22 
REMARK    5  A    between atoms: C_20  and  C_23 
ROOT
HETATM    1  O   UNK N   1      36.980  12.078  10.464  0.00  0.00    -0.267 OA
HETATM    2  N   UNK N   1      35.300  13.529  10.041  0.00  0.00    -0.313 N 
HETATM    3  C   UNK N   1      34.514  16.036   8.502  0.00  0.00     0.030 C 
HETATM    4  C   UNK N   1      35.085  16.384   9.865  0.00  0.00     0.011 C 
HETATM    5  C   UNK N   1      34.326  15.622  10.925  0.00  0.00     0.021 C 
HETATM    6  C   UNK N   1      35.280  14.870   7.889  0.00  0.00    -0.027 A 
HETATM    7  C   UNK N   1      34.088  14.175  10.516  0.00  0.00     0.132 C 
HETATM    8  C   UNK N   1      35.651  13.696   8.639  0.00  0.00     0.044 A 
HETATM    9  C   UNK N   1      35.684  14.976   6.545  0.00  0.00     0.010 A 
HETATM   10  C   UNK N   1      36.037  12.720  10.903  0.00  0.00     0.260 C 
HETATM   11  C   UNK N   1      36.418  12.712   7.981  0.00  0.00     0.030 A 
HETATM   12  C   UNK N   1      36.421  13.972   5.928  0.00  0.00     0.001 A 
HETATM   13  C   UNK N   1      36.790  12.842   6.646  0.00  0.00     0.002 A 
ENDROOT
BRANCH  10  14
HETATM   14  C   UNK N   1      35.789  12.660  12.399  0.00  0.00     0.054 A 
HETATM   15  C   UNK N   1      34.975  11.664  13.014  0.00  0.00     0.051 A 
HETATM   16 Cl   UNK N   1      34.083  10.455  12.098  0.00  0.00    -0.083 Cl
HETATM   17  C   UNK N   1      34.841  11.633  14.413  0.00  0.00     0.054 A 
HETATM   18  C   UNK N   1      35.516  12.561  15.224  0.00  0.00     0.031 A 
HETATM   19  C   UNK N   1      36.317  13.525  14.621  0.00  0.00     0.030 A 
HETATM   20  C   UNK N   1      36.443  13.566  13.243  0.00  0.00     0.021 A 
BRANCH  18  21
HETATM   21  N   UNK N   1      35.392  12.536  16.643  0.00  0.00    -0.381 N 
HETATM   22  C   UNK N   1      35.239  13.722  17.430  0.00  0.00     0.123 A 
HETATM   23  C   UNK N   1      35.185  13.239  18.869  0.00  0.00     0.021 A 
HETATM   24  C   UNK N   1      35.263  11.714  18.838  0.00  0.00     0.021 A 
HETATM   25  C   UNK N   1      35.422  11.309  17.387  0.00  0.00     0.123 A 
ENDBRANCH  18  21
ENDBRANCH  10  14
BRANCH   3  26
HETATM   26  C   UNK N   1      34.537  17.313   7.658  0.00  0.00     0.112 C 
BRANCH  26  27
HETATM   27  C   UNK N   1      33.335  17.439   6.768  0.00  0.00     0.218 C 
HETATM   28  O   UNK N   1      33.445  17.897   5.639  0.00  0.00    -0.274 OA
HETATM   29  N   UNK N   1      32.135  17.007   7.223  0.00  0.00    -0.357 N 
HETATM   30  H   UNK N   1      32.088  16.624   8.129  0.00  0.00     0.162 HD
BRANCH  29  31
HETATM   31  C   UNK N   1      30.919  17.081   6.446  0.00  0.00     0.076 C 
HETATM   32  C   UNK N   1      30.596  15.741   5.805  0.00  0.00     0.032 C 
HETATM   33  C   UNK N   1      29.777  17.466   7.362  0.00  0.00     0.032 C 
ENDBRANCH  29  31
ENDBRANCH  26  27
ENDBRANCH   3  26
TORSDOF 5
ENDMDL
MODEL 4
REMARK VINA RESULT:      -7.4      3.108      9.414
REMARK  5 active torsions:
REMARK  status: ('A' for Active; 'I' for Inactive)
REMARK       I    between atoms: N_4  and  C_20 
REMARK    1  A    between atoms: N_5  and  C_19 
REMARK       I    between atoms: N_6  and  C_22 
REMARK    2  A    between atoms: N_6  and  C_30 
REMARK    3  A    between atoms: C_7  and  C_12 
REMARK    4  A    between atoms: C_12  and  C_22 
REMARK    5  A    between atoms: C_20  and  C_23 
ROOT
HETATM    1  O   UNK N   1      36.169  14.610   6.616  0.00  0.00    -0.267 OA
HETATM    2  N   UNK N   1      36.334  14.500   8.867  0.00  0.00    -0.313 N 
HETATM    3  C   UNK N   1      37.149  12.738  11.212  0.00  0.00     0.030 C 
HETATM    4  C   UNK N   1      35.689  12.532  10.851  0.00  0.00     0.011 C 
HETATM    5  C   UNK N   1      34.990  13.871  10.844  0.00  0.00     0.021 C 
HETATM    6  C   UNK N   1      37.987  12.912   9.951  0.00  0.00    -0.027 A 
HETATM    7  C   UNK N   1      35.830  14.940  10.157  0.00  0.00     0.132 C 
HETATM    8  C   UNK N   1      37.577  13.744   8.848  0.00  0.00     0.044 A 
HETATM    9  C   UNK N   1      39.186  12.183   9.847  0.00  0.00     0.010 A 
HETATM   10  C   UNK N   1      35.670  14.873   7.700  0.00  0.00     0.260 C 
HETATM   11  C   UNK N   1      38.404  13.774   7.705  0.00  0.00     0.030 A 
HETATM   12  C   UNK N   1      39.984  12.259   8.710  0.00  0.00     0.001 A 
HETATM   13  C   UNK N   1      39.592  13.051   7.640  0.00  0.00     0.002 A 
ENDROOT
BRANCH  10  14
HETATM   14  C   UNK N   1      34.295  15.516   7.698  0.00  0.00     0.054 A 
HETATM   15  C   UNK N   1      33.086  14.767   7.794  0.00  0.00     0.051 A 
HETATM   16 Cl   UNK N   1      33.046  13.009   7.823  0.00  0.00    -0.083 Cl
HETATM   17  C   UNK N   1      31.850  15.436   7.849  0.00  0.00     0.054 A 
HETATM   18  C   UNK N   1      31.786  16.838   7.830  0.00  0.00     0.031 A 
HETATM   19  C   UNK N   1      32.968  17.565   7.746  0.00  0.00     0.030 A 
HETATM   20  C   UNK N   1      34.187  16.912   7.681  0.00  0.00     0.021 A 
BRANCH  18  21
HETATM   21  N   UNK N   1      30.540  17.526   7.891  0.00  0.00    -0.381 N 
HETATM   22  C   UNK N   1      30.124  18.282   9.035  0.00  0.00     0.123 A 
HETATM   23  C   UNK N   1      28.741  18.802   8.686  0.00  0.00     0.021 A 
HETATM   24  C   UNK N   1      28.428  18.339   7.264  0.00  0.00     0.021 A 
HETATM   25  C   UNK N   1      29.603  17.500   6.804  0.00  0.00     0.123 A 
ENDBRANCH  18  21
ENDBRANCH  10  14
BRANCH   3  26
HETATM   26  C   UNK N   1      37.573  11.556  12.087  0.00  0.00     0.112 C 
BRANCH  26  27
HETATM   27  C   UNK N   1      37.530  11.876  13.553  0.00  0.00     0.218 C 
HETATM   28  O   UNK N   1      38.053  11.129  14.368  0.00  0.00    -0.274 OA
HETATM   29  N   UNK N   1      36.931  13.024  13.955  0.00  0.00    -0.357 N 
HETATM   30  H   UNK N   1      36.540  13.612  13.269  0.00  0.00     0.162 HD
BRANCH  29  31
HETATM   31  C   UNK N   1      36.838  13.426  15.339  0.00  0.00     0.076 C 
HETATM   32  C   UNK N   1      37.169  14.900  15.506  0.00  0.00     0.032 C 
HETATM   33  C   UNK N   1      35.422  13.191  15.821  0.00  0.00     0.032 C 
ENDBRANCH  29  31
ENDBRANCH  26  27
ENDBRANCH   3  26
TORSDOF 5
ENDMDL
MODEL 5
REMARK VINA RESULT:      -7.2      2.556      4.811
REMARK  5 active torsions:
REMARK  status: ('A' for Active; 'I' for Inactive)
REMARK       I    between atoms: N_4  and  C_20 
REMARK    1  A    between atoms: N_5  and  C_19 
REMARK       I    between atoms: N_6  and  C_22 
REMARK    2  A    between atoms: N_6  and  C_30 
REMARK    3  A    between atoms: C_7  and  C_12 
REMARK    4  A    between atoms: C_12  and  C_22 
REMARK    5  A    between atoms: C_20  and  C_23 
ROOT
HETATM    1  O   UNK N   1      38.659  13.488  10.263  0.00  0.00    -0.267 OA
HETATM    2  N   UNK N   1      36.547  13.296   9.483  0.00  0.00    -0.313 N 
HETATM    3  C   UNK N   1      34.503  14.453   7.545  0.00  0.00     0.030 C 
HETATM    4  C   UNK N   1      34.429  15.140   8.897  0.00  0.00     0.011 C 
HETATM    5  C   UNK N   1      34.259  14.092   9.972  0.00  0.00     0.021 C 
HETATM    6  C   UNK N   1      35.953  14.165   7.175  0.00  0.00    -0.027 A 
HETATM    7  C   UNK N   1      35.174  12.897   9.743  0.00  0.00     0.132 C 
HETATM    8  C   UNK N   1      36.907  13.627   8.112  0.00  0.00     0.044 A 
HETATM    9  C   UNK N   1      36.383  14.493   5.876  0.00  0.00     0.010 A 
HETATM   10  C   UNK N   1      37.482  13.277  10.515  0.00  0.00     0.260 C 
HETATM   11  C   UNK N   1      38.238  13.466   7.674  0.00  0.00     0.030 A 
HETATM   12  C   UNK N   1      37.701  14.298   5.478  0.00  0.00     0.001 A 
HETATM   13  C   UNK N   1      38.628  13.788   6.376  0.00  0.00     0.002 A 
ENDROOT
BRANCH  10  14
HETATM   14  C   UNK N   1      37.102  13.097  11.974  0.00  0.00     0.054 A 
HETATM   15  C   UNK N   1      36.445  14.105  12.738  0.00  0.00     0.051 A 
HETATM   16 Cl   UNK N   1      36.091  15.708  12.106  0.00  0.00    -0.083 Cl
HETATM   17  C   UNK N   1      36.068  13.843  14.066  0.00  0.00     0.054 A 
HETATM   18  C   UNK N   1      36.312  12.591  14.654  0.00  0.00     0.031 A 
HETATM   19  C   UNK N   1      36.945  11.607  13.902  0.00  0.00     0.030 A 
HETATM   20  C   UNK N   1      37.328  11.863  12.597  0.00  0.00     0.021 A 
BRANCH  18  21
HETATM   21  N   UNK N   1      35.929  12.314  15.998  0.00  0.00    -0.381 N 
HETATM   22  C   UNK N   1      36.073  11.020  16.595  0.00  0.00     0.123 A 
HETATM   23  C   UNK N   1      35.513  11.166  17.999  0.00  0.00     0.021 A 
HETATM   24  C   UNK N   1      35.097  12.626  18.171  0.00  0.00     0.021 A 
HETATM   25  C   UNK N   1      35.359  13.319  16.849  0.00  0.00     0.123 A 
ENDBRANCH  18  21
ENDBRANCH  10  14
BRANCH   3  26
HETATM   26  C   UNK N   1      33.766  15.343   6.541  0.00  0.00     0.112 C 
BRANCH  26  27
HETATM   27  C   UNK N   1      32.279  15.338   6.746  0.00  0.00     0.218 C 
HETATM   28  O   UNK N   1      31.670  14.282   6.850  0.00  0.00    -0.274 OA
HETATM   29  N   UNK N   1      31.628  16.522   6.848  0.00  0.00    -0.357 N 
HETATM   30  H   UNK N   1      32.153  17.352   6.782  0.00  0.00     0.162 HD
BRANCH  29  31
HETATM   31  C   UNK N   1      30.201  16.627   7.049  0.00  0.00     0.076 C 
HETATM   32  C   UNK N   1      29.877  17.560   8.205  0.00  0.00     0.032 C 
HETATM   33  C   UNK N   1      29.571  17.182   5.790  0.00  0.00     0.032 C 
ENDBRANCH  29  31
ENDBRANCH  26  27
ENDBRANCH   3  26
TORSDOF 5
ENDMDL
MODEL 6
REMARK VINA RESULT:      -7.1      3.607      7.058
REMARK  5 active torsions:
REMARK  status: ('A' for Active; 'I' for Inactive)
REMARK       I    between atoms: N_4  and  C_20 
REMARK    1  A    between atoms: N_5  and  C_19 
REMARK       I    between atoms: N_6  and  C_22 
REMARK    2  A    between atoms: N_6  and  C_30 
REMARK    3  A    between atoms: C_7  and  C_12 
REMARK    4  A    between atoms: C_12  and  C_22 
REMARK    5  A    between atoms: C_20  and  C_23 
ROOT
HETATM    1  O   UNK N   1      28.183  19.733   4.925  0.00  0.00    -0.267 OA
HETATM    2  N   UNK N   1      27.175  17.779   4.402  0.00  0.00    -0.313 N 
HETATM    3  C   UNK N   1      24.566  16.217   4.542  0.00  0.00     0.030 C 
HETATM    4  C   UNK N   1      25.417  15.976   5.775  0.00  0.00     0.011 C 
HETATM    5  C   UNK N   1      26.793  15.526   5.343  0.00  0.00     0.021 C 
HETATM    6  C   UNK N   1      24.658  17.676   4.111  0.00  0.00    -0.027 A 
HETATM    7  C   UNK N   1      27.313  16.351   4.173  0.00  0.00     0.132 C 
HETATM    8  C   UNK N   1      25.904  18.400   4.062  0.00  0.00     0.044 A 
HETATM    9  C   UNK N   1      23.464  18.353   3.801  0.00  0.00     0.010 A 
HETATM   10  C   UNK N   1      28.266  18.516   4.858  0.00  0.00     0.260 C 
HETATM   11  C   UNK N   1      25.857  19.766   3.712  0.00  0.00     0.030 A 
HETATM   12  C   UNK N   1      23.464  19.696   3.439  0.00  0.00     0.001 A 
HETATM   13  C   UNK N   1      24.659  20.402   3.398  0.00  0.00     0.002 A 
ENDROOT
BRANCH  10  14
HETATM   14  C   UNK N   1      29.543  17.875   5.373  0.00  0.00     0.054 A 
HETATM   15  C   UNK N   1      29.692  17.401   6.709  0.00  0.00     0.051 A 
HETATM   16 Cl   UNK N   1      28.450  17.596   7.940  0.00  0.00    -0.083 Cl
HETATM   17  C   UNK N   1      30.882  16.761   7.096  0.00  0.00     0.054 A 
HETATM   18  C   UNK N   1      31.927  16.563   6.180  0.00  0.00     0.031 A 
HETATM   19  C   UNK N   1      31.775  17.019   4.875  0.00  0.00     0.030 A 
HETATM   20  C   UNK N   1      30.609  17.658   4.491  0.00  0.00     0.021 A 
BRANCH  18  21
HETATM   21  N   UNK N   1      33.136  15.911   6.561  0.00  0.00    -0.381 N 
HETATM   22  C   UNK N   1      33.293  15.237   7.815  0.00  0.00     0.123 A 
HETATM   23  C   UNK N   1      34.725  14.731   7.817  0.00  0.00     0.021 A 
HETATM   24  C   UNK N   1      35.343  15.114   6.473  0.00  0.00     0.021 A 
HETATM   25  C   UNK N   1      34.292  15.894   5.710  0.00  0.00     0.123 A 
ENDBRANCH  18  21
ENDBRANCH  10  14
BRANCH   3  26
HETATM   26  C   UNK N   1      23.145  15.752   4.871  0.00  0.00     0.112 C 
BRANCH  26  27
HETATM   27  C   UNK N   1      22.628  14.738   3.891  0.00  0.00     0.218 C 
HETATM   28  O   UNK N   1      21.906  13.824   4.267  0.00  0.00    -0.274 OA
HETATM   29  N   UNK N   1      22.946  14.872   2.581  0.00  0.00    -0.357 N 
HETATM   30  H   UNK N   1      23.511  15.632   2.312  0.00  0.00     0.162 HD
BRANCH  29  31
HETATM   31  C   UNK N   1      22.497  13.954   1.559  0.00  0.00     0.076 C 
HETATM   32  C   UNK N   1      21.206  14.435   0.918  0.00  0.00     0.032 C 
HETATM   33  C   UNK N   1      23.562  13.860   0.488  0.00  0.00     0.032 C 
ENDBRANCH  29  31
ENDBRANCH  26  27
ENDBRANCH   3  26
TORSDOF 5
ENDMDL
MODEL 7
REMARK VINA RESULT:      -7.1      6.739     12.648
REMARK  5 active torsions:
REMARK  status: ('A' for Active; 'I' for Inactive)
REMARK       I    between atoms: N_4  and  C_20 
REMARK    1  A    between atoms: N_5  and  C_19 
REMARK       I    between atoms: N_6  and  C_22 
REMARK    2  A    between atoms: N_6  and  C_30 
REMARK    3  A    between atoms: C_7  and  C_12 
REMARK    4  A    between atoms: C_12  and  C_22 
REMARK    5  A    between atoms: C_20  and  C_23 
ROOT
HETATM    1  O   UNK N   1      36.234  13.758  15.849  0.00  0.00    -0.267 OA
HETATM    2  N   UNK N   1      35.217  11.747  16.021  0.00  0.00    -0.313 N 
HETATM    3  C   UNK N   1      35.034   9.191  17.665  0.00  0.00     0.030 C 
HETATM    4  C   UNK N   1      36.095   9.075  16.586  0.00  0.00     0.011 C 
HETATM    5  C   UNK N   1      35.477   9.413  15.250  0.00  0.00     0.021 C 
HETATM    6  C   UNK N   1      35.044  10.590  18.271  0.00  0.00    -0.027 A 
HETATM    7  C   UNK N   1      34.574  10.636  15.341  0.00  0.00     0.132 C 
HETATM    8  C   UNK N   1      35.142  11.787  17.473  0.00  0.00     0.044 A 
HETATM    9  C   UNK N   1      35.010  10.705  19.673  0.00  0.00     0.010 A 
HETATM   10  C   UNK N   1      35.810  12.765  15.277  0.00  0.00     0.260 C 
HETATM   11  C   UNK N   1      35.210  13.023  18.150  0.00  0.00     0.030 A 
HETATM   12  C   UNK N   1      35.057  11.946  20.300  0.00  0.00     0.001 A 
HETATM   13  C   UNK N   1      35.160  13.103  19.539  0.00  0.00     0.002 A 
ENDROOT
BRANCH  10  14
HETATM   14  C   UNK N   1      36.046  12.669  13.780  0.00  0.00     0.054 A 
HETATM   15  C   UNK N   1      37.135  11.950  13.209  0.00  0.00     0.051 A 
HETATM   16 Cl   UNK N   1      38.388  11.180  14.175  0.00  0.00    -0.083 Cl
HETATM   17  C   UNK N   1      37.254  11.852  11.811  0.00  0.00     0.054 A 
HETATM   18  C   UNK N   1      36.301  12.438  10.962  0.00  0.00     0.031 A 
HETATM   19  C   UNK N   1      35.234  13.130  11.524  0.00  0.00     0.030 A 
HETATM   20  C   UNK N   1      35.118  13.239  12.899  0.00  0.00     0.021 A 
BRANCH  18  21
HETATM   21  N   UNK N   1      36.409  12.340   9.545  0.00  0.00    -0.381 N 
HETATM   22  C   UNK N   1      36.011  13.395   8.661  0.00  0.00     0.123 A 
HETATM   23  C   UNK N   1      36.259  12.856   7.263  0.00  0.00     0.021 A 
HETATM   24  C   UNK N   1      36.866  11.463   7.416  0.00  0.00     0.021 A 
HETATM   25  C   UNK N   1      36.919  11.164   8.900  0.00  0.00     0.123 A 
ENDBRANCH  18  21
ENDBRANCH  10  14
BRANCH   3  26
HETATM   26  C   UNK N   1      35.288   8.070  18.677  0.00  0.00     0.112 C 
BRANCH  26  27
HETATM   27  C   UNK N   1      34.082   7.202  18.892  0.00  0.00     0.218 C 
HETATM   28  O   UNK N   1      34.049   6.064  18.446  0.00  0.00    -0.274 OA
HETATM   29  N   UNK N   1      33.046   7.689  19.617  0.00  0.00    -0.357 N 
HETATM   30  H   UNK N   1      33.116   8.602  19.979  0.00  0.00     0.162 HD
BRANCH  29  31
HETATM   31  C   UNK N   1      31.843   6.935  19.885  0.00  0.00     0.076 C 
HETATM   32  C   UNK N   1      31.948   6.183  21.202  0.00  0.00     0.032 C 
HETATM   33  C   UNK N   1      30.675   7.894  19.969  0.00  0.00     0.032 C 
ENDBRANCH  29  31
ENDBRANCH  26  27
ENDBRANCH   3  26
TORSDOF 5
ENDMDL
MODEL 8
REMARK VINA RESULT:      -7.1      4.252      8.099
REMARK  5 active torsions:
REMARK  status: ('A' for Active; 'I' for Inactive)
REMARK       I    between atoms: N_4  and  C_20 
REMARK    1  A    between atoms: N_5  and  C_19 
REMARK       I    between atoms: N_6  and  C_22 
REMARK    2  A    between atoms: N_6  and  C_30 
REMARK    3  A    between atoms: C_7  and  C_12 
REMARK    4  A    between atoms: C_12  and  C_22 
REMARK    5  A    between atoms: C_20  and  C_23 
ROOT
HETATM    1  O   UNK N   1      26.562  18.919   5.191  0.00  0.00    -0.267 OA
HETATM    2  N   UNK N   1      25.965  16.740   5.230  0.00  0.00    -0.313 N 
HETATM    3  C   UNK N   1      23.812  14.772   6.101  0.00  0.00     0.030 C 
HETATM    4  C   UNK N   1      24.841  14.982   7.198  0.00  0.00     0.011 C 
HETATM    5  C   UNK N   1      26.219  14.723   6.635  0.00  0.00     0.021 C 
HETATM    6  C   UNK N   1      23.520  16.087   5.389  0.00  0.00    -0.027 A 
HETATM    7  C   UNK N   1      26.392  15.351   5.259  0.00  0.00     0.132 C 
HETATM    8  C   UNK N   1      24.554  17.010   4.995  0.00  0.00     0.044 A 
HETATM    9  C   UNK N   1      22.175  16.432   5.160  0.00  0.00     0.010 A 
HETATM   10  C   UNK N   1      26.909  17.758   5.346  0.00  0.00     0.260 C 
HETATM   11  C   UNK N   1      24.158  18.227   4.402  0.00  0.00     0.030 A 
HETATM   12  C   UNK N   1      21.828  17.634   4.553  0.00  0.00     0.001 A 
HETATM   13  C   UNK N   1      22.818  18.532   4.177  0.00  0.00     0.002 A 
ENDROOT
BRANCH  10  14
HETATM   14  C   UNK N   1      28.351  17.509   5.753  0.00  0.00     0.054 A 
HETATM   15  C   UNK N   1      29.363  17.115   4.830  0.00  0.00     0.051 A 
HETATM   16 Cl   UNK N   1      29.035  16.773   3.135  0.00  0.00    -0.083 Cl
HETATM   17  C   UNK N   1      30.690  16.964   5.268  0.00  0.00     0.054 A 
HETATM   18  C   UNK N   1      31.043  17.214   6.603  0.00  0.00     0.031 A 
HETATM   19  C   UNK N   1      30.055  17.607   7.499  0.00  0.00     0.030 A 
HETATM   20  C   UNK N   1      28.745  17.748   7.075  0.00  0.00     0.021 A 
BRANCH  18  21
HETATM   21  N   UNK N   1      32.386  17.069   7.057  0.00  0.00    -0.381 N 
HETATM   22  C   UNK N   1      32.954  17.896   8.079  0.00  0.00     0.123 A 
HETATM   23  C   UNK N   1      34.393  17.427   8.215  0.00  0.00     0.021 A 
HETATM   24  C   UNK N   1      34.581  16.259   7.249  0.00  0.00     0.021 A 
HETATM   25  C   UNK N   1      33.272  16.083   6.507  0.00  0.00     0.123 A 
ENDBRANCH  18  21
ENDBRANCH  10  14
BRANCH   3  26
HETATM   26  C   UNK N   1      22.584  14.124   6.747  0.00  0.00     0.112 C 
BRANCH  26  27
HETATM   27  C   UNK N   1      22.942  12.980   7.651  0.00  0.00     0.218 C 
HETATM   28  O   UNK N   1      23.367  11.932   7.186  0.00  0.00    -0.274 OA
HETATM   29  N   UNK N   1      22.818  13.142   8.991  0.00  0.00    -0.357 N 
HETATM   30  H   UNK N   1      22.494  14.007   9.330  0.00  0.00     0.162 HD
BRANCH  29  31
HETATM   31  C   UNK N   1      23.139  12.106   9.946  0.00  0.00     0.076 C 
HETATM   32  C   UNK N   1      24.544  12.283  10.497  0.00  0.00     0.032 C 
HETATM   33  C   UNK N   1      22.156  12.182  11.095  0.00  0.00     0.032 C 
ENDBRANCH  29  31
ENDBRANCH  26  27
ENDBRANCH   3  26
TORSDOF 5
ENDMDL
MODEL 9
REMARK VINA RESULT:      -7.1      4.583     10.103
REMARK  5 active torsions:
REMARK  status: ('A' for Active; 'I' for Inactive)
REMARK       I    between atoms: N_4  and  C_20 
REMARK    1  A    between atoms: N_5  and  C_19 
REMARK       I    between atoms: N_6  and  C_22 
REMARK    2  A    between atoms: N_6  and  C_30 
REMARK    3  A    between atoms: C_7  and  C_12 
REMARK    4  A    between atoms: C_12  and  C_22 
REMARK    5  A    between atoms: C_20  and  C_23 
ROOT
HETATM    1  O   UNK N   1      28.433  18.385   7.313  0.00  0.00    -0.267 OA
HETATM    2  N   UNK N   1      29.426  16.896   5.934  0.00  0.00    -0.313 N 
HETATM    3  C   UNK N   1      31.919  16.323   4.282  0.00  0.00     0.030 C 
HETATM    4  C   UNK N   1      30.883  17.077   3.469  0.00  0.00     0.011 C 
HETATM    5  C   UNK N   1      29.570  16.331   3.532  0.00  0.00     0.021 C 
HETATM    6  C   UNK N   1      31.952  16.845   5.714  0.00  0.00    -0.027 A 
HETATM    7  C   UNK N   1      29.267  15.845   4.943  0.00  0.00     0.132 C 
HETATM    8  C   UNK N   1      30.759  17.120   6.474  0.00  0.00     0.044 A 
HETATM    9  C   UNK N   1      33.206  17.119   6.290  0.00  0.00     0.010 A 
HETATM   10  C   UNK N   1      28.310  17.595   6.389  0.00  0.00     0.260 C 
HETATM   11  C   UNK N   1      30.914  17.665   7.766  0.00  0.00     0.030 A 
HETATM   12  C   UNK N   1      33.316  17.636   7.577  0.00  0.00     0.001 A 
HETATM   13  C   UNK N   1      32.171  17.911   8.313  0.00  0.00     0.002 A 
ENDROOT
BRANCH  10  14
HETATM   14  C   UNK N   1      26.945  17.497   5.731  0.00  0.00     0.054 A 
HETATM   15  C   UNK N   1      26.504  18.397   4.717  0.00  0.00     0.051 A 
HETATM   16 Cl   UNK N   1      27.450  19.783   4.187  0.00  0.00    -0.083 Cl
HETATM   17  C   UNK N   1      25.251  18.206   4.108  0.00  0.00     0.054 A 
HETATM   18  C   UNK N   1      24.429  17.127   4.470  0.00  0.00     0.031 A 
HETATM   19  C   UNK N   1      24.867  16.246   5.453  0.00  0.00     0.030 A 
HETATM   20  C   UNK N   1      26.095  16.435   6.062  0.00  0.00     0.021 A 
BRANCH  18  21
HETATM   21  N   UNK N   1      23.160  16.922   3.856  0.00  0.00    -0.381 N 
HETATM   22  C   UNK N   1      22.790  15.687   3.231  0.00  0.00     0.123 A 
HETATM   23  C   UNK N   1      21.393  15.922   2.684  0.00  0.00     0.021 A 
HETATM   24  C   UNK N   1      20.982  17.338   3.084  0.00  0.00     0.021 A 
HETATM   25  C   UNK N   1      22.160  17.951   3.812  0.00  0.00     0.123 A 
ENDBRANCH  18  21
ENDBRANCH  10  14
BRANCH   3  26
HETATM   26  C   UNK N   1      33.254  16.442   3.542  0.00  0.00     0.112 C 
BRANCH  26  27
HETATM   27  C   UNK N   1      33.859  15.106   3.222  0.00  0.00     0.218 C 
HETATM   28  O   UNK N   1      34.023  14.272   4.102  0.00  0.00    -0.274 OA
HETATM   29  N   UNK N   1      34.187  14.827   1.937  0.00  0.00    -0.357 N 
HETATM   30  H   UNK N   1      34.021  15.514   1.252  0.00  0.00     0.162 HD
BRANCH  29  31
HETATM   31  C   UNK N   1      34.771  13.572   1.524  0.00  0.00     0.076 C 
HETATM   32  C   UNK N   1      33.742  12.687   0.839  0.00  0.00     0.032 C 
HETATM   33  C   UNK N   1      35.891  13.854   0.545  0.00  0.00     0.032 C 
ENDBRANCH  29  31
ENDBRANCH  26  27
ENDBRANCH   3  26
TORSDOF 5
ENDMDL
