REMARK  32 active torsions:
REMARK  status: ('A' for Active; 'I' for Inactive)
REMARK    1  A    between atoms: C_18  and  O_2 
REMARK    2  A    between atoms: O_2  and  C_37 
REMARK    3  A    between atoms: C_21  and  O_3 
REMARK    4  A    between atoms: O_3  and  C_38 
REMARK    5  A    between atoms: C_22  and  O_4 
REMARK    6  A    between atoms: C_23  and  O_5 
REMARK    7  A    between atoms: C_31  and  O_6 
REMARK    8  A    between atoms: O_6  and  C_40 
REMARK    9  A    between atoms: C_32  and  O_8 
REMARK   10  A    between atoms: O_8  and  C_41 
REMARK   11  A    between atoms: C_43  and  O_13 
REMARK   12  A    between atoms: O_13  and  C_52 
REMARK   13  A    between atoms: C_47  and  N_16 
REMARK       I    between atoms: N_16  and  C_55 
REMARK   14  A    between atoms: C_38  and  C_42 
REMARK   15  A    between atoms: C_41  and  C_43 
REMARK   16  A    between atoms: C_43  and  C_47 
REMARK   17  A    between atoms: C_47  and  C_51 
REMARK   18  A    between atoms: C_52  and  C_56 
REMARK   19  A    between atoms: C_55  and  C_59 
REMARK   20  A    between atoms: C_56  and  C_60 
REMARK   21  A    between atoms: C_60  and  C_64 
REMARK   22  A    between atoms: C_67  and  C_69 
REMARK   23  A    between atoms: C_69  and  C_70 
REMARK   24  A    between atoms: C_71  and  C_72 
REMARK   25  A    between atoms: C_72  and  C_73 
REMARK   26  A    between atoms: C_74  and  C_75 
REMARK   27  A    between atoms: C_75  and  C_76 
REMARK   28  A    between atoms: C_77  and  C_78 
REMARK   29  A    between atoms: C_78  and  C_79 
REMARK   30  A    between atoms: C_80  and  C_81 
REMARK   31  A    between atoms: C_81  and  C_82 
REMARK   32  A    between atoms: C_83  and  C_84 
ROOT
HETATM    1  O   UNK N   1       6.578  -2.067  -0.363  0.00  0.00    -0.309 OA
ENDROOT
BRANCH   1   2
HETATM    2  C   UNK N   1       6.043  -3.073  -1.132  0.00  0.00     0.164 C 
HETATM    3  C   UNK N   1       6.392  -4.414  -0.441  0.00  0.00     0.078 C 
HETATM    4  C   UNK N   1       5.292  -4.992   0.498  0.00  0.00     0.098 C 
HETATM    5  C   UNK N   1       4.604  -6.082  -0.391  0.00  0.00     0.176 C 
HETATM    6  C   UNK N   1       4.387  -3.858   1.042  0.00  0.00     0.013 C 
HETATM    7  C   UNK N   1       3.182  -6.624   0.041  0.00  0.00     0.076 C 
HETATM    8  C   UNK N   1       3.116  -8.196  -0.006  0.00  0.00     0.125 A 
HETATM    9  C   UNK N   1       1.949  -5.879  -0.675  0.00  0.00     0.055 C 
HETATM   10  C   UNK N   1       1.760  -8.800   0.289  0.00  0.00     0.161 A 
HETATM   11  C   UNK N   1       2.932  -8.841  -1.358  0.00  0.00     0.210 A 
HETATM   12  O   UNK N   1       1.693  -9.407  -0.982  0.00  0.00    -0.380 OA
HETATM   13  C   UNK N   1       0.642  -7.775   0.508  0.00  0.00     0.068 C 
HETATM   14  C   UNK N   1       0.636  -6.733  -0.603  0.00  0.00     0.137 C 
HETATM   15  C   UNK N   1       1.581  -4.530  -0.013  0.00  0.00     0.171 C 
HETATM   16  C   UNK N   1       2.260  -5.618  -2.152  0.00  0.00     0.027 C 
HETATM   17  O   UNK N   1       0.691  -4.516   0.830  0.00  0.00    -0.294 OA
HETATM   18  C   UNK N   1       2.257  -3.199  -0.337  0.00  0.00     0.232 C 
HETATM   19  C   UNK N   1       3.745  -3.266  -0.200  0.00  0.00    -0.028 C 
HETATM   20  C   UNK N   1       4.544  -2.899  -1.237  0.00  0.00    -0.048 C 
HETATM   21  C   UNK N   1       3.973  -2.389  -2.523  0.00  0.00     0.046 C 
HETATM   22  C   UNK N   1       5.189  -2.831   1.801  0.00  0.00     0.023 C 
HETATM   23  C   UNK N   1       3.423  -4.332   2.124  0.00  0.00     0.023 C 
BRANCH   4  24
HETATM   24  O   UNK N   1       5.925  -5.608   1.587  0.00  0.00    -0.386 OA
HETATM   25  H   UNK N   1       5.774  -6.201   2.340  0.00  0.00     0.210 HD
ENDBRANCH   4  24
BRANCH   5  26
HETATM   26  O   UNK N   1       5.526  -7.100  -0.395  0.00  0.00    -0.308 OA
BRANCH  26  27
HETATM   27  C   UNK N   1       6.503  -7.367  -1.289  0.00  0.00     0.293 C 
HETATM   28  O   UNK N   1       6.397  -7.061  -2.467  0.00  0.00    -0.259 OA
BRANCH  27  29
HETATM   29  C   UNK N   1       7.690  -8.059  -0.763  0.00  0.00     0.039 A 
HETATM   30  C   UNK N   1       7.885  -8.066   0.628  0.00  0.00     0.017 A 
HETATM   31  C   UNK N   1       8.969  -8.728   1.195  0.00  0.00     0.001 A 
HETATM   32  C   UNK N   1       9.858  -9.420   0.374  0.00  0.00     0.000 A 
HETATM   33  C   UNK N   1       9.668  -9.428  -1.014  0.00  0.00     0.001 A 
HETATM   34  C   UNK N   1       8.595  -8.732  -1.588  0.00  0.00     0.017 A 
ENDBRANCH  27  29
ENDBRANCH  26  27
ENDBRANCH   5  26
BRANCH   8  35
HETATM   35  O   UNK N   1       4.046  -8.786   0.858  0.00  0.00    -0.305 OA
BRANCH  35  36
HETATM   36  C   UNK N   1       5.011  -9.725   0.629  0.00  0.00     0.255 C 
HETATM   37  O   UNK N   1       5.725 -10.068   1.556  0.00  0.00    -0.266 OA
HETATM   38  C   UNK N   1       5.248 -10.341  -0.712  0.00  0.00     0.126 C 
ENDBRANCH  35  36
ENDBRANCH   8  35
BRANCH  14  39
HETATM   39  O   UNK N   1       0.258  -7.322  -1.816  0.00  0.00    -0.394 OA
HETATM   40  H   UNK N   1      -0.226  -7.299  -2.656  0.00  0.00     0.210 HD
ENDBRANCH  14  39
BRANCH  18  41
HETATM   41  O   UNK N   1       1.793  -2.201   0.497  0.00  0.00    -0.304 OA
BRANCH  41  42
HETATM   42  C   UNK N   1       1.283  -1.035   0.035  0.00  0.00     0.255 C 
HETATM   43  O   UNK N   1       1.216  -0.810  -1.165  0.00  0.00    -0.266 OA
HETATM   44  C   UNK N   1       0.827   0.000   1.004  0.00  0.00     0.126 C 
ENDBRANCH  41  42
ENDBRANCH  18  41
ENDBRANCH   1   2
BRANCH   1  45
HETATM   45  C   UNK N   1       7.912  -1.900  -0.204  0.00  0.00     0.291 C 
HETATM   46  O   UNK N   1       8.690  -2.292  -1.064  0.00  0.00    -0.262 OA
BRANCH  45  47
HETATM   47  C   UNK N   1       8.424  -1.240   1.054  0.00  0.00     0.258 C 
BRANCH  47  48
HETATM   48  O   UNK N   1       7.441  -1.188   2.017  0.00  0.00    -0.303 OA
BRANCH  48  49
HETATM   49  C   UNK N   1       6.725  -0.061   2.289  0.00  0.00     0.260 C 
HETATM   50  O   UNK N   1       5.650  -0.165   2.857  0.00  0.00    -0.265 OA
BRANCH  49  51
HETATM   51  C   UNK N   1       7.217   1.324   1.961  0.00  0.00     0.115 C 
BRANCH  51  52
HETATM   52  C   UNK N   1       7.927   1.490   0.626  0.00  0.00     0.037 C 
BRANCH  52  53
HETATM   53  C   UNK N   1       7.100   1.116  -0.559  0.00  0.00    -0.030 C 
HETATM   54  C   UNK N   1       7.443   1.397  -1.826  0.00  0.00    -0.027 C 
BRANCH  54  55
HETATM   55  C   UNK N   1       8.648   2.162  -2.344  0.00  0.00     0.053 C 
BRANCH  55  56
HETATM   56  C   UNK N   1       9.697   2.674  -1.387  0.00  0.00    -0.027 C 
HETATM   57  C   UNK N   1       9.561   3.659  -0.478  0.00  0.00    -0.027 C 
BRANCH  57  58
HETATM   58  C   UNK N   1       8.317   4.447  -0.150  0.00  0.00     0.053 C 
BRANCH  58  59
HETATM   59  C   UNK N   1       7.325   4.552  -1.265  0.00  0.00    -0.027 C 
HETATM   60  C   UNK N   1       6.043   4.199  -1.118  0.00  0.00    -0.027 C 
BRANCH  60  61
HETATM   61  C   UNK N   1       5.473   3.719   0.182  0.00  0.00     0.053 C 
BRANCH  61  62
HETATM   62  C   UNK N   1       4.015   3.429   0.012  0.00  0.00    -0.027 C 
HETATM   63  C   UNK N   1       3.064   4.355   0.205  0.00  0.00    -0.027 C 
BRANCH  63  64
HETATM   64  C   UNK N   1       3.351   5.772   0.614  0.00  0.00     0.053 C 
BRANCH  64  65
HETATM   65  C   UNK N   1       4.063   6.520  -0.474  0.00  0.00    -0.027 C 
HETATM   66  C   UNK N   1       5.237   7.129  -0.273  0.00  0.00    -0.027 C 
BRANCH  66  67
HETATM   67  C   UNK N   1       5.916   7.150   1.066  0.00  0.00     0.053 C 
BRANCH  67  68
HETATM   68  C   UNK N   1       7.409   7.262   0.943  0.00  0.00    -0.027 C 
HETATM   69  C   UNK N   1       8.045   8.269   0.325  0.00  0.00    -0.031 C 
BRANCH  69  70
HETATM   70  C   UNK N   1       7.341   9.404  -0.359  0.00  0.00     0.022 C 
HETATM   71  C   UNK N   1       6.567  10.251   0.633  0.00  0.00     0.009 C 
ENDBRANCH  69  70
ENDBRANCH  67  68
ENDBRANCH  66  67
ENDBRANCH  64  65
ENDBRANCH  63  64
ENDBRANCH  61  62
ENDBRANCH  60  61
ENDBRANCH  58  59
ENDBRANCH  57  58
ENDBRANCH  55  56
ENDBRANCH  54  55
ENDBRANCH  52  53
ENDBRANCH  51  52
ENDBRANCH  49  51
ENDBRANCH  48  49
ENDBRANCH  47  48
BRANCH  47  72
HETATM   72  C   UNK N   1       9.791  -1.718   1.563  0.00  0.00     0.157 C 
BRANCH  72  73
HETATM   73  N   UNK N   1      10.035  -3.111   1.160  0.00  0.00    -0.345 N 
HETATM   74  C   UNK N   1      11.175  -3.594   0.576  0.00  0.00     0.252 C 
HETATM   75  O   UNK N   1      12.149  -2.883   0.398  0.00  0.00    -0.268 OA
HETATM   76  H   UNK N   1       9.310  -3.757   1.325  0.00  0.00     0.163 HD
BRANCH  74  77
HETATM   77  C   UNK N   1      11.280  -4.972   0.128  0.00  0.00     0.032 A 
HETATM   78  C   UNK N   1      12.345  -5.747   0.599  0.00  0.00     0.017 A 
HETATM   79  C   UNK N   1      12.635  -6.976   0.014  0.00  0.00     0.001 A 
HETATM   80  C   UNK N   1      11.912  -7.396  -1.101  0.00  0.00     0.000 A 
HETATM   81  C   UNK N   1      10.864  -6.610  -1.596  0.00  0.00     0.001 A 
HETATM   82  C   UNK N   1      10.539  -5.401  -0.977  0.00  0.00     0.017 A 
ENDBRANCH  74  77
ENDBRANCH  72  73
BRANCH  72  83
HETATM   83  C   UNK N   1      10.850  -0.754   1.081  0.00  0.00    -0.033 A 
HETATM   84  C   UNK N   1      10.824  -0.276  -0.240  0.00  0.00     0.009 A 
HETATM   85  C   UNK N   1      11.879   0.487  -0.737  0.00  0.00     0.001 A 
HETATM   86  C   UNK N   1      12.986   0.753   0.070  0.00  0.00     0.000 A 
HETATM   87  C   UNK N   1      13.029   0.269   1.381  0.00  0.00     0.001 A 
HETATM   88  C   UNK N   1      11.963  -0.484   1.888  0.00  0.00     0.009 A 
ENDBRANCH  72  83
ENDBRANCH  47  72
ENDBRANCH  45  47
ENDBRANCH   1  45
TORSDOF 32
