MODEL 1
REMARK VINA RESULT:      -9.4      0.000      0.000
REMARK  9 active torsions:
REMARK  status: ('A' for Active; 'I' for Inactive)
REMARK    1  A    between atoms: C_4  and  C_30 
REMARK       I    between atoms: C_10  and  N_15 
REMARK    2  A    between atoms: N_15  and  C_16 
REMARK    3  A    between atoms: C_19  and  O_22 
REMARK    4  A    between atoms: O_22  and  C_23 
REMARK    5  A    between atoms: C_23  and  C_24 
REMARK    6  A    between atoms: C_24  and  N_25 
REMARK    7  A    between atoms: C_32  and  O_37 
REMARK    8  A    between atoms: O_37  and  C_38 
REMARK    9  A    between atoms: C_38  and  C_40 
ROOT
HETATM    1  C   UNK N   1      34.923  18.650   8.305  0.00  0.00     0.050 C 
HETATM    2  C   UNK N   1      33.840  17.672   8.604  0.00  0.00    -0.032 A 
HETATM    3  C   UNK N   1      32.568  17.856   8.030  0.00  0.00     0.021 A 
HETATM    4  C   UNK N   1      31.523  16.945   8.285  0.00  0.00    -0.021 A 
HETATM    5  C   UNK N   1      31.775  15.860   9.119  0.00  0.00     0.045 A 
HETATM    6  C   UNK N   1      33.001  15.690   9.713  0.00  0.00     0.077 A 
HETATM    7  C   UNK N   1      34.055  16.587   9.475  0.00  0.00     0.083 A 
HETATM    8  N   UNK N   1      35.249  16.389  10.109  0.00  0.00    -0.188 N 
ATOM      9  HN  UNK N   1      36.029  17.025   9.945  1.00  0.00     0.184 HD
HETATM   10  C   UNK N   1      35.390  15.334  10.964  0.00  0.00     0.697 A 
HETATM   11  N   UNK N   1      34.335  14.502  11.179  0.00  0.00    -0.131 N 
ATOM     12  HN  UNK N   1      34.441  13.728  11.835  1.00  0.00     0.205 HD
HETATM   13  N   UNK N   1      33.176  14.665  10.562  0.00  0.00    -0.284 N 
ATOM     14  HN  UNK N   1      32.414  14.010  10.734  1.00  0.00     0.187 HD
HETATM   15  N   UNK N   1      36.593  15.125  11.696  0.00  0.00    -0.190 N 
HETATM   16  H   UNK N   1      37.321  15.788  11.663  0.00  0.00     0.184 HD
ENDROOT
BRANCH   4  17
HETATM   17  C   UNK N   1      30.128  17.114   7.804  0.00  0.00    -0.001 A 
HETATM   18  C   UNK N   1      29.790  16.504   6.577  0.00  0.00     0.051 A 
HETATM   19  C   UNK N   1      28.498  16.545   6.073  0.00  0.00     0.080 A 
HETATM   20  C   UNK N   1      27.496  17.148   6.847  0.00  0.00     0.039 A 
HETATM   21  C   UNK N   1      27.805  17.779   8.047  0.00  0.00     0.027 A 
HETATM   22  C   UNK N   1      29.113  17.791   8.528  0.00  0.00     0.045 A 
HETATM   23 Cl   UNK N   1      29.380  18.586  10.073  0.00  0.00    -0.083 Cl
BRANCH  19  24
HETATM   24  O   UNK N   1      28.240  15.980   4.858  0.00  0.00    -0.275 OA
BRANCH  24  25
HETATM   25  C   UNK N   1      27.968  16.653   3.700  0.00  0.00     0.298 C 
HETATM   26  O   UNK N   1      28.494  16.270   2.667  0.00  0.00    -0.259 OA
BRANCH  25  27
HETATM   27  C   UNK N   1      27.033  17.811   3.653  0.00  0.00     0.039 A 
HETATM   28  C   UNK N   1      25.653  17.588   3.570  0.00  0.00     0.017 A 
HETATM   29  C   UNK N   1      24.762  18.663   3.625  0.00  0.00     0.001 A 
HETATM   30  C   UNK N   1      25.244  19.970   3.744  0.00  0.00     0.000 A 
HETATM   31  C   UNK N   1      26.619  20.206   3.783  0.00  0.00     0.001 A 
HETATM   32  C   UNK N   1      27.508  19.133   3.735  0.00  0.00     0.017 A 
ENDBRANCH  25  27
ENDBRANCH  24  25
ENDBRANCH  19  24
ENDBRANCH   4  17
BRANCH  15  33
HETATM   33  C   UNK N   1      36.726  13.941  12.477  0.00  0.00     0.049 A 
HETATM   34  C   UNK N   1      37.254  12.774  11.912  0.00  0.00     0.033 A 
HETATM   35  C   UNK N   1      37.604  11.693  12.739  0.00  0.00     0.039 A 
HETATM   36  C   UNK N   1      37.436  11.782  14.131  0.00  0.00     0.069 A 
HETATM   37  C   UNK N   1      36.854  12.929  14.680  0.00  0.00     0.039 A 
HETATM   38  C   UNK N   1      36.505  13.992  13.863  0.00  0.00     0.033 A 
BRANCH  36  39
HETATM   39  O   UNK N   1      37.866  10.774  14.932  0.00  0.00    -0.349 OA
BRANCH  39  40
HETATM   40  C   UNK N   1      37.537   9.448  14.710  0.00  0.00     0.206 C 
BRANCH  40  41
HETATM   41  C   UNK N   1      36.560   8.966  15.779  0.00  0.00     0.299 C 
BRANCH  41  42
HETATM   42  N   UNK N   1      35.190   9.043  15.296  0.00  0.00     0.090 N 
HETATM   43  C   UNK N   1      34.593  10.268  15.810  0.00  0.00     0.272 C 
HETATM   44  C   UNK N   1      33.710  10.845  14.720  0.00  0.00     0.032 C 
HETATM   45  C   UNK N   1      34.058  10.074  13.470  0.00  0.00     0.032 C 
HETATM   46  C   UNK N   1      35.251   9.233  13.856  0.00  0.00     0.272 C 
ENDBRANCH  41  42
ENDBRANCH  40  41
ENDBRANCH  39  40
ENDBRANCH  36  39
ENDBRANCH  15  33
TORSDOF 9
ENDMDL
MODEL 2
REMARK VINA RESULT:      -9.2      2.115      2.701
REMARK  9 active torsions:
REMARK  status: ('A' for Active; 'I' for Inactive)
REMARK    1  A    between atoms: C_4  and  C_30 
REMARK       I    between atoms: C_10  and  N_15 
REMARK    2  A    between atoms: N_15  and  C_16 
REMARK    3  A    between atoms: C_19  and  O_22 
REMARK    4  A    between atoms: O_22  and  C_23 
REMARK    5  A    between atoms: C_23  and  C_24 
REMARK    6  A    between atoms: C_24  and  N_25 
REMARK    7  A    between atoms: C_32  and  O_37 
REMARK    8  A    between atoms: O_37  and  C_38 
REMARK    9  A    between atoms: C_38  and  C_40 
ROOT
HETATM    1  C   UNK N   1      34.937  18.687   8.370  0.00  0.00     0.050 C 
HETATM    2  C   UNK N   1      33.908  17.614   8.462  0.00  0.00    -0.032 A 
HETATM    3  C   UNK N   1      32.777  17.669   7.626  0.00  0.00     0.021 A 
HETATM    4  C   UNK N   1      31.789  16.666   7.682  0.00  0.00    -0.021 A 
HETATM    5  C   UNK N   1      31.954  15.619   8.583  0.00  0.00     0.045 A 
HETATM    6  C   UNK N   1      33.035  15.572   9.428  0.00  0.00     0.077 A 
HETATM    7  C   UNK N   1      34.030  16.563   9.391  0.00  0.00     0.083 A 
HETATM    8  N   UNK N   1      35.073  16.487  10.270  0.00  0.00    -0.188 N 
ATOM      9  HN  UNK N   1      35.810  17.193  10.256  1.00  0.00     0.184 HD
HETATM   10  C   UNK N   1      35.124  15.459  11.167  0.00  0.00     0.697 A 
HETATM   11  N   UNK N   1      34.127  14.532  11.179  0.00  0.00    -0.131 N 
ATOM     12  HN  UNK N   1      34.160  13.779  11.866  1.00  0.00     0.205 HD
HETATM   13  N   UNK N   1      33.117  14.578  10.327  0.00  0.00    -0.284 N 
ATOM     14  HN  UNK N   1      32.399  13.855  10.353  1.00  0.00     0.187 HD
HETATM   15  N   UNK N   1      36.156  15.374  12.144  0.00  0.00    -0.190 N 
HETATM   16  H   UNK N   1      36.811  16.102  12.245  0.00  0.00     0.184 HD
ENDROOT
BRANCH   4  17
HETATM   17  C   UNK N   1      30.519  16.696   6.911  0.00  0.00    -0.001 A 
HETATM   18  C   UNK N   1      29.605  17.727   7.212  0.00  0.00     0.051 A 
HETATM   19  C   UNK N   1      28.421  17.883   6.505  0.00  0.00     0.080 A 
HETATM   20  C   UNK N   1      28.175  17.033   5.417  0.00  0.00     0.039 A 
HETATM   21  C   UNK N   1      29.046  15.993   5.113  0.00  0.00     0.027 A 
HETATM   22  C   UNK N   1      30.207  15.797   5.858  0.00  0.00     0.045 A 
HETATM   23 Cl   UNK N   1      31.252  14.474   5.361  0.00  0.00    -0.083 Cl
BRANCH  19  24
HETATM   24  O   UNK N   1      27.551  18.868   6.872  0.00  0.00    -0.275 OA
BRANCH  24  25
HETATM   25  C   UNK N   1      27.278  20.004   6.165  0.00  0.00     0.298 C 
HETATM   26  O   UNK N   1      27.798  21.051   6.519  0.00  0.00    -0.259 OA
BRANCH  25  27
HETATM   27  C   UNK N   1      26.397  20.002   4.964  0.00  0.00     0.039 A 
HETATM   28  C   UNK N   1      25.137  19.394   5.028  0.00  0.00     0.017 A 
HETATM   29  C   UNK N   1      24.262  19.472   3.940  0.00  0.00     0.001 A 
HETATM   30  C   UNK N   1      24.647  20.143   2.776  0.00  0.00     0.000 A 
HETATM   31  C   UNK N   1      25.917  20.715   2.687  0.00  0.00     0.001 A 
HETATM   32  C   UNK N   1      26.787  20.642   3.775  0.00  0.00     0.017 A 
ENDBRANCH  25  27
ENDBRANCH  24  25
ENDBRANCH  19  24
ENDBRANCH   4  17
BRANCH  15  33
HETATM   33  C   UNK N   1      36.226  14.216  12.972  0.00  0.00     0.049 A 
HETATM   34  C   UNK N   1      36.499  12.961  12.415  0.00  0.00     0.033 A 
HETATM   35  C   UNK N   1      36.802  11.875  13.253  0.00  0.00     0.039 A 
HETATM   36  C   UNK N   1      36.843  12.045  14.647  0.00  0.00     0.069 A 
HETATM   37  C   UNK N   1      36.511  13.287  15.196  0.00  0.00     0.039 A 
HETATM   38  C   UNK N   1      36.208  14.356  14.369  0.00  0.00     0.033 A 
BRANCH  36  39
HETATM   39  O   UNK N   1      37.231  11.018  15.445  0.00  0.00    -0.349 OA
BRANCH  39  40
HETATM   40  C   UNK N   1      36.331  10.199  16.104  0.00  0.00     0.206 C 
BRANCH  40  41
HETATM   41  C   UNK N   1      36.439  10.411  17.613  0.00  0.00     0.299 C 
BRANCH  41  42
HETATM   42  N   UNK N   1      35.118  10.479  18.218  0.00  0.00     0.090 N 
HETATM   43  C   UNK N   1      34.505   9.161  18.127  0.00  0.00     0.272 C 
HETATM   44  C   UNK N   1      33.732   8.921  19.411  0.00  0.00     0.032 C 
HETATM   45  C   UNK N   1      34.171  10.014  20.355  0.00  0.00     0.032 C 
HETATM   46  C   UNK N   1      35.308  10.706  19.642  0.00  0.00     0.272 C 
ENDBRANCH  41  42
ENDBRANCH  40  41
ENDBRANCH  39  40
ENDBRANCH  36  39
ENDBRANCH  15  33
TORSDOF 9
ENDMDL
MODEL 3
REMARK VINA RESULT:      -9.0      2.167      3.392
REMARK  9 active torsions:
REMARK  status: ('A' for Active; 'I' for Inactive)
REMARK    1  A    between atoms: C_4  and  C_30 
REMARK       I    between atoms: C_10  and  N_15 
REMARK    2  A    between atoms: N_15  and  C_16 
REMARK    3  A    between atoms: C_19  and  O_22 
REMARK    4  A    between atoms: O_22  and  C_23 
REMARK    5  A    between atoms: C_23  and  C_24 
REMARK    6  A    between atoms: C_24  and  N_25 
REMARK    7  A    between atoms: C_32  and  O_37 
REMARK    8  A    between atoms: O_37  and  C_38 
REMARK    9  A    between atoms: C_38  and  C_40 
ROOT
HETATM    1  C   UNK N   1      34.923  18.665   8.327  0.00  0.00     0.050 C 
HETATM    2  C   UNK N   1      33.862  17.634   8.504  0.00  0.00    -0.032 A 
HETATM    3  C   UNK N   1      32.655  17.757   7.791  0.00  0.00     0.021 A 
HETATM    4  C   UNK N   1      31.634  16.796   7.929  0.00  0.00    -0.021 A 
HETATM    5  C   UNK N   1      31.844  15.721   8.787  0.00  0.00     0.045 A 
HETATM    6  C   UNK N   1      33.002  15.609   9.515  0.00  0.00     0.077 A 
HETATM    7  C   UNK N   1      34.031  16.558   9.395  0.00  0.00     0.083 A 
HETATM    8  N   UNK N   1      35.155  16.417  10.160  0.00  0.00    -0.188 N 
ATOM      9  HN  UNK N   1      35.917  17.091  10.083  1.00  0.00     0.184 HD
HETATM   10  C   UNK N   1      35.252  15.367  11.027  0.00  0.00     0.697 A 
HETATM   11  N   UNK N   1      34.221  14.483  11.124  0.00  0.00    -0.131 N 
ATOM     12  HN  UNK N   1      34.290  13.712  11.789  1.00  0.00     0.205 HD
HETATM   13  N   UNK N   1      33.132  14.591  10.381  0.00  0.00    -0.284 N 
ATOM     14  HN  UNK N   1      32.389  13.899  10.467  1.00  0.00     0.187 HD
HETATM   15  N   UNK N   1      36.373  15.214  11.890  0.00  0.00    -0.190 N 
HETATM   16  H   UNK N   1      37.067  15.912  11.938  0.00  0.00     0.184 HD
ENDROOT
BRANCH   4  17
HETATM   17  C   UNK N   1      30.295  16.898   7.293  0.00  0.00    -0.001 A 
HETATM   18  C   UNK N   1      30.037  16.053   6.193  0.00  0.00     0.051 A 
HETATM   19  C   UNK N   1      28.796  16.024   5.571  0.00  0.00     0.080 A 
HETATM   20  C   UNK N   1      27.761  16.802   6.106  0.00  0.00     0.039 A 
HETATM   21  C   UNK N   1      27.993  17.662   7.174  0.00  0.00     0.027 A 
HETATM   22  C   UNK N   1      29.253  17.739   7.764  0.00  0.00     0.045 A 
HETATM   23 Cl   UNK N   1      29.422  18.832   9.130  0.00  0.00    -0.083 Cl
BRANCH  19  24
HETATM   24  O   UNK N   1      28.619  15.224   4.480  0.00  0.00    -0.275 OA
BRANCH  24  25
HETATM   25  C   UNK N   1      29.212  15.386   3.260  0.00  0.00     0.298 C 
HETATM   26  O   UNK N   1      28.500  15.454   2.270  0.00  0.00    -0.259 OA
BRANCH  25  27
HETATM   27  C   UNK N   1      30.687  15.513   3.102  0.00  0.00     0.039 A 
HETATM   28  C   UNK N   1      31.275  16.783   3.054  0.00  0.00     0.017 A 
HETATM   29  C   UNK N   1      32.666  16.914   3.006  0.00  0.00     0.001 A 
HETATM   30  C   UNK N   1      33.478  15.776   2.987  0.00  0.00     0.000 A 
HETATM   31  C   UNK N   1      32.900  14.505   2.990  0.00  0.00     0.001 A 
HETATM   32  C   UNK N   1      31.513  14.376   3.045  0.00  0.00     0.017 A 
ENDBRANCH  25  27
ENDBRANCH  24  25
ENDBRANCH  19  24
ENDBRANCH   4  17
BRANCH  15  33
HETATM   33  C   UNK N   1      36.476  14.035  12.684  0.00  0.00     0.049 A 
HETATM   34  C   UNK N   1      35.798  13.941  13.905  0.00  0.00     0.033 A 
HETATM   35  C   UNK N   1      35.710  12.701  14.561  0.00  0.00     0.039 A 
HETATM   36  C   UNK N   1      36.290  11.554  13.993  0.00  0.00     0.069 A 
HETATM   37  C   UNK N   1      37.014  11.671  12.802  0.00  0.00     0.039 A 
HETATM   38  C   UNK N   1      37.105  12.895  12.158  0.00  0.00     0.033 A 
BRANCH  36  39
HETATM   39  O   UNK N   1      36.117  10.344  14.581  0.00  0.00    -0.349 OA
BRANCH  39  40
HETATM   40  C   UNK N   1      35.272  10.149  15.660  0.00  0.00     0.206 C 
BRANCH  40  41
HETATM   41  C   UNK N   1      36.020   9.447  16.790  0.00  0.00     0.299 C 
BRANCH  41  42
HETATM   42  N   UNK N   1      36.475  10.409  17.782  0.00  0.00     0.090 N 
HETATM   43  C   UNK N   1      35.444  11.426  17.937  0.00  0.00     0.272 C 
HETATM   44  C   UNK N   1      35.375  11.795  19.407  0.00  0.00     0.032 C 
HETATM   45  C   UNK N   1      36.186  10.743  20.125  0.00  0.00     0.032 C 
HETATM   46  C   UNK N   1      36.516   9.721  19.063  0.00  0.00     0.272 C 
ENDBRANCH  41  42
ENDBRANCH  40  41
ENDBRANCH  39  40
ENDBRANCH  36  39
ENDBRANCH  15  33
TORSDOF 9
ENDMDL
MODEL 4
REMARK VINA RESULT:      -9.0      1.925      2.715
REMARK  9 active torsions:
REMARK  status: ('A' for Active; 'I' for Inactive)
REMARK    1  A    between atoms: C_4  and  C_30 
REMARK       I    between atoms: C_10  and  N_15 
REMARK    2  A    between atoms: N_15  and  C_16 
REMARK    3  A    between atoms: C_19  and  O_22 
REMARK    4  A    between atoms: O_22  and  C_23 
REMARK    5  A    between atoms: C_23  and  C_24 
REMARK    6  A    between atoms: C_24  and  N_25 
REMARK    7  A    between atoms: C_32  and  O_37 
REMARK    8  A    between atoms: O_37  and  C_38 
REMARK    9  A    between atoms: C_38  and  C_40 
ROOT
HETATM    1  C   UNK N   1      34.920  18.811   8.319  0.00  0.00     0.050 C 
HETATM    2  C   UNK N   1      33.859  17.777   8.474  0.00  0.00    -0.032 A 
HETATM    3  C   UNK N   1      32.675  17.886   7.722  0.00  0.00     0.021 A 
HETATM    4  C   UNK N   1      31.654  16.922   7.838  0.00  0.00    -0.021 A 
HETATM    5  C   UNK N   1      31.841  15.858   8.714  0.00  0.00     0.045 A 
HETATM    6  C   UNK N   1      32.976  15.759   9.480  0.00  0.00     0.077 A 
HETATM    7  C   UNK N   1      34.004  16.711   9.382  0.00  0.00     0.083 A 
HETATM    8  N   UNK N   1      35.104  16.583  10.183  0.00  0.00    -0.188 N 
ATOM      9  HN  UNK N   1      35.865  17.260  10.123  1.00  0.00     0.184 HD
HETATM   10  C   UNK N   1      35.177  15.543  11.064  0.00  0.00     0.697 A 
HETATM   11  N   UNK N   1      34.148  14.656  11.138  0.00  0.00    -0.131 N 
ATOM     12  HN  UNK N   1      34.200  13.893  11.814  1.00  0.00     0.205 HD
HETATM   13  N   UNK N   1      33.083  14.751  10.361  0.00  0.00    -0.284 N 
ATOM     14  HN  UNK N   1      32.340  14.056  10.431  1.00  0.00     0.187 HD
HETATM   15  N   UNK N   1      36.271  15.406  11.964  0.00  0.00    -0.190 N 
HETATM   16  H   UNK N   1      36.960  16.107  12.026  0.00  0.00     0.184 HD
ENDROOT
BRANCH   4  17
HETATM   17  C   UNK N   1      30.335  17.011   7.159  0.00  0.00    -0.001 A 
HETATM   18  C   UNK N   1      30.290  16.678   5.789  0.00  0.00     0.051 A 
HETATM   19  C   UNK N   1      29.097  16.664   5.080  0.00  0.00     0.080 A 
HETATM   20  C   UNK N   1      27.905  16.917   5.772  0.00  0.00     0.039 A 
HETATM   21  C   UNK N   1      27.921  17.272   7.116  0.00  0.00     0.027 A 
HETATM   22  C   UNK N   1      29.123  17.345   7.817  0.00  0.00     0.045 A 
HETATM   23 Cl   UNK N   1      29.020  17.768   9.520  0.00  0.00    -0.083 Cl
BRANCH  19  24
HETATM   24  O   UNK N   1      29.121  16.383   3.745  0.00  0.00    -0.275 OA
BRANCH  24  25
HETATM   25  C   UNK N   1      28.939  15.153   3.180  0.00  0.00     0.298 C 
HETATM   26  O   UNK N   1      29.903  14.411   3.075  0.00  0.00    -0.259 OA
BRANCH  25  27
HETATM   27  C   UNK N   1      27.605  14.678   2.718  0.00  0.00     0.039 A 
HETATM   28  C   UNK N   1      26.606  15.608   2.403  0.00  0.00     0.017 A 
HETATM   29  C   UNK N   1      25.385  15.179   1.875  0.00  0.00     0.001 A 
HETATM   30  C   UNK N   1      25.147  13.816   1.674  0.00  0.00     0.000 A 
HETATM   31  C   UNK N   1      26.119  12.878   2.026  0.00  0.00     0.001 A 
HETATM   32  C   UNK N   1      27.340  13.308   2.547  0.00  0.00     0.017 A 
ENDBRANCH  25  27
ENDBRANCH  24  25
ENDBRANCH  19  24
ENDBRANCH   4  17
BRANCH  15  33
HETATM   33  C   UNK N   1      36.355  14.236  12.774  0.00  0.00     0.049 A 
HETATM   34  C   UNK N   1      36.667  12.998  12.201  0.00  0.00     0.033 A 
HETATM   35  C   UNK N   1      36.981  11.904  13.026  0.00  0.00     0.039 A 
HETATM   36  C   UNK N   1      36.993  12.051  14.423  0.00  0.00     0.069 A 
HETATM   37  C   UNK N   1      36.622  13.276  14.987  0.00  0.00     0.039 A 
HETATM   38  C   UNK N   1      36.308  14.352  14.172  0.00  0.00     0.033 A 
BRANCH  36  39
HETATM   39  O   UNK N   1      37.391  11.020  15.211  0.00  0.00    -0.349 OA
BRANCH  39  40
HETATM   40  C   UNK N   1      36.667   9.847  15.334  0.00  0.00     0.206 C 
BRANCH  40  41
HETATM   41  C   UNK N   1      35.679   9.962  16.493  0.00  0.00     0.299 C 
BRANCH  41  42
HETATM   42  N   UNK N   1      36.278  10.676  17.610  0.00  0.00     0.090 N 
HETATM   43  C   UNK N   1      35.331  11.682  18.069  0.00  0.00     0.272 C 
HETATM   44  C   UNK N   1      35.414  11.739  19.583  0.00  0.00     0.032 C 
HETATM   45  C   UNK N   1      36.217  10.527  19.988  0.00  0.00     0.032 C 
HETATM   46  C   UNK N   1      36.388   9.735  18.714  0.00  0.00     0.272 C 
ENDBRANCH  41  42
ENDBRANCH  40  41
ENDBRANCH  39  40
ENDBRANCH  36  39
ENDBRANCH  15  33
TORSDOF 9
ENDMDL
MODEL 5
REMARK VINA RESULT:      -8.9      5.454      9.386
REMARK  9 active torsions:
REMARK  status: ('A' for Active; 'I' for Inactive)
REMARK    1  A    between atoms: C_4  and  C_30 
REMARK       I    between atoms: C_10  and  N_15 
REMARK    2  A    between atoms: N_15  and  C_16 
REMARK    3  A    between atoms: C_19  and  O_22 
REMARK    4  A    between atoms: O_22  and  C_23 
REMARK    5  A    between atoms: C_23  and  C_24 
REMARK    6  A    between atoms: C_24  and  N_25 
REMARK    7  A    between atoms: C_32  and  O_37 
REMARK    8  A    between atoms: O_37  and  C_38 
REMARK    9  A    between atoms: C_38  and  C_40 
ROOT
HETATM    1  C   UNK N   1      25.698  13.849   1.911  0.00  0.00     0.050 C 
HETATM    2  C   UNK N   1      25.659  14.629   3.180  0.00  0.00    -0.032 A 
HETATM    3  C   UNK N   1      24.419  14.881   3.796  0.00  0.00     0.021 A 
HETATM    4  C   UNK N   1      24.347  15.608   5.001  0.00  0.00    -0.021 A 
HETATM    5  C   UNK N   1      25.528  16.074   5.569  0.00  0.00     0.045 A 
HETATM    6  C   UNK N   1      26.740  15.866   4.959  0.00  0.00     0.077 A 
HETATM    7  C   UNK N   1      26.834  15.146   3.756  0.00  0.00     0.083 A 
HETATM    8  N   UNK N   1      28.061  14.987   3.174  0.00  0.00    -0.188 N 
ATOM      9  HN  UNK N   1      28.152  14.462   2.304  1.00  0.00     0.184 HD
HETATM   10  C   UNK N   1      29.162  15.534   3.765  0.00  0.00     0.697 A 
HETATM   11  N   UNK N   1      29.020  16.240   4.921  0.00  0.00    -0.131 N 
ATOM     12  HN  UNK N   1      29.845  16.664   5.346  1.00  0.00     0.205 HD
HETATM   13  N   UNK N   1      27.846  16.392   5.509  0.00  0.00    -0.284 N 
ATOM     14  HN  UNK N   1      27.781  16.911   6.384  1.00  0.00     0.187 HD
HETATM   15  N   UNK N   1      30.449  15.450   3.164  0.00  0.00    -0.190 N 
HETATM   16  H   UNK N   1      30.557  15.064   2.264  0.00  0.00     0.184 HD
ENDROOT
BRANCH   4  17
HETATM   17  C   UNK N   1      23.078  16.004   5.666  0.00  0.00    -0.001 A 
HETATM   18  C   UNK N   1      22.378  15.002   6.370  0.00  0.00     0.051 A 
HETATM   19  C   UNK N   1      21.219  15.283   7.080  0.00  0.00     0.080 A 
HETATM   20  C   UNK N   1      20.786  16.614   7.154  0.00  0.00     0.039 A 
HETATM   21  C   UNK N   1      21.442  17.618   6.451  0.00  0.00     0.027 A 
HETATM   22  C   UNK N   1      22.572  17.330   5.688  0.00  0.00     0.045 A 
HETATM   23 Cl   UNK N   1      23.341  18.683   4.871  0.00  0.00    -0.083 Cl
BRANCH  19  24
HETATM   24  O   UNK N   1      20.557  14.265   7.701  0.00  0.00    -0.275 OA
BRANCH  24  25
HETATM   25  C   UNK N   1      20.389  14.118   9.049  0.00  0.00     0.298 C 
HETATM   26  O   UNK N   1      19.383  14.578   9.565  0.00  0.00    -0.259 OA
BRANCH  25  27
HETATM   27  C   UNK N   1      21.374  13.394   9.900  0.00  0.00     0.039 A 
HETATM   28  C   UNK N   1      20.925  12.618  10.975  0.00  0.00     0.017 A 
HETATM   29  C   UNK N   1      21.830  11.855  11.720  0.00  0.00     0.001 A 
HETATM   30  C   UNK N   1      23.191  11.877  11.404  0.00  0.00     0.000 A 
HETATM   31  C   UNK N   1      23.655  12.681  10.362  0.00  0.00     0.001 A 
HETATM   32  C   UNK N   1      22.750  13.436   9.616  0.00  0.00     0.017 A 
ENDBRANCH  25  27
ENDBRANCH  24  25
ENDBRANCH  19  24
ENDBRANCH   4  17
BRANCH  15  33
HETATM   33  C   UNK N   1      31.580  15.931   3.885  0.00  0.00     0.049 A 
HETATM   34  C   UNK N   1      32.027  17.246   3.708  0.00  0.00     0.033 A 
HETATM   35  C   UNK N   1      32.981  17.784   4.587  0.00  0.00     0.039 A 
HETATM   36  C   UNK N   1      33.482  17.013   5.650  0.00  0.00     0.069 A 
HETATM   37  C   UNK N   1      33.072  15.682   5.783  0.00  0.00     0.039 A 
HETATM   38  C   UNK N   1      32.135  15.151   4.912  0.00  0.00     0.033 A 
BRANCH  36  39
HETATM   39  O   UNK N   1      34.328  17.569   6.553  0.00  0.00    -0.349 OA
BRANCH  39  40
HETATM   40  C   UNK N   1      33.889  18.176   7.717  0.00  0.00     0.206 C 
BRANCH  40  41
HETATM   41  C   UNK N   1      33.780  17.143   8.836  0.00  0.00     0.299 C 
BRANCH  41  42
HETATM   42  N   UNK N   1      35.088  16.594   9.158  0.00  0.00     0.090 N 
HETATM   43  C   UNK N   1      35.328  16.790  10.581  0.00  0.00     0.272 C 
HETATM   44  C   UNK N   1      36.045  15.558  11.103  0.00  0.00     0.032 C 
HETATM   45  C   UNK N   1      35.936  14.532  10.001  0.00  0.00     0.032 C 
HETATM   46  C   UNK N   1      35.003  15.152   8.989  0.00  0.00     0.272 C 
ENDBRANCH  41  42
ENDBRANCH  40  41
ENDBRANCH  39  40
ENDBRANCH  36  39
ENDBRANCH  15  33
TORSDOF 9
ENDMDL
MODEL 6
REMARK VINA RESULT:      -8.8      4.423     13.478
REMARK  9 active torsions:
REMARK  status: ('A' for Active; 'I' for Inactive)
REMARK    1  A    between atoms: C_4  and  C_30 
REMARK       I    between atoms: C_10  and  N_15 
REMARK    2  A    between atoms: N_15  and  C_16 
REMARK    3  A    between atoms: C_19  and  O_22 
REMARK    4  A    between atoms: O_22  and  C_23 
REMARK    5  A    between atoms: C_23  and  C_24 
REMARK    6  A    between atoms: C_24  and  N_25 
REMARK    7  A    between atoms: C_32  and  O_37 
REMARK    8  A    between atoms: O_37  and  C_38 
REMARK    9  A    between atoms: C_38  and  C_40 
ROOT
HETATM    1  C   UNK N   1      32.994  16.277   3.535  0.00  0.00     0.050 C 
HETATM    2  C   UNK N   1      32.502  16.544   4.915  0.00  0.00    -0.032 A 
HETATM    3  C   UNK N   1      33.357  16.312   6.009  0.00  0.00     0.021 A 
HETATM    4  C   UNK N   1      32.927  16.562   7.327  0.00  0.00    -0.021 A 
HETATM    5  C   UNK N   1      31.636  17.042   7.526  0.00  0.00     0.045 A 
HETATM    6  C   UNK N   1      30.780  17.238   6.470  0.00  0.00     0.077 A 
HETATM    7  C   UNK N   1      31.188  16.992   5.148  0.00  0.00     0.083 A 
HETATM    8  N   UNK N   1      30.292  17.178   4.133  0.00  0.00    -0.188 N 
ATOM      9  HN  UNK N   1      30.570  17.012   3.166  1.00  0.00     0.184 HD
HETATM   10  C   UNK N   1      29.023  17.589   4.423  0.00  0.00     0.697 A 
HETATM   11  N   UNK N   1      28.667  17.796   5.720  0.00  0.00    -0.131 N 
ATOM     12  HN  UNK N   1      27.710  18.082   5.931  1.00  0.00     0.205 HD
HETATM   13  N   UNK N   1      29.523  17.638   6.716  0.00  0.00    -0.284 N 
ATOM     14  HN  UNK N   1      29.225  17.821   7.674  1.00  0.00     0.187 HD
HETATM   15  N   UNK N   1      28.038  17.733   3.406  0.00  0.00    -0.190 N 
HETATM   16  H   UNK N   1      28.229  17.459   2.480  0.00  0.00     0.184 HD
ENDROOT
BRANCH   4  17
HETATM   17  C   UNK N   1      33.724  16.254   8.542  0.00  0.00    -0.001 A 
HETATM   18  C   UNK N   1      33.603  14.956   9.082  0.00  0.00     0.051 A 
HETATM   19  C   UNK N   1      34.354  14.547  10.175  0.00  0.00     0.080 A 
HETATM   20  C   UNK N   1      35.308  15.431  10.700  0.00  0.00     0.039 A 
HETATM   21  C   UNK N   1      35.431  16.724  10.205  0.00  0.00     0.027 A 
HETATM   22  C   UNK N   1      34.636  17.158   9.145  0.00  0.00     0.045 A 
HETATM   23 Cl   UNK N   1      34.904  18.800   8.577  0.00  0.00    -0.083 Cl
BRANCH  19  24
HETATM   24  O   UNK N   1      34.160  13.297  10.685  0.00  0.00    -0.275 OA
BRANCH  24  25
HETATM   25  C   UNK N   1      35.068  12.571  11.403  0.00  0.00     0.298 C 
HETATM   26  O   UNK N   1      36.046  12.125  10.824  0.00  0.00    -0.259 OA
BRANCH  25  27
HETATM   27  C   UNK N   1      34.920  12.335  12.866  0.00  0.00     0.039 A 
HETATM   28  C   UNK N   1      35.491  13.233  13.776  0.00  0.00     0.017 A 
HETATM   29  C   UNK N   1      35.276  13.077  15.149  0.00  0.00     0.001 A 
HETATM   30  C   UNK N   1      34.504  12.012  15.621  0.00  0.00     0.000 A 
HETATM   31  C   UNK N   1      33.967  11.086  14.725  0.00  0.00     0.001 A 
HETATM   32  C   UNK N   1      34.177  11.247  13.356  0.00  0.00     0.017 A 
ENDBRANCH  25  27
ENDBRANCH  24  25
ENDBRANCH  19  24
ENDBRANCH   4  17
BRANCH  15  33
HETATM   33  C   UNK N   1      26.768  18.282   3.751  0.00  0.00     0.049 A 
HETATM   34  C   UNK N   1      26.582  19.669   3.792  0.00  0.00     0.033 A 
HETATM   35  C   UNK N   1      25.285  20.198   3.895  0.00  0.00     0.039 A 
HETATM   36  C   UNK N   1      24.172  19.341   3.947  0.00  0.00     0.069 A 
HETATM   37  C   UNK N   1      24.372  17.957   3.964  0.00  0.00     0.039 A 
HETATM   38  C   UNK N   1      25.653  17.437   3.867  0.00  0.00     0.033 A 
BRANCH  36  39
HETATM   39  O   UNK N   1      22.917  19.858   3.947  0.00  0.00    -0.349 OA
BRANCH  39  40
HETATM   40  C   UNK N   1      22.005  19.613   2.935  0.00  0.00     0.206 C 
BRANCH  40  41
HETATM   41  C   UNK N   1      20.585  19.623   3.497  0.00  0.00     0.299 C 
BRANCH  41  42
HETATM   42  N   UNK N   1      19.878  18.407   3.128  0.00  0.00     0.090 N 
HETATM   43  C   UNK N   1      20.174  18.113   1.733  0.00  0.00     0.272 C 
HETATM   44  C   UNK N   1      20.313  16.608   1.596  0.00  0.00     0.032 C 
HETATM   45  C   UNK N   1      20.386  16.081   3.009  0.00  0.00     0.032 C 
HETATM   46  C   UNK N   1      20.480  17.314   3.875  0.00  0.00     0.272 C 
ENDBRANCH  41  42
ENDBRANCH  40  41
ENDBRANCH  39  40
ENDBRANCH  36  39
ENDBRANCH  15  33
TORSDOF 9
ENDMDL
MODEL 7
REMARK VINA RESULT:      -8.8      4.709      7.656
REMARK  9 active torsions:
REMARK  status: ('A' for Active; 'I' for Inactive)
REMARK    1  A    between atoms: C_4  and  C_30 
REMARK       I    between atoms: C_10  and  N_15 
REMARK    2  A    between atoms: N_15  and  C_16 
REMARK    3  A    between atoms: C_19  and  O_22 
REMARK    4  A    between atoms: O_22  and  C_23 
REMARK    5  A    between atoms: C_23  and  C_24 
REMARK    6  A    between atoms: C_24  and  N_25 
REMARK    7  A    between atoms: C_32  and  O_37 
REMARK    8  A    between atoms: O_37  and  C_38 
REMARK    9  A    between atoms: C_38  and  C_40 
ROOT
HETATM    1  C   UNK N   1      28.145  15.376   2.491  0.00  0.00     0.050 C 
HETATM    2  C   UNK N   1      27.568  15.786   3.801  0.00  0.00    -0.032 A 
HETATM    3  C   UNK N   1      26.171  15.876   3.942  0.00  0.00     0.021 A 
HETATM    4  C   UNK N   1      25.592  16.253   5.170  0.00  0.00    -0.021 A 
HETATM    5  C   UNK N   1      26.431  16.536   6.243  0.00  0.00     0.045 A 
HETATM    6  C   UNK N   1      27.797  16.486   6.108  0.00  0.00     0.077 A 
HETATM    7  C   UNK N   1      28.395  16.116   4.892  0.00  0.00     0.083 A 
HETATM    8  N   UNK N   1      29.758  16.106   4.801  0.00  0.00    -0.188 N 
ATOM      9  HN  UNK N   1      30.213  15.834   3.929  1.00  0.00     0.184 HD
HETATM   10  C   UNK N   1      30.508  16.461   5.884  0.00  0.00     0.697 A 
HETATM   11  N   UNK N   1      29.885  16.831   7.037  0.00  0.00    -0.131 N 
ATOM     12  HN  UNK N   1      30.451  17.116   7.836  1.00  0.00     0.205 HD
HETATM   13  N   UNK N   1      28.567  16.832   7.152  0.00  0.00    -0.284 N 
ATOM     14  HN  UNK N   1      28.136  17.097   8.037  1.00  0.00     0.187 HD
HETATM   15  N   UNK N   1      31.928  16.528   5.818  0.00  0.00    -0.190 N 
HETATM   16  H   UNK N   1      32.396  16.398   4.961  0.00  0.00     0.184 HD
ENDROOT
BRANCH   4  17
HETATM   17  C   UNK N   1      24.137  16.469   5.380  0.00  0.00    -0.001 A 
HETATM   18  C   UNK N   1      23.392  15.388   5.896  0.00  0.00     0.051 A 
HETATM   19  C   UNK N   1      22.040  15.508   6.191  0.00  0.00     0.080 A 
HETATM   20  C   UNK N   1      21.430  16.761   6.036  0.00  0.00     0.039 A 
HETATM   21  C   UNK N   1      22.134  17.836   5.505  0.00  0.00     0.027 A 
HETATM   22  C   UNK N   1      23.475  17.704   5.153  0.00  0.00     0.045 A 
HETATM   23 Cl   UNK N   1      24.274  19.139   4.526  0.00  0.00    -0.083 Cl
BRANCH  19  24
HETATM   24  O   UNK N   1      21.359  14.416   6.642  0.00  0.00    -0.275 OA
BRANCH  24  25
HETATM   25  C   UNK N   1      20.923  14.212   7.920  0.00  0.00     0.298 C 
HETATM   26  O   UNK N   1      19.944  14.830   8.308  0.00  0.00    -0.259 OA
BRANCH  25  27
HETATM   27  C   UNK N   1      21.581  13.244   8.842  0.00  0.00     0.039 A 
HETATM   28  C   UNK N   1      22.684  12.503   8.399  0.00  0.00     0.017 A 
HETATM   29  C   UNK N   1      23.370  11.666   9.284  0.00  0.00     0.001 A 
HETATM   30  C   UNK N   1      22.947  11.550  10.611  0.00  0.00     0.000 A 
HETATM   31  C   UNK N   1      21.823  12.250  11.050  0.00  0.00     0.001 A 
HETATM   32  C   UNK N   1      21.143  13.090  10.169  0.00  0.00     0.017 A 
ENDBRANCH  25  27
ENDBRANCH  24  25
ENDBRANCH  19  24
ENDBRANCH   4  17
BRANCH  15  33
HETATM   33  C   UNK N   1      32.663  16.785   7.011  0.00  0.00     0.049 A 
HETATM   34  C   UNK N   1      32.757  15.809   8.010  0.00  0.00     0.033 A 
HETATM   35  C   UNK N   1      33.670  15.974   9.066  0.00  0.00     0.039 A 
HETATM   36  C   UNK N   1      34.496  17.109   9.118  0.00  0.00     0.069 A 
HETATM   37  C   UNK N   1      34.353  18.106   8.147  0.00  0.00     0.039 A 
HETATM   38  C   UNK N   1      33.449  17.944   7.110  0.00  0.00     0.033 A 
BRANCH  36  39
HETATM   39  O   UNK N   1      35.443  17.216  10.084  0.00  0.00    -0.349 OA
BRANCH  39  40
HETATM   40  C   UNK N   1      35.398  16.487  11.260  0.00  0.00     0.206 C 
BRANCH  40  41
HETATM   41  C   UNK N   1      36.409  15.344  11.206  0.00  0.00     0.299 C 
BRANCH  41  42
HETATM   42  N   UNK N   1      35.952  14.215  12.001  0.00  0.00     0.090 N 
HETATM   43  C   UNK N   1      36.804  13.072  11.703  0.00  0.00     0.272 C 
HETATM   44  C   UNK N   1      37.031  12.314  12.998  0.00  0.00     0.032 C 
HETATM   45  C   UNK N   1      36.532  13.227  14.092  0.00  0.00     0.032 C 
HETATM   46  C   UNK N   1      36.225  14.531  13.394  0.00  0.00     0.272 C 
ENDBRANCH  41  42
ENDBRANCH  40  41
ENDBRANCH  39  40
ENDBRANCH  36  39
ENDBRANCH  15  33
TORSDOF 9
ENDMDL
MODEL 8
REMARK VINA RESULT:      -8.8      5.078     13.618
REMARK  9 active torsions:
REMARK  status: ('A' for Active; 'I' for Inactive)
REMARK    1  A    between atoms: C_4  and  C_30 
REMARK       I    between atoms: C_10  and  N_15 
REMARK    2  A    between atoms: N_15  and  C_16 
REMARK    3  A    between atoms: C_19  and  O_22 
REMARK    4  A    between atoms: O_22  and  C_23 
REMARK    5  A    between atoms: C_23  and  C_24 
REMARK    6  A    between atoms: C_24  and  N_25 
REMARK    7  A    between atoms: C_32  and  O_37 
REMARK    8  A    between atoms: O_37  and  C_38 
REMARK    9  A    between atoms: C_38  and  C_40 
ROOT
HETATM    1  C   UNK N   1      35.413  13.876  18.107  0.00  0.00     0.050 C 
HETATM    2  C   UNK N   1      35.268  12.571  17.403  0.00  0.00    -0.032 A 
HETATM    3  C   UNK N   1      35.146  11.390  18.159  0.00  0.00     0.021 A 
HETATM    4  C   UNK N   1      35.000  10.140  17.526  0.00  0.00    -0.021 A 
HETATM    5  C   UNK N   1      34.979  10.097  16.135  0.00  0.00     0.045 A 
HETATM    6  C   UNK N   1      35.133  11.237  15.386  0.00  0.00     0.077 A 
HETATM    7  C   UNK N   1      35.284  12.493  15.998  0.00  0.00     0.083 A 
HETATM    8  N   UNK N   1      35.459  13.596  15.210  0.00  0.00    -0.188 N 
ATOM      9  HN  UNK N   1      35.564  14.519  15.633  1.00  0.00     0.184 HD
HETATM   10  C   UNK N   1      35.492  13.456  13.853  0.00  0.00     0.697 A 
HETATM   11  N   UNK N   1      35.361  12.216  13.306  0.00  0.00    -0.131 N 
ATOM     12  HN  UNK N   1      35.409  12.115  12.291  1.00  0.00     0.205 HD
HETATM   13  N   UNK N   1      35.174  11.138  14.048  0.00  0.00    -0.284 N 
ATOM     14  HN  UNK N   1      35.061  10.228  13.602  1.00  0.00     0.187 HD
HETATM   15  N   UNK N   1      35.737  14.565  12.995  0.00  0.00    -0.190 N 
HETATM   16  H   UNK N   1      35.970  15.445  13.369  0.00  0.00     0.184 HD
ENDROOT
BRANCH   4  17
HETATM   17  C   UNK N   1      34.964   8.838  18.240  0.00  0.00    -0.001 A 
HETATM   18  C   UNK N   1      33.757   8.485  18.880  0.00  0.00     0.051 A 
HETATM   19  C   UNK N   1      33.599   7.262  19.517  0.00  0.00     0.080 A 
HETATM   20  C   UNK N   1      34.647   6.333  19.451  0.00  0.00     0.039 A 
HETATM   21  C   UNK N   1      35.856   6.663  18.849  0.00  0.00     0.027 A 
HETATM   22  C   UNK N   1      36.040   7.912  18.260  0.00  0.00     0.045 A 
HETATM   23 Cl   UNK N   1      37.596   8.205  17.496  0.00  0.00    -0.083 Cl
BRANCH  19  24
HETATM   24  O   UNK N   1      32.427   6.996  20.162  0.00  0.00    -0.275 OA
BRANCH  24  25
HETATM   25  C   UNK N   1      31.580   7.920  20.705  0.00  0.00     0.298 C 
HETATM   26  O   UNK N   1      30.484   8.079  20.192  0.00  0.00    -0.259 OA
BRANCH  25  27
HETATM   27  C   UNK N   1      31.937   8.714  21.914  0.00  0.00     0.039 A 
HETATM   28  C   UNK N   1      31.941   8.100  23.172  0.00  0.00     0.017 A 
HETATM   29  C   UNK N   1      32.369   8.807  24.299  0.00  0.00     0.001 A 
HETATM   30  C   UNK N   1      32.779  10.139  24.179  0.00  0.00     0.000 A 
HETATM   31  C   UNK N   1      32.736  10.773  22.936  0.00  0.00     0.001 A 
HETATM   32  C   UNK N   1      32.315  10.064  21.811  0.00  0.00     0.017 A 
ENDBRANCH  25  27
ENDBRANCH  24  25
ENDBRANCH  19  24
ENDBRANCH   4  17
BRANCH  15  33
HETATM   33  C   UNK N   1      35.638  14.380  11.585  0.00  0.00     0.049 A 
HETATM   34  C   UNK N   1      34.430  14.625  10.921  0.00  0.00     0.033 A 
HETATM   35  C   UNK N   1      34.402  14.673   9.517  0.00  0.00     0.039 A 
HETATM   36  C   UNK N   1      35.582  14.488   8.777  0.00  0.00     0.069 A 
HETATM   37  C   UNK N   1      36.772  14.187   9.448  0.00  0.00     0.039 A 
HETATM   38  C   UNK N   1      36.797  14.135  10.832  0.00  0.00     0.033 A 
BRANCH  36  39
HETATM   39  O   UNK N   1      35.567  14.634   7.428  0.00  0.00    -0.349 OA
BRANCH  39  40
HETATM   40  C   UNK N   1      34.406  14.875   6.713  0.00  0.00     0.206 C 
BRANCH  40  41
HETATM   41  C   UNK N   1      34.508  16.214   5.987  0.00  0.00     0.299 C 
BRANCH  41  42
HETATM   42  N   UNK N   1      33.396  17.081   6.348  0.00  0.00     0.090 N 
HETATM   43  C   UNK N   1      32.344  16.257   6.926  0.00  0.00     0.272 C 
HETATM   44  C   UNK N   1      31.720  17.036   8.068  0.00  0.00     0.032 C 
HETATM   45  C   UNK N   1      32.648  18.201   8.314  0.00  0.00     0.032 C 
HETATM   46  C   UNK N   1      33.848  17.928   7.440  0.00  0.00     0.272 C 
ENDBRANCH  41  42
ENDBRANCH  40  41
ENDBRANCH  39  40
ENDBRANCH  36  39
ENDBRANCH  15  33
TORSDOF 9
ENDMDL
MODEL 9
REMARK VINA RESULT:      -8.6      3.595      5.279
REMARK  9 active torsions:
REMARK  status: ('A' for Active; 'I' for Inactive)
REMARK    1  A    between atoms: C_4  and  C_30 
REMARK       I    between atoms: C_10  and  N_15 
REMARK    2  A    between atoms: N_15  and  C_16 
REMARK    3  A    between atoms: C_19  and  O_22 
REMARK    4  A    between atoms: O_22  and  C_23 
REMARK    5  A    between atoms: C_23  and  C_24 
REMARK    6  A    between atoms: C_24  and  N_25 
REMARK    7  A    between atoms: C_32  and  O_37 
REMARK    8  A    between atoms: O_37  and  C_38 
REMARK    9  A    between atoms: C_38  and  C_40 
ROOT
HETATM    1  C   UNK N   1      38.707  14.025   9.592  0.00  0.00     0.050 C 
HETATM    2  C   UNK N   1      37.236  13.793   9.623  0.00  0.00    -0.032 A 
HETATM    3  C   UNK N   1      36.489  13.945   8.440  0.00  0.00     0.021 A 
HETATM    4  C   UNK N   1      35.097  13.727   8.433  0.00  0.00    -0.021 A 
HETATM    5  C   UNK N   1      34.475  13.358   9.621  0.00  0.00     0.045 A 
HETATM    6  C   UNK N   1      35.187  13.241  10.789  0.00  0.00     0.077 A 
HETATM    7  C   UNK N   1      36.575  13.458  10.820  0.00  0.00     0.083 A 
HETATM    8  N   UNK N   1      37.235  13.354  12.012  0.00  0.00    -0.188 N 
ATOM      9  HN  UNK N   1      38.244  13.501  12.054  1.00  0.00     0.184 HD
HETATM   10  C   UNK N   1      36.536  13.052  13.144  0.00  0.00     0.697 A 
HETATM   11  N   UNK N   1      35.189  12.870  13.070  0.00  0.00    -0.131 N 
ATOM     12  HN  UNK N   1      34.670  12.665  13.924  1.00  0.00     0.205 HD
HETATM   13  N   UNK N   1      34.533  12.948  11.925  0.00  0.00    -0.284 N 
ATOM     14  HN  UNK N   1      33.527  12.786  11.905  1.00  0.00     0.187 HD
HETATM   15  N   UNK N   1      37.169  12.998  14.418  0.00  0.00    -0.190 N 
HETATM   16  H   UNK N   1      38.114  13.259  14.519  0.00  0.00     0.184 HD
ENDROOT
BRANCH   4  17
HETATM   17  C   UNK N   1      34.218  13.959   7.258  0.00  0.00    -0.001 A 
HETATM   18  C   UNK N   1      33.658  15.247   7.115  0.00  0.00     0.051 A 
HETATM   19  C   UNK N   1      32.878  15.585   6.018  0.00  0.00     0.080 A 
HETATM   20  C   UNK N   1      32.711  14.639   4.998  0.00  0.00     0.039 A 
HETATM   21  C   UNK N   1      33.230  13.355   5.123  0.00  0.00     0.027 A 
HETATM   22  C   UNK N   1      33.964  12.992   6.250  0.00  0.00     0.045 A 
HETATM   23 Cl   UNK N   1      34.603  11.355   6.285  0.00  0.00    -0.083 Cl
BRANCH  19  24
HETATM   24  O   UNK N   1      32.321  16.830   5.958  0.00  0.00    -0.275 OA
BRANCH  24  25
HETATM   25  C   UNK N   1      30.988  17.110   5.858  0.00  0.00     0.298 C 
HETATM   26  O   UNK N   1      30.462  17.059   4.756  0.00  0.00    -0.259 OA
BRANCH  25  27
HETATM   27  C   UNK N   1      30.153  17.442   7.045  0.00  0.00     0.039 A 
HETATM   28  C   UNK N   1      30.648  17.203   8.333  0.00  0.00     0.017 A 
HETATM   29  C   UNK N   1      29.916  17.601   9.455  0.00  0.00     0.001 A 
HETATM   30  C   UNK N   1      28.675  18.226   9.297  0.00  0.00     0.000 A 
HETATM   31  C   UNK N   1      28.153  18.429   8.019  0.00  0.00     0.001 A 
HETATM   32  C   UNK N   1      28.887  18.037   6.900  0.00  0.00     0.017 A 
ENDBRANCH  25  27
ENDBRANCH  24  25
ENDBRANCH  19  24
ENDBRANCH   4  17
BRANCH  15  33
HETATM   33  C   UNK N   1      36.415  12.558  15.544  0.00  0.00     0.049 A 
HETATM   34  C   UNK N   1      36.448  11.215  15.938  0.00  0.00     0.033 A 
HETATM   35  C   UNK N   1      35.901  10.836  17.176  0.00  0.00     0.039 A 
HETATM   36  C   UNK N   1      35.331  11.801  18.025  0.00  0.00     0.069 A 
HETATM   37  C   UNK N   1      35.252  13.130  17.596  0.00  0.00     0.039 A 
HETATM   38  C   UNK N   1      35.787  13.501  16.373  0.00  0.00     0.033 A 
BRANCH  36  39
HETATM   39  O   UNK N   1      34.894  11.446  19.259  0.00  0.00    -0.349 OA
BRANCH  39  40
HETATM   40  C   UNK N   1      35.670  10.723  20.150  0.00  0.00     0.206 C 
BRANCH  40  41
HETATM   41  C   UNK N   1      34.791   9.769  20.955  0.00  0.00     0.299 C 
BRANCH  41  42
HETATM   42  N   UNK N   1      33.533   9.524  20.266  0.00  0.00     0.090 N 
HETATM   43  C   UNK N   1      33.620   8.229  19.605  0.00  0.00     0.272 C 
HETATM   44  C   UNK N   1      32.267   7.554  19.729  0.00  0.00     0.032 C 
HETATM   45  C   UNK N   1      31.500   8.373  20.739  0.00  0.00     0.032 C 
HETATM   46  C   UNK N   1      32.509   9.355  21.284  0.00  0.00     0.272 C 
ENDBRANCH  41  42
ENDBRANCH  40  41
ENDBRANCH  39  40
ENDBRANCH  36  39
ENDBRANCH  15  33
TORSDOF 9
ENDMDL
