MODEL 1
REMARK VINA RESULT:      -8.1      0.000      0.000
REMARK  10 active torsions:
REMARK  status: ('A' for Active; 'I' for Inactive)
REMARK    1  A    between atoms: O_1  and  C_24 
REMARK    2  A    between atoms: O_1  and  C_29 
REMARK    3  A    between atoms: O_3  and  C_32 
REMARK    4  A    between atoms: O_4  and  C_40 
REMARK    5  A    between atoms: O_4  and  C_41 
REMARK    6  A    between atoms: N_5  and  C_18 
REMARK    7  A    between atoms: N_6  and  C_25 
REMARK       I    between atoms: N_7  and  C_27 
REMARK       I    between atoms: N_10  and  C_27 
REMARK    8  A    between atoms: N_10  and  C_34 
REMARK    9  A    between atoms: C_18  and  C_19 
REMARK   10  A    between atoms: C_19  and  C_24 
ROOT
HETATM    1  N   UNK N   1      36.916  14.233  10.248  0.00  0.00    -0.338 N 
ATOM      2  HN  UNK N   1      36.794  14.797   9.406  1.00  0.00     0.168 HD
HETATM    3  N   UNK N   1      38.172  12.643  11.466  0.00  0.00    -0.351 N 
ATOM      4  HN  UNK N   1      38.976  12.017  11.527  1.00  0.00     0.166 HD
HETATM    5  C   UNK N   1      35.999  14.315  11.248  0.00  0.00     0.117 A 
HETATM    6  C   UNK N   1      36.186  13.555  12.412  0.00  0.00     0.037 A 
HETATM    7  C   UNK N   1      37.288  12.703  12.497  0.00  0.00     0.050 A 
HETATM    8  C   UNK N   1      36.524  11.973  14.703  0.00  0.00     0.104 A 
HETATM    9  C   UNK N   1      35.301  13.636  13.478  0.00  0.00     0.057 A 
HETATM   10  C   UNK N   1      37.456  11.909  13.636  0.00  0.00     0.070 A 
HETATM   11  C   UNK N   1      35.437  12.869  14.618  0.00  0.00     0.102 A 
HETATM   12  C   UNK N   1      37.996  13.410  10.354  0.00  0.00     0.182 A 
ENDROOT
BRANCH   5  13
HETATM   13  N   UNK N   1      34.852  15.142  11.095  0.00  0.00    -0.363 N 
HETATM   14  C   UNK N   1      35.040  16.567  10.882  0.00  0.00     0.144 C 
HETATM   15  C   UNK N   1      35.000  16.892   9.386  0.00  0.00     0.147 C 
HETATM   16  N   UNK N   1      33.879  16.216   8.769  0.00  0.00    -0.331 N 
HETATM   17  C   UNK N   1      33.661  14.800   9.028  0.00  0.00     0.147 C 
HETATM   18  C   UNK N   1      32.962  16.933   8.080  0.00  0.00     0.323 C 
HETATM   19  C   UNK N   1      33.658  14.550  10.537  0.00  0.00     0.144 C 
HETATM   20  O   UNK N   1      33.113  18.141   7.935  0.00  0.00    -0.247 OA
HETATM   21  N   UNK N   1      31.837  16.333   7.639  0.00  0.00    -0.309 N 
HETATM   22  H   UNK N   1      31.820  15.356   7.514  0.00  0.00     0.170 HD
BRANCH  21  23
HETATM   23  C   UNK N   1      30.691  17.092   7.357  0.00  0.00     0.036 A 
HETATM   24  C   UNK N   1      30.286  17.161   6.029  0.00  0.00     0.032 A 
HETATM   25  C   UNK N   1      29.147  17.861   5.682  0.00  0.00     0.039 A 
HETATM   26  C   UNK N   1      28.389  18.511   6.665  0.00  0.00     0.069 A 
HETATM   27  C   UNK N   1      28.779  18.418   8.011  0.00  0.00     0.039 A 
HETATM   28  C   UNK N   1      29.932  17.701   8.363  0.00  0.00     0.032 A 
BRANCH  26  29
HETATM   29  O   UNK N   1      27.305  19.253   6.325  0.00  0.00    -0.347 OA
BRANCH  29  30
HETATM   30  C   UNK N   1      27.360  20.379   5.521  0.00  0.00     0.120 C 
HETATM   31  C   UNK N   1      26.297  20.275   4.451  0.00  0.00     0.040 C 
HETATM   32  C   UNK N   1      27.104  21.652   6.318  0.00  0.00     0.040 C 
ENDBRANCH  29  30
ENDBRANCH  26  29
ENDBRANCH  21  23
ENDBRANCH   5  13
BRANCH  11  33
HETATM   33  O   UNK N   1      34.492  13.021  15.584  0.00  0.00    -0.353 OA
HETATM   34  C   UNK N   1      34.723  13.397  16.885  0.00  0.00     0.210 C 
ENDBRANCH  11  33
BRANCH   8  35
HETATM   35  O   UNK N   1      36.659  11.184  15.791  0.00  0.00    -0.348 OA
BRANCH  35  36
HETATM   36  C   UNK N   1      36.630   9.814  15.742  0.00  0.00     0.177 C 
BRANCH  36  37
HETATM   37  C   UNK N   1      35.359   9.331  15.063  0.00  0.00     0.057 C 
BRANCH  37  38
HETATM   38  C   UNK N   1      35.760   8.303  14.020  0.00  0.00     0.274 C 
BRANCH  38  39
HETATM   39  N   UNK N   1      35.303   8.649  12.676  0.00  0.00     0.088 N 
HETATM   40  C   UNK N   1      34.393   9.779  12.852  0.00  0.00     0.272 C 
HETATM   41  C   UNK N   1      33.814  10.215  11.509  0.00  0.00     0.030 C 
HETATM   42  C   UNK N   1      34.943  10.591  10.555  0.00  0.00     0.003 C 
HETATM   43  C   UNK N   1      35.939   9.444  10.445  0.00  0.00     0.030 C 
HETATM   44  C   UNK N   1      36.429   9.089  11.842  0.00  0.00     0.272 C 
ENDBRANCH  38  39
ENDBRANCH  37  38
ENDBRANCH  36  37
ENDBRANCH  35  36
ENDBRANCH   8  35
TORSDOF 10
ENDMDL
MODEL 2
REMARK VINA RESULT:      -7.9      1.890      3.233
REMARK  10 active torsions:
REMARK  status: ('A' for Active; 'I' for Inactive)
REMARK    1  A    between atoms: O_1  and  C_24 
REMARK    2  A    between atoms: O_1  and  C_29 
REMARK    3  A    between atoms: O_3  and  C_32 
REMARK    4  A    between atoms: O_4  and  C_40 
REMARK    5  A    between atoms: O_4  and  C_41 
REMARK    6  A    between atoms: N_5  and  C_18 
REMARK    7  A    between atoms: N_6  and  C_25 
REMARK       I    between atoms: N_7  and  C_27 
REMARK       I    between atoms: N_10  and  C_27 
REMARK    8  A    between atoms: N_10  and  C_34 
REMARK    9  A    between atoms: C_18  and  C_19 
REMARK   10  A    between atoms: C_19  and  C_24 
ROOT
HETATM    1  N   UNK N   1      36.889  14.188  10.058  0.00  0.00    -0.338 N 
ATOM      2  HN  UNK N   1      36.751  14.725   9.201  1.00  0.00     0.168 HD
HETATM    3  N   UNK N   1      38.191  12.668  11.318  0.00  0.00    -0.351 N 
ATOM      4  HN  UNK N   1      39.013  12.067  11.395  1.00  0.00     0.166 HD
HETATM    5  C   UNK N   1      35.970  14.270  11.056  0.00  0.00     0.117 A 
HETATM    6  C   UNK N   1      36.180  13.548  12.240  0.00  0.00     0.037 A 
HETATM    7  C   UNK N   1      37.306  12.730  12.347  0.00  0.00     0.050 A 
HETATM    8  C   UNK N   1      36.563  12.039  14.573  0.00  0.00     0.104 A 
HETATM    9  C   UNK N   1      35.292  13.632  13.305  0.00  0.00     0.057 A 
HETATM   10  C   UNK N   1      37.497  11.972  13.508  0.00  0.00     0.070 A 
HETATM   11  C   UNK N   1      35.451  12.901  14.465  0.00  0.00     0.102 A 
HETATM   12  C   UNK N   1      37.993  13.399  10.186  0.00  0.00     0.182 A 
ENDROOT
BRANCH   5  13
HETATM   13  N   UNK N   1      34.800  15.060  10.882  0.00  0.00    -0.363 N 
HETATM   14  C   UNK N   1      34.941  16.501  10.755  0.00  0.00     0.144 C 
HETATM   15  C   UNK N   1      34.968  16.905   9.278  0.00  0.00     0.147 C 
HETATM   16  N   UNK N   1      33.912  16.221   8.564  0.00  0.00    -0.331 N 
HETATM   17  C   UNK N   1      33.739  14.785   8.736  0.00  0.00     0.147 C 
HETATM   18  C   UNK N   1      33.005  16.938   7.863  0.00  0.00     0.323 C 
HETATM   19  C   UNK N   1      33.664  14.454  10.228  0.00  0.00     0.144 C 
HETATM   20  O   UNK N   1      33.114  18.158   7.790  0.00  0.00    -0.247 OA
HETATM   21  N   UNK N   1      31.931  16.320   7.328  0.00  0.00    -0.309 N 
HETATM   22  H   UNK N   1      31.961  15.352   7.152  0.00  0.00     0.170 HD
BRANCH  21  23
HETATM   23  C   UNK N   1      30.772  17.049   7.022  0.00  0.00     0.036 A 
HETATM   24  C   UNK N   1      30.467  17.222   5.676  0.00  0.00     0.032 A 
HETATM   25  C   UNK N   1      29.323  17.899   5.301  0.00  0.00     0.039 A 
HETATM   26  C   UNK N   1      28.458  18.419   6.272  0.00  0.00     0.069 A 
HETATM   27  C   UNK N   1      28.748  18.220   7.632  0.00  0.00     0.039 A 
HETATM   28  C   UNK N   1      29.907  17.527   8.013  0.00  0.00     0.032 A 
BRANCH  26  29
HETATM   29  O   UNK N   1      27.366  19.139   5.912  0.00  0.00    -0.347 OA
BRANCH  29  30
HETATM   30  C   UNK N   1      27.425  20.389   5.317  0.00  0.00     0.120 C 
HETATM   31  C   UNK N   1      26.627  20.362   4.033  0.00  0.00     0.040 C 
HETATM   32  C   UNK N   1      26.836  21.468   6.216  0.00  0.00     0.040 C 
ENDBRANCH  29  30
ENDBRANCH  26  29
ENDBRANCH  21  23
ENDBRANCH   5  13
BRANCH  11  33
HETATM   33  O   UNK N   1      34.502  13.052  15.427  0.00  0.00    -0.353 OA
HETATM   34  C   UNK N   1      34.728  13.429  16.729  0.00  0.00     0.210 C 
ENDBRANCH  11  33
BRANCH   8  35
HETATM   35  O   UNK N   1      36.721  11.284  15.682  0.00  0.00    -0.348 OA
BRANCH  35  36
HETATM   36  C   UNK N   1      37.065   9.957  15.653  0.00  0.00     0.177 C 
BRANCH  36  37
HETATM   37  C   UNK N   1      36.454   9.221  16.835  0.00  0.00     0.057 C 
BRANCH  37  38
HETATM   38  C   UNK N   1      34.966   9.521  16.840  0.00  0.00     0.274 C 
BRANCH  38  39
HETATM   39  N   UNK N   1      34.472   9.925  18.155  0.00  0.00     0.088 N 
HETATM   40  C   UNK N   1      34.094   8.684  18.828  0.00  0.00     0.272 C 
HETATM   41  C   UNK N   1      33.522   8.978  20.212  0.00  0.00     0.030 C 
HETATM   42  C   UNK N   1      34.546   9.740  21.046  0.00  0.00     0.003 C 
HETATM   43  C   UNK N   1      35.007  10.985  20.300  0.00  0.00     0.030 C 
HETATM   44  C   UNK N   1      35.536  10.568  18.935  0.00  0.00     0.272 C 
ENDBRANCH  38  39
ENDBRANCH  37  38
ENDBRANCH  36  37
ENDBRANCH  35  36
ENDBRANCH   8  35
TORSDOF 10
ENDMDL
MODEL 3
REMARK VINA RESULT:      -7.2      1.452      2.006
REMARK  10 active torsions:
REMARK  status: ('A' for Active; 'I' for Inactive)
REMARK    1  A    between atoms: O_1  and  C_24 
REMARK    2  A    between atoms: O_1  and  C_29 
REMARK    3  A    between atoms: O_3  and  C_32 
REMARK    4  A    between atoms: O_4  and  C_40 
REMARK    5  A    between atoms: O_4  and  C_41 
REMARK    6  A    between atoms: N_5  and  C_18 
REMARK    7  A    between atoms: N_6  and  C_25 
REMARK       I    between atoms: N_7  and  C_27 
REMARK       I    between atoms: N_10  and  C_27 
REMARK    8  A    between atoms: N_10  and  C_34 
REMARK    9  A    between atoms: C_18  and  C_19 
REMARK   10  A    between atoms: C_19  and  C_24 
ROOT
HETATM    1  N   UNK N   1      36.965  14.547  10.018  0.00  0.00    -0.338 N 
ATOM      2  HN  UNK N   1      36.837  15.135   9.194  1.00  0.00     0.168 HD
HETATM    3  N   UNK N   1      38.259  12.964  11.205  0.00  0.00    -0.351 N 
ATOM      4  HN  UNK N   1      39.086  12.368  11.261  1.00  0.00     0.166 HD
HETATM    5  C   UNK N   1      36.026  14.557  11.001  0.00  0.00     0.117 A 
HETATM    6  C   UNK N   1      36.221  13.764  12.141  0.00  0.00     0.037 A 
HETATM    7  C   UNK N   1      37.354  12.952  12.219  0.00  0.00     0.050 A 
HETATM    8  C   UNK N   1      36.577  12.115  14.382  0.00  0.00     0.104 A 
HETATM    9  C   UNK N   1      35.312  13.772  13.191  0.00  0.00     0.057 A 
HETATM   10  C   UNK N   1      37.531  12.125  13.333  0.00  0.00     0.070 A 
HETATM   11  C   UNK N   1      35.457  12.971  14.306  0.00  0.00     0.102 A 
HETATM   12  C   UNK N   1      38.074  13.763  10.118  0.00  0.00     0.182 A 
ENDROOT
BRANCH   5  13
HETATM   13  N   UNK N   1      34.851  15.344  10.854  0.00  0.00    -0.363 N 
HETATM   14  C   UNK N   1      34.989  16.777  10.654  0.00  0.00     0.144 C 
HETATM   15  C   UNK N   1      34.938  17.113   9.160  0.00  0.00     0.147 C 
HETATM   16  N   UNK N   1      33.843  16.404   8.536  0.00  0.00    -0.331 N 
HETATM   17  C   UNK N   1      33.675  14.978   8.782  0.00  0.00     0.147 C 
HETATM   18  C   UNK N   1      32.902  17.093   7.852  0.00  0.00     0.323 C 
HETATM   19  C   UNK N   1      33.680  14.715  10.290  0.00  0.00     0.144 C 
HETATM   20  O   UNK N   1      33.010  18.307   7.718  0.00  0.00    -0.247 OA
HETATM   21  N   UNK N   1      31.799  16.457   7.404  0.00  0.00    -0.309 N 
HETATM   22  H   UNK N   1      31.816  15.482   7.271  0.00  0.00     0.170 HD
BRANCH  21  23
HETATM   23  C   UNK N   1      30.627  17.177   7.127  0.00  0.00     0.036 A 
HETATM   24  C   UNK N   1      30.240  17.273   5.795  0.00  0.00     0.032 A 
HETATM   25  C   UNK N   1      29.079  17.937   5.451  0.00  0.00     0.039 A 
HETATM   26  C   UNK N   1      28.279  18.523   6.441  0.00  0.00     0.069 A 
HETATM   27  C   UNK N   1      28.652  18.402   7.790  0.00  0.00     0.039 A 
HETATM   28  C   UNK N   1      29.828  17.722   8.139  0.00  0.00     0.032 A 
BRANCH  26  29
HETATM   29  O   UNK N   1      27.171  19.231   6.107  0.00  0.00    -0.347 OA
BRANCH  29  30
HETATM   30  C   UNK N   1      27.202  20.482   5.514  0.00  0.00     0.120 C 
HETATM   31  C   UNK N   1      26.316  20.470   4.289  0.00  0.00     0.040 C 
HETATM   32  C   UNK N   1      26.690  21.564   6.457  0.00  0.00     0.040 C 
ENDBRANCH  29  30
ENDBRANCH  26  29
ENDBRANCH  21  23
ENDBRANCH   5  13
BRANCH  11  33
HETATM   33  O   UNK N   1      34.488  13.051  15.257  0.00  0.00    -0.353 OA
HETATM   34  C   UNK N   1      34.672  13.436  16.563  0.00  0.00     0.210 C 
ENDBRANCH  11  33
BRANCH   8  35
HETATM   35  O   UNK N   1      36.721  11.293  15.444  0.00  0.00    -0.348 OA
BRANCH  35  36
HETATM   36  C   UNK N   1      36.243  10.008  15.479  0.00  0.00     0.177 C 
BRANCH  36  37
HETATM   37  C   UNK N   1      37.383   9.011  15.345  0.00  0.00     0.057 C 
BRANCH  37  38
HETATM   38  C   UNK N   1      37.281   8.382  13.968  0.00  0.00     0.274 C 
BRANCH  38  39
HETATM   39  N   UNK N   1      38.470   8.610  13.148  0.00  0.00     0.088 N 
HETATM   40  C   UNK N   1      39.462   7.648  13.625  0.00  0.00     0.272 C 
HETATM   41  C   UNK N   1      40.775   7.811  12.865  0.00  0.00     0.030 C 
HETATM   42  C   UNK N   1      40.536   7.625  11.371  0.00  0.00     0.003 C 
HETATM   43  C   UNK N   1      39.436   8.565  10.895  0.00  0.00     0.030 C 
HETATM   44  C   UNK N   1      38.191   8.323  11.736  0.00  0.00     0.272 C 
ENDBRANCH  38  39
ENDBRANCH  37  38
ENDBRANCH  36  37
ENDBRANCH  35  36
ENDBRANCH   8  35
TORSDOF 10
ENDMDL
MODEL 4
REMARK VINA RESULT:      -7.1      3.069     11.672
REMARK  10 active torsions:
REMARK  status: ('A' for Active; 'I' for Inactive)
REMARK    1  A    between atoms: O_1  and  C_24 
REMARK    2  A    between atoms: O_1  and  C_29 
REMARK    3  A    between atoms: O_3  and  C_32 
REMARK    4  A    between atoms: O_4  and  C_40 
REMARK    5  A    between atoms: O_4  and  C_41 
REMARK    6  A    between atoms: N_5  and  C_18 
REMARK    7  A    between atoms: N_6  and  C_25 
REMARK       I    between atoms: N_7  and  C_27 
REMARK       I    between atoms: N_10  and  C_27 
REMARK    8  A    between atoms: N_10  and  C_34 
REMARK    9  A    between atoms: C_18  and  C_19 
REMARK   10  A    between atoms: C_19  and  C_24 
ROOT
HETATM    1  N   UNK N   1      33.534  16.708   5.877  0.00  0.00    -0.338 N 
ATOM      2  HN  UNK N   1      34.328  16.910   6.486  1.00  0.00     0.168 HD
HETATM    3  N   UNK N   1      32.161  17.328   4.054  0.00  0.00    -0.351 N 
ATOM      4  HN  UNK N   1      31.927  17.993   3.316  1.00  0.00     0.166 HD
HETATM    5  C   UNK N   1      32.803  15.581   6.079  0.00  0.00     0.117 A 
HETATM    6  C   UNK N   1      31.728  15.300   5.223  0.00  0.00     0.037 A 
HETATM    7  C   UNK N   1      31.411  16.206   4.211  0.00  0.00     0.050 A 
HETATM    8  C   UNK N   1      29.531  14.783   3.558  0.00  0.00     0.104 A 
HETATM    9  C   UNK N   1      30.977  14.140   5.362  0.00  0.00     0.057 A 
HETATM   10  C   UNK N   1      30.312  15.954   3.382  0.00  0.00     0.070 A 
HETATM   11  C   UNK N   1      29.889  13.857   4.561  0.00  0.00     0.102 A 
HETATM   12  C   UNK N   1      33.223  17.574   4.872  0.00  0.00     0.182 A 
ENDROOT
BRANCH   5  13
HETATM   13  N   UNK N   1      33.114  14.717   7.165  0.00  0.00    -0.363 N 
HETATM   14  C   UNK N   1      34.327  13.919   7.100  0.00  0.00     0.144 C 
HETATM   15  C   UNK N   1      35.470  14.626   7.836  0.00  0.00     0.147 C 
HETATM   16  N   UNK N   1      35.000  15.114   9.114  0.00  0.00    -0.331 N 
HETATM   17  C   UNK N   1      33.755  15.866   9.184  0.00  0.00     0.147 C 
HETATM   18  C   UNK N   1      35.638  14.744  10.247  0.00  0.00     0.323 C 
HETATM   19  C   UNK N   1      32.644  15.084   8.480  0.00  0.00     0.144 C 
HETATM   20  O   UNK N   1      36.642  14.042  10.182  0.00  0.00    -0.247 OA
HETATM   21  N   UNK N   1      35.112  15.066  11.447  0.00  0.00    -0.309 N 
HETATM   22  H   UNK N   1      34.484  15.821  11.520  0.00  0.00     0.170 HD
BRANCH  21  23
HETATM   23  C   UNK N   1      35.454  14.332  12.593  0.00  0.00     0.036 A 
HETATM   24  C   UNK N   1      34.899  13.064  12.724  0.00  0.00     0.032 A 
HETATM   25  C   UNK N   1      35.218  12.270  13.809  0.00  0.00     0.039 A 
HETATM   26  C   UNK N   1      36.104  12.736  14.789  0.00  0.00     0.069 A 
HETATM   27  C   UNK N   1      36.689  14.004  14.645  0.00  0.00     0.039 A 
HETATM   28  C   UNK N   1      36.370  14.807  13.539  0.00  0.00     0.032 A 
BRANCH  26  29
HETATM   29  O   UNK N   1      36.374  11.989  15.889  0.00  0.00    -0.347 OA
BRANCH  29  30
HETATM   30  C   UNK N   1      35.427  11.635  16.836  0.00  0.00     0.120 C 
HETATM   31  C   UNK N   1      35.904  10.408  17.578  0.00  0.00     0.040 C 
HETATM   32  C   UNK N   1      35.207  12.747  17.854  0.00  0.00     0.040 C 
ENDBRANCH  29  30
ENDBRANCH  26  29
ENDBRANCH  21  23
ENDBRANCH   5  13
BRANCH  11  33
HETATM   33  O   UNK N   1      29.220  12.700   4.810  0.00  0.00    -0.353 OA
HETATM   34  C   UNK N   1      29.589  11.448   4.380  0.00  0.00     0.210 C 
ENDBRANCH  11  33
BRANCH   8  35
HETATM   35  O   UNK N   1      28.447  14.549   2.786  0.00  0.00    -0.348 OA
BRANCH  35  36
HETATM   36  C   UNK N   1      27.493  15.496   2.511  0.00  0.00     0.177 C 
BRANCH  36  37
HETATM   37  C   UNK N   1      26.292  15.324   3.426  0.00  0.00     0.057 C 
BRANCH  37  38
HETATM   38  C   UNK N   1      26.436  16.320   4.562  0.00  0.00     0.274 C 
BRANCH  38  39
HETATM   39  N   UNK N   1      26.822  17.653   4.104  0.00  0.00     0.088 N 
HETATM   40  C   UNK N   1      25.568  18.379   3.914  0.00  0.00     0.272 C 
HETATM   41  C   UNK N   1      25.837  19.789   3.397  0.00  0.00     0.030 C 
HETATM   42  C   UNK N   1      26.737  20.537   4.374  0.00  0.00     0.003 C 
HETATM   43  C   UNK N   1      28.003  19.734   4.641  0.00  0.00     0.030 C 
HETATM   44  C   UNK N   1      27.607  18.349   5.132  0.00  0.00     0.272 C 
ENDBRANCH  38  39
ENDBRANCH  37  38
ENDBRANCH  36  37
ENDBRANCH  35  36
ENDBRANCH   8  35
TORSDOF 10
ENDMDL
MODEL 5
REMARK VINA RESULT:      -7.1      4.152     13.241
REMARK  10 active torsions:
REMARK  status: ('A' for Active; 'I' for Inactive)
REMARK    1  A    between atoms: O_1  and  C_24 
REMARK    2  A    between atoms: O_1  and  C_29 
REMARK    3  A    between atoms: O_3  and  C_32 
REMARK    4  A    between atoms: O_4  and  C_40 
REMARK    5  A    between atoms: O_4  and  C_41 
REMARK    6  A    between atoms: N_5  and  C_18 
REMARK    7  A    between atoms: N_6  and  C_25 
REMARK       I    between atoms: N_7  and  C_27 
REMARK       I    between atoms: N_10  and  C_27 
REMARK    8  A    between atoms: N_10  and  C_34 
REMARK    9  A    between atoms: C_18  and  C_19 
REMARK   10  A    between atoms: C_19  and  C_24 
ROOT
HETATM    1  N   UNK N   1      28.794  18.501   5.342  0.00  0.00    -0.338 N 
ATOM      2  HN  UNK N   1      29.783  18.736   5.440  1.00  0.00     0.168 HD
HETATM    3  N   UNK N   1      26.639  19.063   4.549  0.00  0.00    -0.351 N 
ATOM      4  HN  UNK N   1      26.022  19.718   4.067  1.00  0.00     0.166 HD
HETATM    5  C   UNK N   1      28.326  17.340   5.873  0.00  0.00     0.117 A 
HETATM    6  C   UNK N   1      26.971  17.013   5.714  0.00  0.00     0.037 A 
HETATM    7  C   UNK N   1      26.130  17.907   5.051  0.00  0.00     0.050 A 
HETATM    8  C   UNK N   1      24.246  16.402   5.463  0.00  0.00     0.104 A 
HETATM    9  C   UNK N   1      26.455  15.819   6.201  0.00  0.00     0.057 A 
HETATM   10  C   UNK N   1      24.768  17.607   4.929  0.00  0.00     0.070 A 
HETATM   11  C   UNK N   1      25.118  15.490   6.095  0.00  0.00     0.102 A 
HETATM   12  C   UNK N   1      27.963  19.354   4.682  0.00  0.00     0.182 A 
ENDROOT
BRANCH   5  13
HETATM   13  N   UNK N   1      29.200  16.488   6.603  0.00  0.00    -0.363 N 
HETATM   14  C   UNK N   1      30.219  15.745   5.879  0.00  0.00     0.144 C 
HETATM   15  C   UNK N   1      31.551  16.501   5.909  0.00  0.00     0.147 C 
HETATM   16  N   UNK N   1      31.820  16.964   7.253  0.00  0.00    -0.331 N 
HETATM   17  C   UNK N   1      30.779  17.660   7.997  0.00  0.00     0.147 C 
HETATM   18  C   UNK N   1      32.978  16.620   7.861  0.00  0.00     0.323 C 
HETATM   19  C   UNK N   1      29.493  16.831   7.974  0.00  0.00     0.144 C 
HETATM   20  O   UNK N   1      33.816  15.963   7.252  0.00  0.00    -0.247 OA
HETATM   21  N   UNK N   1      33.164  16.915   9.164  0.00  0.00    -0.309 N 
HETATM   22  H   UNK N   1      32.645  17.641   9.581  0.00  0.00     0.170 HD
BRANCH  21  23
HETATM   23  C   UNK N   1      34.091  16.193   9.931  0.00  0.00     0.036 A 
HETATM   24  C   UNK N   1      33.731  14.909  10.322  0.00  0.00     0.032 A 
HETATM   25  C   UNK N   1      34.607  14.127  11.048  0.00  0.00     0.039 A 
HETATM   26  C   UNK N   1      35.870  14.622  11.401  0.00  0.00     0.069 A 
HETATM   27  C   UNK N   1      36.249  15.908  10.983  0.00  0.00     0.039 A 
HETATM   28  C   UNK N   1      35.360  16.699  10.239  0.00  0.00     0.032 A 
BRANCH  26  29
HETATM   29  O   UNK N   1      36.712  13.886  12.168  0.00  0.00    -0.347 OA
BRANCH  29  30
HETATM   30  C   UNK N   1      36.345  13.280  13.359  0.00  0.00     0.120 C 
HETATM   31  C   UNK N   1      37.187  12.041  13.563  0.00  0.00     0.040 C 
HETATM   32  C   UNK N   1      36.567  14.203  14.551  0.00  0.00     0.040 C 
ENDBRANCH  29  30
ENDBRANCH  26  29
ENDBRANCH  21  23
ENDBRANCH   5  13
BRANCH  11  33
HETATM   33  O   UNK N   1      24.729  14.303   6.632  0.00  0.00    -0.353 OA
HETATM   34  C   UNK N   1      25.264  13.072   6.337  0.00  0.00     0.210 C 
ENDBRANCH  11  33
BRANCH   8  35
HETATM   35  O   UNK N   1      22.927  16.121   5.382  0.00  0.00    -0.348 OA
BRANCH  35  36
HETATM   36  C   UNK N   1      22.010  16.508   6.325  0.00  0.00     0.177 C 
BRANCH  36  37
HETATM   37  C   UNK N   1      21.098  17.590   5.769  0.00  0.00     0.057 C 
BRANCH  37  38
HETATM   38  C   UNK N   1      20.683  17.165   4.373  0.00  0.00     0.274 C 
BRANCH  38  39
HETATM   39  N   UNK N   1      21.191  18.055   3.331  0.00  0.00     0.088 N 
HETATM   40  C   UNK N   1      20.077  18.249   2.406  0.00  0.00     0.272 C 
HETATM   41  C   UNK N   1      20.497  19.141   1.241  0.00  0.00     0.030 C 
HETATM   42  C   UNK N   1      20.984  20.486   1.768  0.00  0.00     0.003 C 
HETATM   43  C   UNK N   1      22.083  20.277   2.801  0.00  0.00     0.030 C 
HETATM   44  C   UNK N   1      21.554  19.361   3.896  0.00  0.00     0.272 C 
ENDBRANCH  38  39
ENDBRANCH  37  38
ENDBRANCH  36  37
ENDBRANCH  35  36
ENDBRANCH   8  35
TORSDOF 10
ENDMDL
MODEL 6
REMARK VINA RESULT:      -7.0      2.601     11.242
REMARK  10 active torsions:
REMARK  status: ('A' for Active; 'I' for Inactive)
REMARK    1  A    between atoms: O_1  and  C_24 
REMARK    2  A    between atoms: O_1  and  C_29 
REMARK    3  A    between atoms: O_3  and  C_32 
REMARK    4  A    between atoms: O_4  and  C_40 
REMARK    5  A    between atoms: O_4  and  C_41 
REMARK    6  A    between atoms: N_5  and  C_18 
REMARK    7  A    between atoms: N_6  and  C_25 
REMARK       I    between atoms: N_7  and  C_27 
REMARK       I    between atoms: N_10  and  C_27 
REMARK    8  A    between atoms: N_10  and  C_34 
REMARK    9  A    between atoms: C_18  and  C_19 
REMARK   10  A    between atoms: C_19  and  C_24 
ROOT
HETATM    1  N   UNK N   1      34.755  17.091   8.727  0.00  0.00    -0.338 N 
ATOM      2  HN  UNK N   1      35.210  17.106   9.641  1.00  0.00     0.168 HD
HETATM    3  N   UNK N   1      33.947  18.264   6.840  0.00  0.00    -0.351 N 
ATOM      4  HN  UNK N   1      33.791  19.149   6.354  1.00  0.00     0.166 HD
HETATM    5  C   UNK N   1      34.354  15.906   8.197  0.00  0.00     0.117 A 
HETATM    6  C   UNK N   1      33.751  15.893   6.930  0.00  0.00     0.037 A 
HETATM    7  C   UNK N   1      33.542  17.102   6.265  0.00  0.00     0.050 A 
HETATM    8  C   UNK N   1      32.475  15.881   4.433  0.00  0.00     0.104 A 
HETATM    9  C   UNK N   1      33.363  14.704   6.327  0.00  0.00     0.057 A 
HETATM   10  C   UNK N   1      32.901  17.099   5.021  0.00  0.00     0.070 A 
HETATM   11  C   UNK N   1      32.730  14.664   5.101  0.00  0.00     0.102 A 
HETATM   12  C   UNK N   1      34.560  18.261   8.056  0.00  0.00     0.182 A 
ENDROOT
BRANCH   5  13
HETATM   13  N   UNK N   1      34.521  14.703   8.936  0.00  0.00    -0.363 N 
HETATM   14  C   UNK N   1      35.854  14.135   9.056  0.00  0.00     0.144 C 
HETATM   15  C   UNK N   1      36.506  14.581  10.369  0.00  0.00     0.147 C 
HETATM   16  N   UNK N   1      35.563  14.436  11.457  0.00  0.00    -0.331 N 
HETATM   17  C   UNK N   1      34.211  14.958  11.313  0.00  0.00     0.147 C 
HETATM   18  C   UNK N   1      35.895  13.692  12.536  0.00  0.00     0.323 C 
HETATM   19  C   UNK N   1      33.597  14.434  10.013  0.00  0.00     0.144 C 
HETATM   20  O   UNK N   1      37.011  13.188  12.611  0.00  0.00    -0.247 OA
HETATM   21  N   UNK N   1      34.966  13.424  13.477  0.00  0.00    -0.309 N 
HETATM   22  H   UNK N   1      34.180  14.010  13.569  0.00  0.00     0.170 HD
BRANCH  21  23
HETATM   23  C   UNK N   1      35.112  12.316  14.325  0.00  0.00     0.036 A 
HETATM   24  C   UNK N   1      35.755  12.526  15.540  0.00  0.00     0.032 A 
HETATM   25  C   UNK N   1      35.904  11.489  16.440  0.00  0.00     0.039 A 
HETATM   26  C   UNK N   1      35.410  10.214  16.137  0.00  0.00     0.069 A 
HETATM   27  C   UNK N   1      34.734  10.005  14.924  0.00  0.00     0.039 A 
HETATM   28  C   UNK N   1      34.577  11.061  14.013  0.00  0.00     0.032 A 
BRANCH  26  29
HETATM   29  O   UNK N   1      35.607   9.175  16.987  0.00  0.00    -0.347 OA
BRANCH  29  30
HETATM   30  C   UNK N   1      35.578   9.289  18.368  0.00  0.00     0.120 C 
HETATM   31  C   UNK N   1      34.186   8.968  18.861  0.00  0.00     0.040 C 
HETATM   32  C   UNK N   1      36.549   8.321  19.032  0.00  0.00     0.040 C 
ENDBRANCH  29  30
ENDBRANCH  26  29
ENDBRANCH  21  23
ENDBRANCH   5  13
BRANCH  11  33
HETATM   33  O   UNK N   1      32.377  13.440   4.626  0.00  0.00    -0.353 OA
HETATM   34  C   UNK N   1      32.992  12.768   3.596  0.00  0.00     0.210 C 
ENDBRANCH  11  33
BRANCH   8  35
HETATM   35  O   UNK N   1      31.823  15.872   3.249  0.00  0.00    -0.348 OA
BRANCH  35  36
HETATM   36  C   UNK N   1      30.597  16.454   3.055  0.00  0.00     0.177 C 
BRANCH  36  37
HETATM   37  C   UNK N   1      29.591  15.930   4.067  0.00  0.00     0.057 C 
BRANCH  37  38
HETATM   38  C   UNK N   1      28.684  17.085   4.450  0.00  0.00     0.274 C 
BRANCH  38  39
HETATM   39  N   UNK N   1      29.102  17.752   5.682  0.00  0.00     0.088 N 
HETATM   40  C   UNK N   1      27.878  18.303   6.260  0.00  0.00     0.272 C 
HETATM   41  C   UNK N   1      28.189  19.064   7.546  0.00  0.00     0.030 C 
HETATM   42  C   UNK N   1      28.874  18.138   8.545  0.00  0.00     0.003 C 
HETATM   43  C   UNK N   1      30.098  17.493   7.908  0.00  0.00     0.030 C 
HETATM   44  C   UNK N   1      29.666  16.785   6.631  0.00  0.00     0.272 C 
ENDBRANCH  38  39
ENDBRANCH  37  38
ENDBRANCH  36  37
ENDBRANCH  35  36
ENDBRANCH   8  35
TORSDOF 10
ENDMDL
MODEL 7
REMARK VINA RESULT:      -6.9      3.695      5.965
REMARK  10 active torsions:
REMARK  status: ('A' for Active; 'I' for Inactive)
REMARK    1  A    between atoms: O_1  and  C_24 
REMARK    2  A    between atoms: O_1  and  C_29 
REMARK    3  A    between atoms: O_3  and  C_32 
REMARK    4  A    between atoms: O_4  and  C_40 
REMARK    5  A    between atoms: O_4  and  C_41 
REMARK    6  A    between atoms: N_5  and  C_18 
REMARK    7  A    between atoms: N_6  and  C_25 
REMARK       I    between atoms: N_7  and  C_27 
REMARK       I    between atoms: N_10  and  C_27 
REMARK    8  A    between atoms: N_10  and  C_34 
REMARK    9  A    between atoms: C_18  and  C_19 
REMARK   10  A    between atoms: C_19  and  C_24 
ROOT
HETATM    1  N   UNK N   1      36.551  10.048  13.588  0.00  0.00    -0.338 N 
ATOM      2  HN  UNK N   1      36.704  10.069  12.579  1.00  0.00     0.168 HD
HETATM    3  N   UNK N   1      36.581   8.846  15.624  0.00  0.00    -0.351 N 
ATOM      4  HN  UNK N   1      36.744   7.973  16.128  1.00  0.00     0.166 HD
HETATM    5  C   UNK N   1      36.116  11.168  14.224  0.00  0.00     0.117 A 
HETATM    6  C   UNK N   1      35.932  11.137  15.614  0.00  0.00     0.037 A 
HETATM    7  C   UNK N   1      36.160   9.945  16.303  0.00  0.00     0.050 A 
HETATM    8  C   UNK N   1      35.489  11.046  18.382  0.00  0.00     0.104 A 
HETATM    9  C   UNK N   1      35.531  12.266  16.315  0.00  0.00     0.057 A 
HETATM   10  C   UNK N   1      35.935   9.896  17.684  0.00  0.00     0.070 A 
HETATM   11  C   UNK N   1      35.302  12.254  17.676  0.00  0.00     0.102 A 
HETATM   12  C   UNK N   1      36.787   8.898  14.278  0.00  0.00     0.182 A 
ENDROOT
BRANCH   5  13
HETATM   13  N   UNK N   1      35.828  12.343  13.477  0.00  0.00    -0.363 N 
HETATM   14  C   UNK N   1      36.921  13.235  13.126  0.00  0.00     0.144 C 
HETATM   15  C   UNK N   1      37.428  12.925  11.714  0.00  0.00     0.147 C 
HETATM   16  N   UNK N   1      36.306  12.775  10.813  0.00  0.00    -0.331 N 
HETATM   17  C   UNK N   1      35.187  11.924  11.192  0.00  0.00     0.147 C 
HETATM   18  C   UNK N   1      36.236  13.538   9.699  0.00  0.00     0.323 C 
HETATM   19  C   UNK N   1      34.693  12.319  12.585  0.00  0.00     0.144 C 
HETATM   20  O   UNK N   1      37.148  14.312   9.430  0.00  0.00    -0.247 OA
HETATM   21  N   UNK N   1      35.119  13.516   8.941  0.00  0.00    -0.309 N 
HETATM   22  H   UNK N   1      34.513  12.742   8.986  0.00  0.00     0.170 HD
BRANCH  21  23
HETATM   23  C   UNK N   1      34.817  14.590   8.091  0.00  0.00     0.036 A 
HETATM   24  C   UNK N   1      35.059  14.413   6.733  0.00  0.00     0.032 A 
HETATM   25  C   UNK N   1      34.753  15.414   5.832  0.00  0.00     0.039 A 
HETATM   26  C   UNK N   1      34.197  16.620   6.278  0.00  0.00     0.069 A 
HETATM   27  C   UNK N   1      33.924  16.791   7.645  0.00  0.00     0.039 A 
HETATM   28  C   UNK N   1      34.229  15.771   8.558  0.00  0.00     0.032 A 
BRANCH  26  29
HETATM   29  O   UNK N   1      33.952  17.632   5.408  0.00  0.00    -0.347 OA
BRANCH  29  30
HETATM   30  C   UNK N   1      32.836  17.697   4.590  0.00  0.00     0.120 C 
HETATM   31  C   UNK N   1      33.050  16.800   3.392  0.00  0.00     0.040 C 
HETATM   32  C   UNK N   1      31.580  17.227   5.313  0.00  0.00     0.040 C 
ENDBRANCH  29  30
ENDBRANCH  26  29
ENDBRANCH  21  23
ENDBRANCH   5  13
BRANCH  11  33
HETATM   33  O   UNK N   1      34.889  13.418  18.245  0.00  0.00    -0.353 OA
HETATM   34  C   UNK N   1      35.511  14.638  18.125  0.00  0.00     0.210 C 
ENDBRANCH  11  33
BRANCH   8  35
HETATM   35  O   UNK N   1      35.234  10.998  19.708  0.00  0.00    -0.348 OA
BRANCH  35  36
HETATM   36  C   UNK N   1      35.940  10.218  20.588  0.00  0.00     0.177 C 
BRANCH  36  37
HETATM   37  C   UNK N   1      34.993   9.431  21.480  0.00  0.00     0.057 C 
BRANCH  37  38
HETATM   38  C   UNK N   1      34.770   8.079  20.829  0.00  0.00     0.274 C 
BRANCH  38  39
HETATM   39  N   UNK N   1      33.476   7.976  20.157  0.00  0.00     0.088 N 
HETATM   40  C   UNK N   1      33.057   6.587  20.329  0.00  0.00     0.272 C 
HETATM   41  C   UNK N   1      31.722   6.340  19.632  0.00  0.00     0.030 C 
HETATM   42  C   UNK N   1      30.662   7.283  20.193  0.00  0.00     0.003 C 
HETATM   43  C   UNK N   1      31.142   8.725  20.097  0.00  0.00     0.030 C 
HETATM   44  C   UNK N   1      32.483   8.841  20.807  0.00  0.00     0.272 C 
ENDBRANCH  38  39
ENDBRANCH  37  38
ENDBRANCH  36  37
ENDBRANCH  35  36
ENDBRANCH   8  35
TORSDOF 10
ENDMDL
MODEL 8
REMARK VINA RESULT:      -6.8      5.530     13.944
REMARK  10 active torsions:
REMARK  status: ('A' for Active; 'I' for Inactive)
REMARK    1  A    between atoms: O_1  and  C_24 
REMARK    2  A    between atoms: O_1  and  C_29 
REMARK    3  A    between atoms: O_3  and  C_32 
REMARK    4  A    between atoms: O_4  and  C_40 
REMARK    5  A    between atoms: O_4  and  C_41 
REMARK    6  A    between atoms: N_5  and  C_18 
REMARK    7  A    between atoms: N_6  and  C_25 
REMARK       I    between atoms: N_7  and  C_27 
REMARK       I    between atoms: N_10  and  C_27 
REMARK    8  A    between atoms: N_10  and  C_34 
REMARK    9  A    between atoms: C_18  and  C_19 
REMARK   10  A    between atoms: C_19  and  C_24 
ROOT
HETATM    1  N   UNK N   1      26.980  19.273   4.021  0.00  0.00    -0.338 N 
ATOM      2  HN  UNK N   1      27.989  19.429   4.013  1.00  0.00     0.168 HD
HETATM    3  N   UNK N   1      24.806  20.002   3.446  0.00  0.00    -0.351 N 
ATOM      4  HN  UNK N   1      24.197  20.702   3.020  1.00  0.00     0.166 HD
HETATM    5  C   UNK N   1      26.479  18.158   4.615  0.00  0.00     0.117 A 
HETATM    6  C   UNK N   1      25.093  17.940   4.600  0.00  0.00     0.037 A 
HETATM    7  C   UNK N   1      24.261  18.895   4.014  0.00  0.00     0.050 A 
HETATM    8  C   UNK N   1      22.317  17.549   4.640  0.00  0.00     0.104 A 
HETATM    9  C   UNK N   1      24.536  16.795   5.155  0.00  0.00     0.057 A 
HETATM   10  C   UNK N   1      22.875  18.705   4.037  0.00  0.00     0.070 A 
HETATM   11  C   UNK N   1      23.174  16.574   5.192  0.00  0.00     0.102 A 
HETATM   12  C   UNK N   1      26.156  20.187   3.437  0.00  0.00     0.182 A 
ENDROOT
BRANCH   5  13
HETATM   13  N   UNK N   1      27.353  17.242   5.263  0.00  0.00    -0.363 N 
HETATM   14  C   UNK N   1      28.308  16.498   4.458  0.00  0.00     0.144 C 
HETATM   15  C   UNK N   1      29.668  17.203   4.458  0.00  0.00     0.147 C 
HETATM   16  N   UNK N   1      30.017  17.594   5.806  0.00  0.00    -0.331 N 
HETATM   17  C   UNK N   1      29.038  18.292   6.629  0.00  0.00     0.147 C 
HETATM   18  C   UNK N   1      31.188  17.182   6.342  0.00  0.00     0.323 C 
HETATM   19  C   UNK N   1      27.723  17.511   6.632  0.00  0.00     0.144 C 
HETATM   20  O   UNK N   1      31.971  16.524   5.665  0.00  0.00    -0.247 OA
HETATM   21  N   UNK N   1      31.445  17.410   7.646  0.00  0.00    -0.309 N 
HETATM   22  H   UNK N   1      30.974  18.134   8.119  0.00  0.00     0.170 HD
BRANCH  21  23
HETATM   23  C   UNK N   1      32.380  16.621   8.335  0.00  0.00     0.036 A 
HETATM   24  C   UNK N   1      33.572  17.231   8.709  0.00  0.00     0.032 A 
HETATM   25  C   UNK N   1      34.524  16.526   9.420  0.00  0.00     0.039 A 
HETATM   26  C   UNK N   1      34.298  15.188   9.769  0.00  0.00     0.069 A 
HETATM   27  C   UNK N   1      33.083  14.578   9.418  0.00  0.00     0.039 A 
HETATM   28  C   UNK N   1      32.114  15.297   8.702  0.00  0.00     0.032 A 
BRANCH  26  29
HETATM   29  O   UNK N   1      35.253  14.470  10.412  0.00  0.00    -0.347 OA
BRANCH  29  30
HETATM   30  C   UNK N   1      36.557  14.339   9.961  0.00  0.00     0.120 C 
HETATM   31  C   UNK N   1      37.323  13.454  10.917  0.00  0.00     0.040 C 
HETATM   32  C   UNK N   1      36.613  13.701   8.579  0.00  0.00     0.040 C 
ENDBRANCH  29  30
ENDBRANCH  26  29
ENDBRANCH  21  23
ENDBRANCH   5  13
BRANCH  11  33
HETATM   33  O   UNK N   1      22.749  15.425   5.783  0.00  0.00    -0.353 OA
HETATM   34  C   UNK N   1      22.491  15.257   7.123  0.00  0.00     0.210 C 
ENDBRANCH  11  33
BRANCH   8  35
HETATM   35  O   UNK N   1      20.978  17.375   4.698  0.00  0.00    -0.348 OA
BRANCH  35  36
HETATM   36  C   UNK N   1      20.149  17.497   3.613  0.00  0.00     0.177 C 
BRANCH  36  37
HETATM   37  C   UNK N   1      19.966  16.153   2.928  0.00  0.00     0.057 C 
BRANCH  37  38
HETATM   38  C   UNK N   1      20.320  16.334   1.463  0.00  0.00     0.274 C 
BRANCH  38  39
HETATM   39  N   UNK N   1      20.476  15.065   0.754  0.00  0.00     0.088 N 
HETATM   40  C   UNK N   1      21.763  14.530   1.192  0.00  0.00     0.272 C 
HETATM   41  C   UNK N   1      22.062  13.210   0.487  0.00  0.00     0.030 C 
HETATM   42  C   UNK N   1      20.950  12.207   0.771  0.00  0.00     0.003 C 
HETATM   43  C   UNK N   1      19.599  12.803   0.400  0.00  0.00     0.030 C 
HETATM   44  C   UNK N   1      19.425  14.118   1.146  0.00  0.00     0.272 C 
ENDBRANCH  38  39
ENDBRANCH  37  38
ENDBRANCH  36  37
ENDBRANCH  35  36
ENDBRANCH   8  35
TORSDOF 10
ENDMDL
MODEL 9
REMARK VINA RESULT:      -6.7      3.545     12.942
REMARK  10 active torsions:
REMARK  status: ('A' for Active; 'I' for Inactive)
REMARK    1  A    between atoms: O_1  and  C_24 
REMARK    2  A    between atoms: O_1  and  C_29 
REMARK    3  A    between atoms: O_3  and  C_32 
REMARK    4  A    between atoms: O_4  and  C_40 
REMARK    5  A    between atoms: O_4  and  C_41 
REMARK    6  A    between atoms: N_5  and  C_18 
REMARK    7  A    between atoms: N_6  and  C_25 
REMARK       I    between atoms: N_7  and  C_27 
REMARK       I    between atoms: N_10  and  C_27 
REMARK    8  A    between atoms: N_10  and  C_34 
REMARK    9  A    between atoms: C_18  and  C_19 
REMARK   10  A    between atoms: C_19  and  C_24 
ROOT
HETATM    1  N   UNK N   1      30.807  17.805   9.446  0.00  0.00    -0.338 N 
ATOM      2  HN  UNK N   1      31.506  17.643  10.171  1.00  0.00     0.168 HD
HETATM    3  N   UNK N   1      28.700  18.668   8.809  0.00  0.00    -0.351 N 
ATOM      4  HN  UNK N   1      27.829  19.137   9.061  1.00  0.00     0.166 HD
HETATM    5  C   UNK N   1      31.044  17.374   8.178  0.00  0.00     0.117 A 
HETATM    6  C   UNK N   1      30.089  17.622   7.182  0.00  0.00     0.037 A 
HETATM    7  C   UNK N   1      28.900  18.268   7.526  0.00  0.00     0.050 A 
HETATM    8  C   UNK N   1      28.140  18.049   5.211  0.00  0.00     0.104 A 
HETATM    9  C   UNK N   1      30.303  17.240   5.864  0.00  0.00     0.057 A 
HETATM   10  C   UNK N   1      27.924  18.477   6.545  0.00  0.00     0.070 A 
HETATM   11  C   UNK N   1      29.364  17.434   4.872  0.00  0.00     0.102 A 
HETATM   12  C   UNK N   1      29.650  18.450   9.761  0.00  0.00     0.182 A 
ENDROOT
BRANCH   5  13
HETATM   13  N   UNK N   1      32.237  16.658   7.882  0.00  0.00    -0.363 N 
HETATM   14  C   UNK N   1      33.511  17.351   7.976  0.00  0.00     0.144 C 
HETATM   15  C   UNK N   1      34.155  17.099   9.343  0.00  0.00     0.147 C 
HETATM   16  N   UNK N   1      34.078  15.691   9.667  0.00  0.00    -0.331 N 
HETATM   17  C   UNK N   1      32.812  14.986   9.519  0.00  0.00     0.147 C 
HETATM   18  C   UNK N   1      35.208  15.009   9.960  0.00  0.00     0.323 C 
HETATM   19  C   UNK N   1      32.249  15.234   8.119  0.00  0.00     0.144 C 
HETATM   20  O   UNK N   1      36.284  15.597  10.003  0.00  0.00    -0.247 OA
HETATM   21  N   UNK N   1      35.162  13.668  10.108  0.00  0.00    -0.309 N 
HETATM   22  H   UNK N   1      34.310  13.229  10.333  0.00  0.00     0.170 HD
BRANCH  21  23
HETATM   23  C   UNK N   1      36.321  12.895   9.942  0.00  0.00     0.036 A 
HETATM   24  C   UNK N   1      36.867  12.835   8.664  0.00  0.00     0.032 A 
HETATM   25  C   UNK N   1      38.027  12.121   8.433  0.00  0.00     0.039 A 
HETATM   26  C   UNK N   1      38.665  11.449   9.484  0.00  0.00     0.069 A 
HETATM   27  C   UNK N   1      38.132  11.532  10.781  0.00  0.00     0.039 A 
HETATM   28  C   UNK N   1      36.958  12.263  11.016  0.00  0.00     0.032 A 
BRANCH  26  29
HETATM   29  O   UNK N   1      39.768  10.694   9.254  0.00  0.00    -0.347 OA
BRANCH  29  30
HETATM   30  C   UNK N   1      40.583  10.833   8.142  0.00  0.00     0.120 C 
HETATM   31  C   UNK N   1      41.881  11.486   8.559  0.00  0.00     0.040 C 
HETATM   32  C   UNK N   1      40.913   9.484   7.515  0.00  0.00     0.040 C 
ENDBRANCH  29  30
ENDBRANCH  26  29
ENDBRANCH  21  23
ENDBRANCH   5  13
BRANCH  11  33
HETATM   33  O   UNK N   1      29.681  16.995   3.624  0.00  0.00    -0.353 OA
HETATM   34  C   UNK N   1      29.493  15.720   3.147  0.00  0.00     0.210 C 
ENDBRANCH  11  33
BRANCH   8  35
HETATM   35  O   UNK N   1      27.188  18.215   4.266  0.00  0.00    -0.348 OA
BRANCH  35  36
HETATM   36  C   UNK N   1      26.170  19.128   4.367  0.00  0.00     0.177 C 
BRANCH  36  37
HETATM   37  C   UNK N   1      25.118  18.874   3.300  0.00  0.00     0.057 C 
BRANCH  37  38
HETATM   38  C   UNK N   1      24.168  20.058   3.305  0.00  0.00     0.274 C 
BRANCH  38  39
HETATM   39  N   UNK N   1      22.818  19.702   3.739  0.00  0.00     0.088 N 
HETATM   40  C   UNK N   1      21.928  20.200   2.692  0.00  0.00     0.272 C 
HETATM   41  C   UNK N   1      20.471  19.920   3.049  0.00  0.00     0.030 C 
HETATM   42  C   UNK N   1      20.265  18.422   3.248  0.00  0.00     0.003 C 
HETATM   43  C   UNK N   1      21.256  17.889   4.273  0.00  0.00     0.030 C 
HETATM   44  C   UNK N   1      22.665  18.244   3.819  0.00  0.00     0.272 C 
ENDBRANCH  38  39
ENDBRANCH  37  38
ENDBRANCH  36  37
ENDBRANCH  35  36
ENDBRANCH   8  35
TORSDOF 10
ENDMDL
