REMARK  8 active torsions:
REMARK  status: ('A' for Active; 'I' for Inactive)
REMARK    1  A    between atoms: C_7  and  O_1 
REMARK    2  A    between atoms: N_3  and  C_9 
REMARK    3  A    between atoms: C_10  and  N_4 
REMARK       I    between atoms: N_4  and  C_12 
REMARK    4  A    between atoms: C_9  and  C_10 
REMARK    5  A    between atoms: C_10  and  C_11 
REMARK    6  A    between atoms: C_12  and  C_13 
REMARK    7  A    between atoms: C_13  and  C_17 
REMARK    8  A    between atoms: C_13  and  C_18 
ROOT
HETATM    1  O   UNK N   1       4.925  -0.785   1.360  0.00  0.00    -0.272 OA
HETATM    2  N   UNK N   1       5.274   0.388  -0.537  0.00  0.00    -0.345 N 
HETATM    3  C   UNK N   1       5.576  -0.625   0.336  0.00  0.00     0.233 C 
HETATM    4  C   UNK N   1       6.043   0.543  -1.752  0.00  0.00     0.153 C 
ENDROOT
BRANCH   2   5
HETATM    5  C   UNK N   1       4.238   1.380  -0.288  0.00  0.00     0.148 C 
BRANCH   5   6
HETATM    6  C   UNK N   1       2.991   0.928   0.471  0.00  0.00     0.302 C 
BRANCH   6   7
HETATM    7  N   UNK N   1       1.863   0.866  -0.445  0.00  0.00     0.093 N 
HETATM    8  C   UNK N   1       1.259   2.185  -0.524  0.00  0.00     0.303 C 
HETATM    9  C   UNK N   1      -0.180   1.941  -0.876  0.00  0.00     0.148 C 
HETATM   10  C   UNK N   1      -0.513   0.676  -0.127  0.00  0.00     0.064 C 
HETATM   11  C   UNK N   1       0.834   0.024   0.150  0.00  0.00     0.275 C 
BRANCH   9  12
HETATM   12  O   UNK N   1      -0.972   2.997  -0.428  0.00  0.00    -0.394 OA
HETATM   13  H   UNK N   1      -0.611   3.842  -0.116  0.00  0.00     0.210 HD
ENDBRANCH   9  12
ENDBRANCH   6   7
ENDBRANCH   5   6
BRANCH   5  14
HETATM   14  C   UNK N   1       4.750   2.763   0.010  0.00  0.00    -0.034 A 
HETATM   15  C   UNK N   1       3.959   3.875  -0.303  0.00  0.00     0.009 A 
HETATM   16  C   UNK N   1       4.438   5.169  -0.082  0.00  0.00     0.001 A 
HETATM   17  C   UNK N   1       5.717   5.359   0.448  0.00  0.00     0.000 A 
HETATM   18  C   UNK N   1       6.515   4.255   0.761  0.00  0.00     0.001 A 
HETATM   19  C   UNK N   1       6.035   2.960   0.541  0.00  0.00     0.009 A 
ENDBRANCH   5  14
ENDBRANCH   2   5
BRANCH   3  20
HETATM   20  C   UNK N   1       6.762  -1.523   0.091  0.00  0.00     0.144 C 
BRANCH  20  21
HETATM   21  C   UNK N   1       6.605  -3.006  -0.155  0.00  0.00    -0.041 A 
HETATM   22  C   UNK N   1       7.720  -3.798  -0.471  0.00  0.00     0.008 A 
HETATM   23  C   UNK N   1       7.567  -5.164  -0.730  0.00  0.00     0.001 A 
HETATM   24  C   UNK N   1       6.300  -5.750  -0.669  0.00  0.00     0.000 A 
HETATM   25  C   UNK N   1       5.185  -4.970  -0.351  0.00  0.00     0.001 A 
HETATM   26  C   UNK N   1       5.336  -3.602  -0.101  0.00  0.00     0.008 A 
ENDBRANCH  20  21
BRANCH  20  27
HETATM   27  C   UNK N   1       8.100  -0.844   0.131  0.00  0.00    -0.041 A 
HETATM   28  C   UNK N   1       8.450  -0.088   1.258  0.00  0.00     0.008 A 
HETATM   29  C   UNK N   1       9.652   0.622   1.284  0.00  0.00     0.001 A 
HETATM   30  C   UNK N   1      10.512   0.577   0.184  0.00  0.00     0.000 A 
HETATM   31  C   UNK N   1      10.170  -0.181  -0.941  0.00  0.00     0.001 A 
HETATM   32  C   UNK N   1       8.961  -0.883  -0.973  0.00  0.00     0.008 A 
ENDBRANCH  20  27
ENDBRANCH   3  20
TORSDOF 8
