MODEL 1
REMARK VINA RESULT:      -7.5      0.000      0.000
REMARK  7 active torsions:
REMARK  status: ('A' for Active; 'I' for Inactive)
REMARK    1  A    between atoms: O_4  and  C_15 
REMARK    2  A    between atoms: O_4  and  C_16 
REMARK    3  A    between atoms: C_13  and  C_14 
REMARK    4  A    between atoms: C_13  and  C_15 
REMARK    5  A    between atoms: C_14  and  C_22 
REMARK    6  A    between atoms: C_19  and  C_26 
REMARK    7  A    between atoms: C_29  and  C_30 
ROOT
HETATM    1  C   UNK N   1      31.244  17.287   6.012  0.00  0.00     0.080 A 
HETATM    2  C   UNK N   1      30.871  17.328   7.377  0.00  0.00    -0.027 A 
HETATM    3  C   UNK N   1      32.602  17.260   5.665  0.00  0.00    -0.027 A 
HETATM    4  C   UNK N   1      33.207  17.182   8.008  0.00  0.00     0.011 A 
HETATM    5  C   UNK N   1      31.859  17.283   8.366  0.00  0.00     0.025 A 
HETATM    6  C   UNK N   1      33.571  17.181   6.659  0.00  0.00     0.025 A 
HETATM    7  C   UNK N   1      29.441  17.393   7.795  0.00  0.00     0.051 C 
HETATM    8  C   UNK N   1      33.029  17.235   4.238  0.00  0.00     0.051 C 
ENDROOT
BRANCH   1   9
HETATM    9  O   UNK N   1      30.322  17.236   5.023  0.00  0.00    -0.350 OA
BRANCH   9  10
HETATM   10  C   UNK N   1      29.732  16.047   4.646  0.00  0.00     0.176 C 
BRANCH  10  11
HETATM   11  C   UNK N   1      28.209  16.211   4.513  0.00  0.00     0.033 C 
BRANCH  11  12
HETATM   12  C   UNK N   1      27.809  17.443   3.697  0.00  0.00     0.069 C 
BRANCH  12  13
HETATM   13  C   UNK N   1      27.224  18.501   4.567  0.00  0.00     0.078 A 
HETATM   14  O   UNK N   1      26.008  18.469   5.060  0.00  0.00    -0.242 OA
HETATM   15  N   UNK N   1      25.768  19.535   5.763  0.00  0.00    -0.266 N 
HETATM   16  C   UNK N   1      26.881  20.289   5.725  0.00  0.00     0.031 A 
ATOM     17  HN  UNK N   1      24.901  19.758   6.250  1.00  0.00     0.194 HD
HETATM   18  C   UNK N   1      27.849  19.663   4.968  0.00  0.00     0.061 A 
HETATM   19  C   UNK N   1      27.016  21.606   6.399  0.00  0.00     0.070 C 
ENDBRANCH  12  13
ENDBRANCH  11  12
ENDBRANCH  10  11
ENDBRANCH   9  10
ENDBRANCH   1   9
BRANCH   4  20
HETATM   20  C   UNK N   1      34.227  16.909   9.020  0.00  0.00     0.138 A 
HETATM   21  N   UNK N   1      34.347  15.717   9.634  0.00  0.00    -0.315 N 
HETATM   22  C   UNK N   1      35.259  15.965  10.588  0.00  0.00     0.256 A 
ATOM     23  HN  UNK N   1      33.865  14.843   9.426  1.00  0.00     0.169 HD
HETATM   24  O   UNK N   1      35.663  17.213  10.532  0.00  0.00    -0.213 OA
HETATM   25  N   UNK N   1      35.034  17.832   9.579  0.00  0.00    -0.242 N 
ATOM     26  HN  UNK N   1      35.130  18.811   9.309  1.00  0.00     0.196 HD
BRANCH  22  27
HETATM   27  C   UNK N   1      35.671  14.978  11.627  0.00  0.00     0.458 C 
HETATM   28  F   UNK N   1      36.711  14.197  11.155  0.00  0.00    -0.163 F 
HETATM   29  F   UNK N   1      34.595  14.160  11.918  0.00  0.00    -0.163 F 
HETATM   30  F   UNK N   1      36.073  15.637  12.771  0.00  0.00    -0.163 F 
ENDBRANCH  22  27
ENDBRANCH   4  20
TORSDOF 7
ENDMDL
MODEL 2
REMARK VINA RESULT:      -7.4      5.626      8.599
REMARK  7 active torsions:
REMARK  status: ('A' for Active; 'I' for Inactive)
REMARK    1  A    between atoms: O_4  and  C_15 
REMARK    2  A    between atoms: O_4  and  C_16 
REMARK    3  A    between atoms: C_13  and  C_14 
REMARK    4  A    between atoms: C_13  and  C_15 
REMARK    5  A    between atoms: C_14  and  C_22 
REMARK    6  A    between atoms: C_19  and  C_26 
REMARK    7  A    between atoms: C_29  and  C_30 
ROOT
HETATM    1  C   UNK N   1      30.195  17.032   8.068  0.00  0.00     0.080 A 
HETATM    2  C   UNK N   1      29.500  18.202   8.459  0.00  0.00    -0.027 A 
HETATM    3  C   UNK N   1      29.980  16.494   6.791  0.00  0.00    -0.027 A 
HETATM    4  C   UNK N   1      28.502  18.334   6.255  0.00  0.00     0.011 A 
HETATM    5  C   UNK N   1      28.651  18.839   7.550  0.00  0.00     0.025 A 
HETATM    6  C   UNK N   1      29.160  17.158   5.887  0.00  0.00     0.025 A 
HETATM    7  C   UNK N   1      29.669  18.791   9.818  0.00  0.00     0.051 C 
HETATM    8  C   UNK N   1      30.682  15.254   6.353  0.00  0.00     0.051 C 
ENDROOT
BRANCH   1   9
HETATM    9  O   UNK N   1      31.096  16.433   8.880  0.00  0.00    -0.350 OA
BRANCH   9  10
HETATM   10  C   UNK N   1      32.439  16.389   8.563  0.00  0.00     0.176 C 
BRANCH  10  11
HETATM   11  C   UNK N   1      32.985  17.803   8.308  0.00  0.00     0.033 C 
BRANCH  11  12
HETATM   12  C   UNK N   1      34.185  17.819   7.358  0.00  0.00     0.069 C 
BRANCH  12  13
HETATM   13  C   UNK N   1      33.839  17.215   6.041  0.00  0.00     0.078 A 
HETATM   14  O   UNK N   1      34.334  16.087   5.587  0.00  0.00    -0.242 OA
HETATM   15  N   UNK N   1      33.867  15.822   4.404  0.00  0.00    -0.266 N 
HETATM   16  C   UNK N   1      33.028  16.821   4.079  0.00  0.00     0.031 A 
ATOM     17  HN  UNK N   1      34.094  15.010   3.831  1.00  0.00     0.194 HD
HETATM   18  C   UNK N   1      32.975  17.743   5.105  0.00  0.00     0.061 A 
HETATM   19  C   UNK N   1      32.290  16.903   2.793  0.00  0.00     0.070 C 
ENDBRANCH  12  13
ENDBRANCH  11  12
ENDBRANCH  10  11
ENDBRANCH   9  10
ENDBRANCH   1   9
BRANCH   4  20
HETATM   20  C   UNK N   1      27.801  19.107   5.231  0.00  0.00     0.138 A 
HETATM   21  N   UNK N   1      26.468  19.054   5.058  0.00  0.00    -0.315 N 
HETATM   22  C   UNK N   1      26.285  19.753   3.927  0.00  0.00     0.256 A 
ATOM     23  HN  UNK N   1      25.768  18.596   5.643  1.00  0.00     0.169 HD
HETATM   24  O   UNK N   1      27.431  20.204   3.470  0.00  0.00    -0.213 OA
HETATM   25  N   UNK N   1      28.395  19.811   4.246  0.00  0.00    -0.242 N 
ATOM     26  HN  UNK N   1      29.392  19.996   4.136  1.00  0.00     0.196 HD
BRANCH  22  27
HETATM   27  C   UNK N   1      24.971  19.903   3.239  0.00  0.00     0.458 C 
HETATM   28  F   UNK N   1      24.256  18.721   3.321  0.00  0.00    -0.163 F 
HETATM   29  F   UNK N   1      25.194  20.198   1.906  0.00  0.00    -0.163 F 
HETATM   30  F   UNK N   1      24.245  20.922   3.822  0.00  0.00    -0.163 F 
ENDBRANCH  22  27
ENDBRANCH   4  20
TORSDOF 7
ENDMDL
MODEL 3
REMARK VINA RESULT:      -7.4      2.107      2.501
REMARK  7 active torsions:
REMARK  status: ('A' for Active; 'I' for Inactive)
REMARK    1  A    between atoms: O_4  and  C_15 
REMARK    2  A    between atoms: O_4  and  C_16 
REMARK    3  A    between atoms: C_13  and  C_14 
REMARK    4  A    between atoms: C_13  and  C_15 
REMARK    5  A    between atoms: C_14  and  C_22 
REMARK    6  A    between atoms: C_19  and  C_26 
REMARK    7  A    between atoms: C_29  and  C_30 
ROOT
HETATM    1  C   UNK N   1      29.650  17.653   6.722  0.00  0.00     0.080 A 
HETATM    2  C   UNK N   1      29.778  18.006   8.087  0.00  0.00    -0.027 A 
HETATM    3  C   UNK N   1      30.797  17.338   5.979  0.00  0.00    -0.027 A 
HETATM    4  C   UNK N   1      32.162  17.592   7.960  0.00  0.00     0.011 A 
HETATM    5  C   UNK N   1      31.037  17.980   8.694  0.00  0.00     0.025 A 
HETATM    6  C   UNK N   1      32.036  17.282   6.604  0.00  0.00     0.025 A 
HETATM    7  C   UNK N   1      28.593  18.384   8.909  0.00  0.00     0.051 C 
HETATM    8  C   UNK N   1      30.700  16.979   4.536  0.00  0.00     0.051 C 
ENDROOT
BRANCH   1   9
HETATM    9  O   UNK N   1      28.444  17.575   6.115  0.00  0.00    -0.350 OA
BRANCH   9  10
HETATM   10  C   UNK N   1      27.749  18.707   5.739  0.00  0.00     0.176 C 
BRANCH  10  11
HETATM   11  C   UNK N   1      27.337  18.628   4.260  0.00  0.00     0.033 C 
BRANCH  11  12
HETATM   12  C   UNK N   1      26.960  19.989   3.670  0.00  0.00     0.069 C 
BRANCH  12  13
HETATM   13  C   UNK N   1      25.504  20.061   3.365  0.00  0.00     0.078 A 
HETATM   14  O   UNK N   1      24.969  20.874   2.484  0.00  0.00    -0.242 OA
HETATM   15  N   UNK N   1      23.678  20.729   2.448  0.00  0.00    -0.266 N 
HETATM   16  C   UNK N   1      23.365  19.777   3.344  0.00  0.00     0.031 A 
ATOM     17  HN  UNK N   1      23.027  21.241   1.854  1.00  0.00     0.194 HD
HETATM   18  C   UNK N   1      24.510  19.314   3.959  0.00  0.00     0.061 A 
HETATM   19  C   UNK N   1      21.979  19.319   3.621  0.00  0.00     0.070 C 
ENDBRANCH  12  13
ENDBRANCH  11  12
ENDBRANCH  10  11
ENDBRANCH   9  10
ENDBRANCH   1   9
BRANCH   4  20
HETATM   20  C   UNK N   1      33.438  17.344   8.632  0.00  0.00     0.138 A 
HETATM   21  N   UNK N   1      33.677  16.240   9.363  0.00  0.00    -0.315 N 
HETATM   22  C   UNK N   1      34.865  16.509   9.928  0.00  0.00     0.256 A 
ATOM     23  HN  UNK N   1      33.099  15.406   9.463  1.00  0.00     0.169 HD
HETATM   24  O   UNK N   1      35.307  17.685   9.545  0.00  0.00    -0.213 OA
HETATM   25  N   UNK N   1      34.440  18.238   8.750  0.00  0.00    -0.242 N 
ATOM     26  HN  UNK N   1      34.505  19.154   8.307  1.00  0.00     0.196 HD
BRANCH  22  27
HETATM   27  C   UNK N   1      35.531  15.631  10.932  0.00  0.00     0.458 C 
HETATM   28  F   UNK N   1      36.837  15.379  10.550  0.00  0.00    -0.163 F 
HETATM   29  F   UNK N   1      34.847  14.431  11.001  0.00  0.00    -0.163 F 
HETATM   30  F   UNK N   1      35.523  16.239  12.171  0.00  0.00    -0.163 F 
ENDBRANCH  22  27
ENDBRANCH   4  20
TORSDOF 7
ENDMDL
MODEL 4
REMARK VINA RESULT:      -7.2      2.999      4.426
REMARK  7 active torsions:
REMARK  status: ('A' for Active; 'I' for Inactive)
REMARK    1  A    between atoms: O_4  and  C_15 
REMARK    2  A    between atoms: O_4  and  C_16 
REMARK    3  A    between atoms: C_13  and  C_14 
REMARK    4  A    between atoms: C_13  and  C_15 
REMARK    5  A    between atoms: C_14  and  C_22 
REMARK    6  A    between atoms: C_19  and  C_26 
REMARK    7  A    between atoms: C_29  and  C_30 
ROOT
HETATM    1  C   UNK N   1      34.809  15.781   7.507  0.00  0.00     0.080 A 
HETATM    2  C   UNK N   1      34.857  14.380   7.703  0.00  0.00    -0.027 A 
HETATM    3  C   UNK N   1      34.636  16.628   8.612  0.00  0.00    -0.027 A 
HETATM    4  C   UNK N   1      34.691  14.718  10.097  0.00  0.00     0.011 A 
HETATM    5  C   UNK N   1      34.789  13.859   8.998  0.00  0.00     0.025 A 
HETATM    6  C   UNK N   1      34.606  16.098   9.896  0.00  0.00     0.025 A 
HETATM    7  C   UNK N   1      35.003  13.437   6.557  0.00  0.00     0.051 C 
HETATM    8  C   UNK N   1      34.564  18.107   8.440  0.00  0.00     0.051 C 
ENDROOT
BRANCH   1   9
HETATM    9  O   UNK N   1      34.962  16.336   6.283  0.00  0.00    -0.350 OA
BRANCH   9  10
HETATM   10  C   UNK N   1      34.034  16.141   5.280  0.00  0.00     0.176 C 
BRANCH  10  11
HETATM   11  C   UNK N   1      32.815  17.056   5.478  0.00  0.00     0.033 C 
BRANCH  11  12
HETATM   12  C   UNK N   1      31.533  16.285   5.798  0.00  0.00     0.069 C 
BRANCH  12  13
HETATM   13  C   UNK N   1      30.672  17.038   6.752  0.00  0.00     0.078 A 
HETATM   14  O   UNK N   1      29.513  17.573   6.445  0.00  0.00    -0.242 OA
HETATM   15  N   UNK N   1      29.001  18.184   7.471  0.00  0.00    -0.266 N 
HETATM   16  C   UNK N   1      29.867  18.035   8.489  0.00  0.00     0.031 A 
ATOM     17  HN  UNK N   1      28.113  18.683   7.498  1.00  0.00     0.194 HD
HETATM   18  C   UNK N   1      30.959  17.300   8.075  0.00  0.00     0.061 A 
HETATM   19  C   UNK N   1      29.659  18.600   9.847  0.00  0.00     0.070 C 
ENDBRANCH  12  13
ENDBRANCH  11  12
ENDBRANCH  10  11
ENDBRANCH   9  10
ENDBRANCH   1   9
BRANCH   4  20
HETATM   20  C   UNK N   1      34.846  14.205  11.458  0.00  0.00     0.138 A 
HETATM   21  N   UNK N   1      35.652  14.781  12.369  0.00  0.00    -0.315 N 
HETATM   22  C   UNK N   1      35.631  13.900  13.383  0.00  0.00     0.256 A 
ATOM     23  HN  UNK N   1      36.154  15.666  12.305  1.00  0.00     0.169 HD
HETATM   24  O   UNK N   1      34.853  12.882  13.098  0.00  0.00    -0.213 OA
HETATM   25  N   UNK N   1      34.359  13.031  11.906  0.00  0.00    -0.242 N 
ATOM     26  HN  UNK N   1      33.734  12.394  11.412  1.00  0.00     0.196 HD
BRANCH  22  27
HETATM   27  C   UNK N   1      36.462  14.024  14.614  0.00  0.00     0.458 C 
HETATM   28  F   UNK N   1      35.676  13.843  15.738  0.00  0.00    -0.163 F 
HETATM   29  F   UNK N   1      37.015  15.291  14.656  0.00  0.00    -0.163 F 
HETATM   30  F   UNK N   1      37.470  13.081  14.601  0.00  0.00    -0.163 F 
ENDBRANCH  22  27
ENDBRANCH   4  20
TORSDOF 7
ENDMDL
MODEL 5
REMARK VINA RESULT:      -7.1      6.437     10.695
REMARK  7 active torsions:
REMARK  status: ('A' for Active; 'I' for Inactive)
REMARK    1  A    between atoms: O_4  and  C_15 
REMARK    2  A    between atoms: O_4  and  C_16 
REMARK    3  A    between atoms: C_13  and  C_14 
REMARK    4  A    between atoms: C_13  and  C_15 
REMARK    5  A    between atoms: C_14  and  C_22 
REMARK    6  A    between atoms: C_19  and  C_26 
REMARK    7  A    between atoms: C_29  and  C_30 
ROOT
HETATM    1  C   UNK N   1      27.889  17.483   5.138  0.00  0.00     0.080 A 
HETATM    2  C   UNK N   1      27.374  18.600   5.840  0.00  0.00    -0.027 A 
HETATM    3  C   UNK N   1      27.214  17.009   4.004  0.00  0.00    -0.027 A 
HETATM    4  C   UNK N   1      25.611  18.813   4.191  0.00  0.00     0.011 A 
HETATM    5  C   UNK N   1      26.232  19.251   5.365  0.00  0.00     0.025 A 
HETATM    6  C   UNK N   1      26.100  17.688   3.523  0.00  0.00     0.025 A 
HETATM    7  C   UNK N   1      28.036  19.119   7.071  0.00  0.00     0.051 C 
HETATM    8  C   UNK N   1      27.718  15.826   3.251  0.00  0.00     0.051 C 
ENDROOT
BRANCH   1   9
HETATM    9  O   UNK N   1      29.040  16.878   5.506  0.00  0.00    -0.350 OA
BRANCH   9  10
HETATM   10  C   UNK N   1      30.268  17.475   5.303  0.00  0.00     0.176 C 
BRANCH  10  11
HETATM   11  C   UNK N   1      31.294  16.977   6.334  0.00  0.00     0.033 C 
BRANCH  11  12
HETATM   12  C   UNK N   1      32.734  17.350   5.974  0.00  0.00     0.069 C 
BRANCH  12  13
HETATM   13  C   UNK N   1      33.571  17.517   7.196  0.00  0.00     0.078 A 
HETATM   14  O   UNK N   1      34.263  18.595   7.482  0.00  0.00    -0.242 OA
HETATM   15  N   UNK N   1      34.910  18.444   8.598  0.00  0.00    -0.266 N 
HETATM   16  C   UNK N   1      34.621  17.215   9.057  0.00  0.00     0.031 A 
ATOM     17  HN  UNK N   1      35.522  19.129   9.041  1.00  0.00     0.194 HD
HETATM   18  C   UNK N   1      33.758  16.578   8.188  0.00  0.00     0.061 A 
HETATM   19  C   UNK N   1      35.172  16.644  10.313  0.00  0.00     0.070 C 
ENDBRANCH  12  13
ENDBRANCH  11  12
ENDBRANCH  10  11
ENDBRANCH   9  10
ENDBRANCH   1   9
BRANCH   4  20
HETATM   20  C   UNK N   1      24.560  19.612   3.563  0.00  0.00     0.138 A 
HETATM   21  N   UNK N   1      23.252  19.319   3.675  0.00  0.00    -0.315 N 
HETATM   22  C   UNK N   1      22.680  20.177   2.815  0.00  0.00     0.256 A 
ATOM     23  HN  UNK N   1      22.805  18.619   4.267  1.00  0.00     0.169 HD
HETATM   24  O   UNK N   1      23.586  20.937   2.245  0.00  0.00    -0.213 OA
HETATM   25  N   UNK N   1      24.766  20.606   2.675  0.00  0.00    -0.242 N 
ATOM     26  HN  UNK N   1      25.661  21.012   2.400  1.00  0.00     0.196 HD
BRANCH  22  27
HETATM   27  C   UNK N   1      21.226  20.184   2.485  0.00  0.00     0.458 C 
HETATM   28  F   UNK N   1      20.983  21.045   1.428  0.00  0.00    -0.163 F 
HETATM   29  F   UNK N   1      20.518  20.623   3.589  0.00  0.00    -0.163 F 
HETATM   30  F   UNK N   1      20.811  18.912   2.146  0.00  0.00    -0.163 F 
ENDBRANCH  22  27
ENDBRANCH   4  20
TORSDOF 7
ENDMDL
MODEL 6
REMARK VINA RESULT:      -7.0      2.468      3.495
REMARK  7 active torsions:
REMARK  status: ('A' for Active; 'I' for Inactive)
REMARK    1  A    between atoms: O_4  and  C_15 
REMARK    2  A    between atoms: O_4  and  C_16 
REMARK    3  A    between atoms: C_13  and  C_14 
REMARK    4  A    between atoms: C_13  and  C_15 
REMARK    5  A    between atoms: C_14  and  C_22 
REMARK    6  A    between atoms: C_19  and  C_26 
REMARK    7  A    between atoms: C_29  and  C_30 
ROOT
HETATM    1  C   UNK N   1      29.005  17.834   6.186  0.00  0.00     0.080 A 
HETATM    2  C   UNK N   1      29.903  17.082   5.390  0.00  0.00    -0.027 A 
HETATM    3  C   UNK N   1      29.247  17.971   7.560  0.00  0.00    -0.027 A 
HETATM    4  C   UNK N   1      31.318  16.741   7.328  0.00  0.00     0.011 A 
HETATM    5  C   UNK N   1      31.050  16.534   5.971  0.00  0.00     0.025 A 
HETATM    6  C   UNK N   1      30.410  17.450   8.116  0.00  0.00     0.025 A 
HETATM    7  C   UNK N   1      29.669  16.878   3.932  0.00  0.00     0.051 C 
HETATM    8  C   UNK N   1      28.313  18.740   8.430  0.00  0.00     0.051 C 
ENDROOT
BRANCH   1   9
HETATM    9  O   UNK N   1      27.931  18.459   5.652  0.00  0.00    -0.350 OA
BRANCH   9  10
HETATM   10  C   UNK N   1      28.035  19.710   5.079  0.00  0.00     0.176 C 
BRANCH  10  11
HETATM   11  C   UNK N   1      26.644  20.325   4.853  0.00  0.00     0.033 C 
BRANCH  11  12
HETATM   12  C   UNK N   1      26.183  20.246   3.396  0.00  0.00     0.069 C 
BRANCH  12  13
HETATM   13  C   UNK N   1      24.704  20.088   3.305  0.00  0.00     0.078 A 
HETATM   14  O   UNK N   1      23.915  20.873   2.609  0.00  0.00    -0.242 OA
HETATM   15  N   UNK N   1      22.675  20.507   2.733  0.00  0.00    -0.266 N 
HETATM   16  C   UNK N   1      22.661  19.434   3.544  0.00  0.00     0.031 A 
ATOM     17  HN  UNK N   1      21.865  20.950   2.300  1.00  0.00     0.194 HD
HETATM   18  C   UNK N   1      23.947  19.124   3.936  0.00  0.00     0.061 A 
HETATM   19  C   UNK N   1      21.427  18.714   3.951  0.00  0.00     0.070 C 
ENDBRANCH  12  13
ENDBRANCH  11  12
ENDBRANCH  10  11
ENDBRANCH   9  10
ENDBRANCH   1   9
BRANCH   4  20
HETATM   20  C   UNK N   1      32.614  16.370   7.894  0.00  0.00     0.138 A 
HETATM   21  N   UNK N   1      32.789  16.090   9.199  0.00  0.00    -0.315 N 
HETATM   22  C   UNK N   1      34.124  15.989   9.305  0.00  0.00     0.256 A 
ATOM     23  HN  UNK N   1      32.083  15.983   9.927  1.00  0.00     0.169 HD
HETATM   24  O   UNK N   1      34.699  16.179   8.140  0.00  0.00    -0.213 OA
HETATM   25  N   UNK N   1      33.793  16.431   7.244  0.00  0.00    -0.242 N 
ATOM     26  HN  UNK N   1      33.942  16.632   6.255  1.00  0.00     0.196 HD
BRANCH  22  27
HETATM   27  C   UNK N   1      34.847  15.791  10.594  0.00  0.00     0.458 C 
HETATM   28  F   UNK N   1      36.033  15.113  10.374  0.00  0.00    -0.163 F 
HETATM   29  F   UNK N   1      34.054  15.039  11.441  0.00  0.00    -0.163 F 
HETATM   30  F   UNK N   1      35.117  17.013  11.178  0.00  0.00    -0.163 F 
ENDBRANCH  22  27
ENDBRANCH   4  20
TORSDOF 7
ENDMDL
MODEL 7
REMARK VINA RESULT:      -7.0     12.449     14.913
REMARK  7 active torsions:
REMARK  status: ('A' for Active; 'I' for Inactive)
REMARK    1  A    between atoms: O_4  and  C_15 
REMARK    2  A    between atoms: O_4  and  C_16 
REMARK    3  A    between atoms: C_13  and  C_14 
REMARK    4  A    between atoms: C_13  and  C_15 
REMARK    5  A    between atoms: C_14  and  C_22 
REMARK    6  A    between atoms: C_19  and  C_26 
REMARK    7  A    between atoms: C_29  and  C_30 
ROOT
HETATM    1  C   UNK N   1      26.708  24.788  -5.705  0.00  0.00     0.080 A 
HETATM    2  C   UNK N   1      27.494  23.781  -6.316  0.00  0.00    -0.027 A 
HETATM    3  C   UNK N   1      26.932  25.119  -4.361  0.00  0.00    -0.027 A 
HETATM    4  C   UNK N   1      28.781  23.560  -4.274  0.00  0.00     0.011 A 
HETATM    5  C   UNK N   1      28.520  23.169  -5.591  0.00  0.00     0.025 A 
HETATM    6  C   UNK N   1      27.978  24.527  -3.664  0.00  0.00     0.025 A 
HETATM    7  C   UNK N   1      27.271  23.369  -7.732  0.00  0.00     0.051 C 
HETATM    8  C   UNK N   1      26.112  26.162  -3.682  0.00  0.00     0.051 C 
ENDROOT
BRANCH   1   9
HETATM    9  O   UNK N   1      25.766  25.472  -6.393  0.00  0.00    -0.350 OA
BRANCH   9  10
HETATM   10  C   UNK N   1      25.909  26.817  -6.672  0.00  0.00     0.176 C 
BRANCH  10  11
HETATM   11  C   UNK N   1      27.214  27.079  -7.440  0.00  0.00     0.033 C 
BRANCH  11  12
HETATM   12  C   UNK N   1      27.944  28.338  -6.967  0.00  0.00     0.069 C 
BRANCH  12  13
HETATM   13  C   UNK N   1      28.676  28.092  -5.692  0.00  0.00     0.078 A 
HETATM   14  O   UNK N   1      28.436  28.720  -4.564  0.00  0.00    -0.242 OA
HETATM   15  N   UNK N   1      29.242  28.312  -3.631  0.00  0.00    -0.266 N 
HETATM   16  C   UNK N   1      30.038  27.377  -4.178  0.00  0.00     0.031 A 
ATOM     17  HN  UNK N   1      29.268  28.641  -2.666  1.00  0.00     0.194 HD
HETATM   18  C   UNK N   1      29.709  27.198  -5.506  0.00  0.00     0.061 A 
HETATM   19  C   UNK N   1      31.114  26.665  -3.442  0.00  0.00     0.070 C 
ENDBRANCH  12  13
ENDBRANCH  11  12
ENDBRANCH  10  11
ENDBRANCH   9  10
ENDBRANCH   1   9
BRANCH   4  20
HETATM   20  C   UNK N   1      29.983  23.094  -3.584  0.00  0.00     0.138 A 
HETATM   21  N   UNK N   1      30.997  22.477  -4.217  0.00  0.00    -0.315 N 
HETATM   22  C   UNK N   1      31.778  22.070  -3.203  0.00  0.00     0.256 A 
ATOM     23  HN  UNK N   1      31.138  22.350  -5.219  1.00  0.00     0.169 HD
HETATM   24  O   UNK N   1      31.269  22.436  -2.050  0.00  0.00    -0.213 OA
HETATM   25  N   UNK N   1      30.148  23.062  -2.246  0.00  0.00    -0.242 N 
ATOM     26  HN  UNK N   1      29.524  23.450  -1.539  1.00  0.00     0.196 HD
BRANCH  22  27
HETATM   27  C   UNK N   1      32.997  21.230  -3.373  0.00  0.00     0.458 C 
HETATM   28  F   UNK N   1      33.929  21.897  -4.149  0.00  0.00    -0.163 F 
HETATM   29  F   UNK N   1      32.646  20.054  -4.009  0.00  0.00    -0.163 F 
HETATM   30  F   UNK N   1      33.548  20.941  -2.140  0.00  0.00    -0.163 F 
ENDBRANCH  22  27
ENDBRANCH   4  20
TORSDOF 7
ENDMDL
MODEL 8
REMARK VINA RESULT:      -7.0      5.207      9.558
REMARK  7 active torsions:
REMARK  status: ('A' for Active; 'I' for Inactive)
REMARK    1  A    between atoms: O_4  and  C_15 
REMARK    2  A    between atoms: O_4  and  C_16 
REMARK    3  A    between atoms: C_13  and  C_14 
REMARK    4  A    between atoms: C_13  and  C_15 
REMARK    5  A    between atoms: C_14  and  C_22 
REMARK    6  A    between atoms: C_19  and  C_26 
REMARK    7  A    between atoms: C_29  and  C_30 
ROOT
HETATM    1  C   UNK N   1      31.060  17.342   7.540  0.00  0.00     0.080 A 
HETATM    2  C   UNK N   1      29.865  17.941   8.009  0.00  0.00    -0.027 A 
HETATM    3  C   UNK N   1      31.120  16.853   6.227  0.00  0.00    -0.027 A 
HETATM    4  C   UNK N   1      28.878  17.664   5.812  0.00  0.00     0.011 A 
HETATM    5  C   UNK N   1      28.779  18.090   7.141  0.00  0.00     0.025 A 
HETATM    6  C   UNK N   1      30.045  17.040   5.366  0.00  0.00     0.025 A 
HETATM    7  C   UNK N   1      29.741  18.443   9.407  0.00  0.00     0.051 C 
HETATM    8  C   UNK N   1      32.356  16.203   5.707  0.00  0.00     0.051 C 
ENDROOT
BRANCH   1   9
HETATM    9  O   UNK N   1      32.166  17.259   8.313  0.00  0.00    -0.350 OA
BRANCH   9  10
HETATM   10  C   UNK N   1      33.161  18.215   8.257  0.00  0.00     0.176 C 
BRANCH  10  11
HETATM   11  C   UNK N   1      34.533  17.593   8.562  0.00  0.00     0.033 C 
BRANCH  11  12
HETATM   12  C   UNK N   1      34.466  16.083   8.803  0.00  0.00     0.069 C 
BRANCH  12  13
HETATM   13  C   UNK N   1      35.125  15.710  10.086  0.00  0.00     0.078 A 
HETATM   14  O   UNK N   1      36.268  16.202  10.505  0.00  0.00    -0.242 OA
HETATM   15  N   UNK N   1      36.605  15.677  11.645  0.00  0.00    -0.266 N 
HETATM   16  C   UNK N   1      35.634  14.810  11.980  0.00  0.00     0.031 A 
ATOM     17  HN  UNK N   1      37.446  15.884  12.182  1.00  0.00     0.194 HD
HETATM   18  C   UNK N   1      34.656  14.798  11.007  0.00  0.00     0.061 A 
HETATM   19  C   UNK N   1      35.644  13.988  13.218  0.00  0.00     0.070 C 
ENDBRANCH  12  13
ENDBRANCH  11  12
ENDBRANCH  10  11
ENDBRANCH   9  10
ENDBRANCH   1   9
BRANCH   4  20
HETATM   20  C   UNK N   1      27.842  18.014   4.841  0.00  0.00     0.138 A 
HETATM   21  N   UNK N   1      27.561  19.284   4.497  0.00  0.00    -0.315 N 
HETATM   22  C   UNK N   1      26.456  19.152   3.746  0.00  0.00     0.256 A 
ATOM     23  HN  UNK N   1      28.063  20.136   4.745  1.00  0.00     0.169 HD
HETATM   24  O   UNK N   1      26.115  17.888   3.639  0.00  0.00    -0.213 OA
HETATM   25  N   UNK N   1      26.945  17.154   4.317  0.00  0.00    -0.242 N 
ATOM     26  HN  UNK N   1      26.925  16.140   4.430  1.00  0.00     0.196 HD
BRANCH  22  27
HETATM   27  C   UNK N   1      25.673  20.297   3.201  0.00  0.00     0.458 C 
HETATM   28  F   UNK N   1      24.780  19.850   2.243  0.00  0.00    -0.163 F 
HETATM   29  F   UNK N   1      26.545  21.195   2.612  0.00  0.00    -0.163 F 
HETATM   30  F   UNK N   1      24.982  20.925   4.217  0.00  0.00    -0.163 F 
ENDBRANCH  22  27
ENDBRANCH   4  20
TORSDOF 7
ENDMDL
MODEL 9
REMARK VINA RESULT:      -7.0      3.884      6.000
REMARK  7 active torsions:
REMARK  status: ('A' for Active; 'I' for Inactive)
REMARK    1  A    between atoms: O_4  and  C_15 
REMARK    2  A    between atoms: O_4  and  C_16 
REMARK    3  A    between atoms: C_13  and  C_14 
REMARK    4  A    between atoms: C_13  and  C_15 
REMARK    5  A    between atoms: C_14  and  C_22 
REMARK    6  A    between atoms: C_19  and  C_26 
REMARK    7  A    between atoms: C_29  and  C_30 
ROOT
HETATM    1  C   UNK N   1      35.783  14.624   9.378  0.00  0.00     0.080 A 
HETATM    2  C   UNK N   1      35.654  15.558  10.435  0.00  0.00    -0.027 A 
HETATM    3  C   UNK N   1      36.242  13.328   9.653  0.00  0.00    -0.027 A 
HETATM    4  C   UNK N   1      36.316  13.845  12.016  0.00  0.00     0.011 A 
HETATM    5  C   UNK N   1      35.929  15.162  11.747  0.00  0.00     0.025 A 
HETATM    6  C   UNK N   1      36.478  12.939  10.966  0.00  0.00     0.025 A 
HETATM    7  C   UNK N   1      35.204  16.958  10.188  0.00  0.00     0.051 C 
HETATM    8  C   UNK N   1      36.407  12.326   8.562  0.00  0.00     0.051 C 
ENDROOT
BRANCH   1   9
HETATM    9  O   UNK N   1      35.441  14.935   8.107  0.00  0.00    -0.350 OA
BRANCH   9  10
HETATM   10  C   UNK N   1      34.128  14.895   7.682  0.00  0.00     0.176 C 
BRANCH  10  11
HETATM   11  C   UNK N   1      33.960  15.658   6.358  0.00  0.00     0.033 C 
BRANCH  11  12
HETATM   12  C   UNK N   1      33.659  17.145   6.557  0.00  0.00     0.069 C 
BRANCH  12  13
HETATM   13  C   UNK N   1      32.318  17.347   7.173  0.00  0.00     0.078 A 
HETATM   14  O   UNK N   1      31.183  16.991   6.617  0.00  0.00    -0.242 OA
HETATM   15  N   UNK N   1      30.178  17.311   7.375  0.00  0.00    -0.266 N 
HETATM   16  C   UNK N   1      30.685  17.897   8.473  0.00  0.00     0.031 A 
ATOM     17  HN  UNK N   1      29.192  17.149   7.175  1.00  0.00     0.194 HD
HETATM   18  C   UNK N   1      32.062  17.941   8.391  0.00  0.00     0.061 A 
HETATM   19  C   UNK N   1      29.861  18.424   9.592  0.00  0.00     0.070 C 
ENDBRANCH  12  13
ENDBRANCH  11  12
ENDBRANCH  10  11
ENDBRANCH   9  10
ENDBRANCH   1   9
BRANCH   4  20
HETATM   20  C   UNK N   1      36.388  13.358  13.394  0.00  0.00     0.138 A 
HETATM   21  N   UNK N   1      35.421  13.586  14.302  0.00  0.00    -0.315 N 
HETATM   22  C   UNK N   1      35.972  13.137  15.441  0.00  0.00     0.256 A 
ATOM     23  HN  UNK N   1      34.499  13.998  14.159  1.00  0.00     0.169 HD
HETATM   24  O   UNK N   1      37.175  12.661  15.220  0.00  0.00    -0.213 OA
HETATM   25  N   UNK N   1      37.472  12.794  13.963  0.00  0.00    -0.242 N 
ATOM     26  HN  UNK N   1      38.342  12.527  13.501  1.00  0.00     0.196 HD
BRANCH  22  27
HETATM   27  C   UNK N   1      35.334  13.263  16.783  0.00  0.00     0.458 C 
HETATM   28  F   UNK N   1      35.502  12.091  17.500  0.00  0.00    -0.163 F 
HETATM   29  F   UNK N   1      33.981  13.494  16.616  0.00  0.00    -0.163 F 
HETATM   30  F   UNK N   1      35.900  14.313  17.479  0.00  0.00    -0.163 F 
ENDBRANCH  22  27
ENDBRANCH   4  20
TORSDOF 7
ENDMDL
