REMARK  13 active torsions:
REMARK  status: ('A' for Active; 'I' for Inactive)
REMARK    1  A    between atoms: C_2  and  O_3 
REMARK    2  A    between atoms: O_3  and  C_4 
REMARK       I    between atoms: C_4  and  N_6 
REMARK       I    between atoms: N_9  and  C_12 
REMARK    3  A    between atoms: C_12  and  C_14 
REMARK    4  A    between atoms: C_14  and  C_15 
REMARK    5  A    between atoms: C_14  and  N_26 
REMARK    6  A    between atoms: C_15  and  C_16 
REMARK    7  A    between atoms: C_20  and  C_22 
REMARK    8  A    between atoms: C_22  and  N_25 
REMARK    9  A    between atoms: N_26  and  S_27 
REMARK   10  A    between atoms: S_27  and  C_30 
REMARK   11  A    between atoms: C_31  and  C_42 
REMARK   12  A    between atoms: C_33  and  C_39 
REMARK   13  A    between atoms: C_35  and  C_36 
ROOT
HETATM    1  C   UNK N   1      -1.016  -0.616  -0.389  0.00  0.00     0.189 C 
ENDROOT
BRANCH   1   2
HETATM    2  C   UNK N   1      -2.186   0.328  -0.539  0.00  0.00     0.243 C 
HETATM    3  N   UNK N   1      -2.263   1.463   0.214  0.00  0.00    -0.347 N 
HETATM    4  C   UNK N   1      -1.157   1.891   1.033  0.00  0.00     0.146 C 
HETATM    5  C   UNK N   1      -3.349   2.397   0.040  0.00  0.00     0.146 C 
HETATM    6  C   UNK N   1      -0.540   3.102   0.327  0.00  0.00     0.148 C 
HETATM    7  N   UNK N   1      -1.560   4.092   0.001  0.00  0.00    -0.325 N 
HETATM    8  C   UNK N   1      -1.378   5.436   0.221  0.00  0.00     0.362 C 
HETATM    9  C   UNK N   1      -2.788   3.640  -0.641  0.00  0.00     0.148 C 
HETATM   10  O   UNK N   1      -2.287   6.209  -0.051  0.00  0.00    -0.238 OA
HETATM   11  O   UNK N   1      -3.030   0.110  -1.398  0.00  0.00    -0.271 OA
BRANCH   8  12
HETATM   12  O   UNK N   1      -0.223   5.970   0.715  0.00  0.00    -0.304 OA
BRANCH  12  13
HETATM   13  C   UNK N   1       0.987   5.332   0.870  0.00  0.00     0.176 C 
HETATM   14  C   UNK N   1       2.115   6.287   0.537  0.00  0.00     0.034 C 
ENDBRANCH  12  13
ENDBRANCH   8  12
ENDBRANCH   1   2
BRANCH   1  15
HETATM   15  C   UNK N   1      -1.313  -2.126  -0.313  0.00  0.00     0.074 C 
BRANCH  15  16
HETATM   16  C   UNK N   1      -2.652  -2.765  -0.106  0.00  0.00    -0.055 A 
HETATM   17  C   UNK N   1      -2.717  -4.160  -0.176  0.00  0.00     0.007 A 
HETATM   18  C   UNK N   1      -3.942  -4.819  -0.057  0.00  0.00     0.002 A 
HETATM   19  C   UNK N   1      -5.115  -4.081   0.117  0.00  0.00     0.015 A 
HETATM   20  C   UNK N   1      -5.063  -2.682   0.192  0.00  0.00     0.007 A 
HETATM   21  C   UNK N   1      -3.826  -2.035   0.088  0.00  0.00     0.022 A 
BRANCH  20  22
HETATM   22  C   UNK N   1      -6.302  -1.894   0.344  0.00  0.00     0.102 C 
HETATM   23  N   UNK N   1      -6.253  -0.613   0.397  0.00  0.00    -0.385 N 
HETATM   24  H   UNK N   1      -5.383  -0.154   0.437  0.00  0.00     0.157 HD
ATOM     25  HN  UNK N   1      -7.116  -0.069   0.397  1.00  0.00     0.157 HD
BRANCH  22  26
HETATM   26  N   UNK N   1      -7.557  -2.543   0.384  0.00  0.00    -0.385 N 
HETATM   27  H   UNK N   1      -8.385  -2.011   0.413  0.00  0.00     0.157 HD
HETATM   28  H   UNK N   1      -7.603  -3.526   0.384  0.00  0.00     0.157 HD
ENDBRANCH  22  26
ENDBRANCH  20  22
ENDBRANCH  15  16
ENDBRANCH   1  15
BRANCH   1  29
HETATM   29  N   UNK N   1      -0.082  -0.423  -1.486  0.00  0.00    -0.301 N 
HETATM   30  H   UNK N   1      -0.271  -0.635  -2.465  0.00  0.00     0.173 HD
BRANCH  29  31
HETATM   31  S   UNK N   1       1.436   0.238  -0.856  0.00  0.00     0.260 S 
HETATM   32  O   UNK N   1       2.047  -0.214  -2.191  0.00  0.00    -0.200 OA
HETATM   33  O   UNK N   1       1.579   1.684  -1.357  0.00  0.00    -0.200 OA
BRANCH  31  34
HETATM   34  C   UNK N   1       2.882  -0.632  -0.150  0.00  0.00     0.092 A 
HETATM   35  C   UNK N   1       4.135   0.029  -0.007  0.00  0.00    -0.030 A 
HETATM   36  C   UNK N   1       5.255  -0.708   0.425  0.00  0.00     0.016 A 
HETATM   37  C   UNK N   1       5.152  -2.067   0.747  0.00  0.00    -0.054 A 
HETATM   38  C   UNK N   1       3.909  -2.683   0.675  0.00  0.00     0.016 A 
HETATM   39  C   UNK N   1       2.781  -1.992   0.228  0.00  0.00    -0.030 A 
BRANCH  35  40
HETATM   40  C   UNK N   1       4.283   1.508  -0.308  0.00  0.00     0.012 C 
HETATM   41  C   UNK N   1       5.719   2.007  -0.284  0.00  0.00     0.015 C 
HETATM   42  C   UNK N   1       3.500   2.323   0.711  0.00  0.00     0.015 C 
ENDBRANCH  35  40
BRANCH  37  43
HETATM   43  C   UNK N   1       6.342  -2.893   1.169  0.00  0.00     0.010 C 
HETATM   44  C   UNK N   1       7.650  -2.119   1.172  0.00  0.00     0.015 C 
HETATM   45  C   UNK N   1       6.501  -4.103   0.262  0.00  0.00     0.015 C 
ENDBRANCH  37  43
BRANCH  39  46
HETATM   46  C   UNK N   1       1.485  -2.727   0.164  0.00  0.00     0.012 C 
HETATM   47  C   UNK N   1       1.063  -3.195   1.548  0.00  0.00     0.015 C 
HETATM   48  C   UNK N   1       1.558  -3.910  -0.784  0.00  0.00     0.015 C 
ENDBRANCH  39  46
ENDBRANCH  31  34
ENDBRANCH  29  31
ENDBRANCH   1  29
TORSDOF 13
