MODEL 1
REMARK VINA RESULT:      -7.4      0.000      0.000
REMARK  8 active torsions:
REMARK  status: ('A' for Active; 'I' for Inactive)
REMARK    1  A    between atoms: C_5  and  C_7 
REMARK    2  A    between atoms: C_7  and  N_8 
REMARK    3  A    between atoms: N_8  and  N_9 
REMARK       I    between atoms: N_9  and  C_10 
REMARK    4  A    between atoms: C_10  and  C_11 
REMARK    5  A    between atoms: C_11  and  C_12 
REMARK       I    between atoms: C_12  and  N_13 
REMARK    6  A    between atoms: N_13  and  N_14 
REMARK    7  A    between atoms: N_14  and  C_15 
REMARK    8  A    between atoms: C_15  and  C_16 
ROOT
HETATM    1  C   UNK N   1      36.570  15.376  10.603  0.00  0.00     0.208 C 
ENDROOT
BRANCH   1   2
HETATM    2  C   UNK N   1      35.474  16.251  10.079  0.00  0.00     0.244 C 
HETATM    3  N   UNK N   1      34.930  15.913   8.882  0.00  0.00    -0.267 N 
HETATM    4  H   UNK N   1      35.294  15.114   8.438  0.00  0.00     0.190 HD
HETATM    5  O   UNK N   1      35.087  17.227  10.704  0.00  0.00    -0.271 OA
BRANCH   3   6
HETATM    6  N   UNK N   1      33.912  16.585   8.224  0.00  0.00    -0.283 N 
HETATM    7  C   UNK N   1      34.173  17.859   7.588  0.00  0.00     0.179 C 
BRANCH   6   8
HETATM    8  C   UNK N   1      32.595  15.984   8.191  0.00  0.00     0.127 C 
HETATM    9  S   UNK N   1      32.482  14.548   8.366  0.00  0.00    -0.058 SA
BRANCH   8  10
HETATM   10  C   UNK N   1      31.328  16.785   7.983  0.00  0.00     0.003 A 
HETATM   11  C   UNK N   1      30.546  16.595   6.823  0.00  0.00     0.014 A 
HETATM   12  C   UNK N   1      29.375  17.327   6.616  0.00  0.00     0.001 A 
HETATM   13  C   UNK N   1      28.961  18.263   7.564  0.00  0.00     0.000 A 
HETATM   14  C   UNK N   1      29.719  18.466   8.717  0.00  0.00     0.001 A 
HETATM   15  C   UNK N   1      30.889  17.733   8.921  0.00  0.00     0.014 A 
ENDBRANCH   8  10
ENDBRANCH   6   8
ENDBRANCH   3   6
ENDBRANCH   1   2
BRANCH   1  16
HETATM   16  C   UNK N   1      36.197  14.125  11.337  0.00  0.00     0.244 C 
HETATM   17  N   UNK N   1      36.996  13.751  12.367  0.00  0.00    -0.267 N 
HETATM   18  H   UNK N   1      37.769  14.328  12.564  0.00  0.00     0.190 HD
HETATM   19  O   UNK N   1      35.215  13.472  11.017  0.00  0.00    -0.271 OA
BRANCH  17  20
HETATM   20  N   UNK N   1      36.830  12.633  13.170  0.00  0.00    -0.283 N 
HETATM   21  C   UNK N   1      37.597  11.433  12.916  0.00  0.00     0.179 C 
BRANCH  20  22
HETATM   22  C   UNK N   1      35.877  12.700  14.259  0.00  0.00     0.127 C 
HETATM   23  S   UNK N   1      34.677  11.885  14.185  0.00  0.00    -0.058 SA
BRANCH  22  24
HETATM   24  C   UNK N   1      36.073  13.581  15.473  0.00  0.00     0.003 A 
HETATM   25  C   UNK N   1      35.359  13.371  16.664  0.00  0.00     0.014 A 
HETATM   26  C   UNK N   1      35.550  14.191  17.776  0.00  0.00     0.001 A 
HETATM   27  C   UNK N   1      36.463  15.243  17.719  0.00  0.00     0.000 A 
HETATM   28  C   UNK N   1      37.185  15.474  16.549  0.00  0.00     0.001 A 
HETATM   29  C   UNK N   1      36.993  14.652  15.436  0.00  0.00     0.014 A 
ENDBRANCH  22  24
ENDBRANCH  20  22
ENDBRANCH  17  20
ENDBRANCH   1  16
TORSDOF 8
ENDMDL
MODEL 2
REMARK VINA RESULT:      -7.4      2.041      8.724
REMARK  8 active torsions:
REMARK  status: ('A' for Active; 'I' for Inactive)
REMARK    1  A    between atoms: C_5  and  C_7 
REMARK    2  A    between atoms: C_7  and  N_8 
REMARK    3  A    between atoms: N_8  and  N_9 
REMARK       I    between atoms: N_9  and  C_10 
REMARK    4  A    between atoms: C_10  and  C_11 
REMARK    5  A    between atoms: C_11  and  C_12 
REMARK       I    between atoms: C_12  and  N_13 
REMARK    6  A    between atoms: N_13  and  N_14 
REMARK    7  A    between atoms: N_14  and  C_15 
REMARK    8  A    between atoms: C_15  and  C_16 
ROOT
HETATM    1  C   UNK N   1      35.217  15.226  12.069  0.00  0.00     0.208 C 
ENDROOT
BRANCH   1   2
HETATM    2  C   UNK N   1      35.801  14.359  13.141  0.00  0.00     0.244 C 
HETATM    3  N   UNK N   1      35.460  13.045  13.130  0.00  0.00    -0.267 N 
HETATM    4  H   UNK N   1      34.850  12.750  12.417  0.00  0.00     0.190 HD
HETATM    5  O   UNK N   1      36.553  14.818  13.988  0.00  0.00    -0.271 OA
BRANCH   3   6
HETATM    6  N   UNK N   1      35.888  12.079  14.027  0.00  0.00    -0.283 N 
HETATM    7  C   UNK N   1      37.229  11.543  13.934  0.00  0.00     0.179 C 
BRANCH   6   8
HETATM    8  C   UNK N   1      34.966  11.626  15.048  0.00  0.00     0.127 C 
HETATM    9  S   UNK N   1      33.865  10.766  14.658  0.00  0.00    -0.058 SA
BRANCH   8  10
HETATM   10  C   UNK N   1      35.098  12.010  16.506  0.00  0.00     0.003 A 
HETATM   11  C   UNK N   1      35.239  11.014  17.496  0.00  0.00     0.014 A 
HETATM   12  C   UNK N   1      35.362  11.351  18.845  0.00  0.00     0.001 A 
HETATM   13  C   UNK N   1      35.346  12.691  19.233  0.00  0.00     0.000 A 
HETATM   14  C   UNK N   1      35.208  13.691  18.271  0.00  0.00     0.001 A 
HETATM   15  C   UNK N   1      35.085  13.351  16.923  0.00  0.00     0.014 A 
ENDBRANCH   8  10
ENDBRANCH   6   8
ENDBRANCH   3   6
ENDBRANCH   1   2
BRANCH   1  16
HETATM   16  C   UNK N   1      35.927  15.315  10.754  0.00  0.00     0.244 C 
HETATM   17  N   UNK N   1      35.540  14.451   9.782  0.00  0.00    -0.267 N 
HETATM   18  H   UNK N   1      34.817  13.822  10.007  0.00  0.00     0.190 HD
HETATM   19  O   UNK N   1      36.817  16.132  10.568  0.00  0.00    -0.271 OA
BRANCH  17  20
HETATM   20  N   UNK N   1      36.066  14.368   8.502  0.00  0.00    -0.283 N 
HETATM   21  C   UNK N   1      37.314  13.673   8.271  0.00  0.00     0.179 C 
BRANCH  20  22
HETATM   22  C   UNK N   1      35.339  14.989   7.414  0.00  0.00     0.127 C 
HETATM   23  S   UNK N   1      35.756  14.715   6.051  0.00  0.00    -0.058 SA
BRANCH  22  24
HETATM   24  C   UNK N   1      34.161  15.914   7.633  0.00  0.00     0.003 A 
HETATM   25  C   UNK N   1      32.839  15.442   7.632  0.00  0.00     0.014 A 
HETATM   26  C   UNK N   1      31.761  16.305   7.835  0.00  0.00     0.001 A 
HETATM   27  C   UNK N   1      31.987  17.665   8.044  0.00  0.00     0.000 A 
HETATM   28  C   UNK N   1      33.291  18.160   8.050  0.00  0.00     0.001 A 
HETATM   29  C   UNK N   1      34.367  17.295   7.847  0.00  0.00     0.014 A 
ENDBRANCH  22  24
ENDBRANCH  20  22
ENDBRANCH  17  20
ENDBRANCH   1  16
TORSDOF 8
ENDMDL
MODEL 3
REMARK VINA RESULT:      -7.3      1.779      9.258
REMARK  8 active torsions:
REMARK  status: ('A' for Active; 'I' for Inactive)
REMARK    1  A    between atoms: C_5  and  C_7 
REMARK    2  A    between atoms: C_7  and  N_8 
REMARK    3  A    between atoms: N_8  and  N_9 
REMARK       I    between atoms: N_9  and  C_10 
REMARK    4  A    between atoms: C_10  and  C_11 
REMARK    5  A    between atoms: C_11  and  C_12 
REMARK       I    between atoms: C_12  and  N_13 
REMARK    6  A    between atoms: N_13  and  N_14 
REMARK    7  A    between atoms: N_14  and  C_15 
REMARK    8  A    between atoms: C_15  and  C_16 
ROOT
HETATM    1  C   UNK N   1      34.015  14.733  11.000  0.00  0.00     0.208 C 
ENDROOT
BRANCH   1   2
HETATM    2  C   UNK N   1      35.297  14.475  11.728  0.00  0.00     0.244 C 
HETATM    3  N   UNK N   1      35.277  13.529  12.703  0.00  0.00    -0.267 N 
HETATM    4  H   UNK N   1      34.418  13.077  12.865  0.00  0.00     0.190 HD
HETATM    5  O   UNK N   1      36.318  15.089  11.455  0.00  0.00    -0.271 OA
BRANCH   3   6
HETATM    6  N   UNK N   1      36.348  13.140  13.491  0.00  0.00    -0.283 N 
HETATM    7  C   UNK N   1      37.348  12.236  12.965  0.00  0.00     0.179 C 
BRANCH   6   8
HETATM    8  C   UNK N   1      36.438  13.659  14.841  0.00  0.00     0.127 C 
HETATM    9  S   UNK N   1      36.946  15.004  15.036  0.00  0.00    -0.058 SA
BRANCH   8  10
HETATM   10  C   UNK N   1      36.026  12.861  16.059  0.00  0.00     0.003 A 
HETATM   11  C   UNK N   1      36.218  11.464  16.095  0.00  0.00     0.014 A 
HETATM   12  C   UNK N   1      35.844  10.713  17.211  0.00  0.00     0.001 A 
HETATM   13  C   UNK N   1      35.269  11.344  18.314  0.00  0.00     0.000 A 
HETATM   14  C   UNK N   1      35.071  12.724  18.299  0.00  0.00     0.001 A 
HETATM   15  C   UNK N   1      35.446  13.472  17.182  0.00  0.00     0.014 A 
ENDBRANCH   8  10
ENDBRANCH   6   8
ENDBRANCH   3   6
ENDBRANCH   1   2
BRANCH   1  16
HETATM   16  C   UNK N   1      34.074  15.414   9.667  0.00  0.00     0.244 C 
HETATM   17  N   UNK N   1      33.537  16.657   9.584  0.00  0.00    -0.267 N 
HETATM   18  H   UNK N   1      33.145  17.029  10.406  0.00  0.00     0.190 HD
HETATM   19  O   UNK N   1      34.584  14.869   8.700  0.00  0.00    -0.271 OA
BRANCH  17  20
HETATM   20  N   UNK N   1      33.489  17.455   8.451  0.00  0.00    -0.283 N 
HETATM   21  C   UNK N   1      34.534  18.423   8.196  0.00  0.00     0.179 C 
BRANCH  20  22
HETATM   22  C   UNK N   1      32.375  17.293   7.539  0.00  0.00     0.127 C 
HETATM   23  S   UNK N   1      32.646  16.867   6.178  0.00  0.00    -0.058 SA
BRANCH  22  24
HETATM   24  C   UNK N   1      30.939  17.549   7.939  0.00  0.00     0.003 A 
HETATM   25  C   UNK N   1      29.861  17.057   7.186  0.00  0.00     0.014 A 
HETATM   26  C   UNK N   1      28.541  17.300   7.566  0.00  0.00     0.001 A 
HETATM   27  C   UNK N   1      28.271  18.044   8.714  0.00  0.00     0.000 A 
HETATM   28  C   UNK N   1      29.323  18.544   9.481  0.00  0.00     0.001 A 
HETATM   29  C   UNK N   1      30.644  18.300   9.099  0.00  0.00     0.014 A 
ENDBRANCH  22  24
ENDBRANCH  20  22
ENDBRANCH  17  20
ENDBRANCH   1  16
TORSDOF 8
ENDMDL
MODEL 4
REMARK VINA RESULT:      -7.2      2.000      9.340
REMARK  8 active torsions:
REMARK  status: ('A' for Active; 'I' for Inactive)
REMARK    1  A    between atoms: C_5  and  C_7 
REMARK    2  A    between atoms: C_7  and  N_8 
REMARK    3  A    between atoms: N_8  and  N_9 
REMARK       I    between atoms: N_9  and  C_10 
REMARK    4  A    between atoms: C_10  and  C_11 
REMARK    5  A    between atoms: C_11  and  C_12 
REMARK       I    between atoms: C_12  and  N_13 
REMARK    6  A    between atoms: N_13  and  N_14 
REMARK    7  A    between atoms: N_14  and  C_15 
REMARK    8  A    between atoms: C_15  and  C_16 
ROOT
HETATM    1  C   UNK N   1      34.720  14.880  11.448  0.00  0.00     0.208 C 
ENDROOT
BRANCH   1   2
HETATM    2  C   UNK N   1      35.168  13.571  12.021  0.00  0.00     0.244 C 
HETATM    3  N   UNK N   1      34.613  13.188  13.199  0.00  0.00    -0.267 N 
HETATM    4  H   UNK N   1      33.951  13.797  13.598  0.00  0.00     0.190 HD
HETATM    5  O   UNK N   1      35.999  12.880  11.450  0.00  0.00    -0.271 OA
BRANCH   3   6
HETATM    6  N   UNK N   1      34.887  12.020  13.894  0.00  0.00    -0.283 N 
HETATM    7  C   UNK N   1      34.171  10.802  13.581  0.00  0.00     0.179 C 
BRANCH   6   8
HETATM    8  C   UNK N   1      35.899  12.054  14.930  0.00  0.00     0.127 C 
HETATM    9  S   UNK N   1      36.771  10.905  15.087  0.00  0.00    -0.058 SA
BRANCH   8  10
HETATM   10  C   UNK N   1      36.089  13.234  15.858  0.00  0.00     0.003 A 
HETATM   11  C   UNK N   1      35.325  13.342  17.039  0.00  0.00     0.014 A 
HETATM   12  C   UNK N   1      35.489  14.425  17.906  0.00  0.00     0.001 A 
HETATM   13  C   UNK N   1      36.419  15.421  17.609  0.00  0.00     0.000 A 
HETATM   14  C   UNK N   1      37.185  15.333  16.447  0.00  0.00     0.001 A 
HETATM   15  C   UNK N   1      37.019  14.249  15.583  0.00  0.00     0.014 A 
ENDBRANCH   8  10
ENDBRANCH   6   8
ENDBRANCH   3   6
ENDBRANCH   1   2
BRANCH   1  16
HETATM   16  C   UNK N   1      34.302  14.926  10.011  0.00  0.00     0.244 C 
HETATM   17  N   UNK N   1      34.998  15.754   9.191  0.00  0.00    -0.267 N 
HETATM   18  H   UNK N   1      35.733  16.268   9.597  0.00  0.00     0.190 HD
HETATM   19  O   UNK N   1      33.374  14.247   9.599  0.00  0.00    -0.271 OA
BRANCH  17  20
HETATM   20  N   UNK N   1      34.775  15.943   7.836  0.00  0.00    -0.283 N 
HETATM   21  C   UNK N   1      35.236  14.962   6.878  0.00  0.00     0.179 C 
BRANCH  20  22
HETATM   22  C   UNK N   1      34.075  17.138   7.412  0.00  0.00     0.127 C 
HETATM   23  S   UNK N   1      34.422  18.405   8.031  0.00  0.00    -0.058 SA
BRANCH  22  24
HETATM   24  C   UNK N   1      32.996  17.128   6.351  0.00  0.00     0.003 A 
HETATM   25  C   UNK N   1      31.680  16.730   6.636  0.00  0.00     0.014 A 
HETATM   26  C   UNK N   1      30.695  16.725   5.648  0.00  0.00     0.001 A 
HETATM   27  C   UNK N   1      31.008  17.121   4.349  0.00  0.00     0.000 A 
HETATM   28  C   UNK N   1      32.308  17.521   4.038  0.00  0.00     0.001 A 
HETATM   29  C   UNK N   1      33.292  17.525   5.028  0.00  0.00     0.014 A 
ENDBRANCH  22  24
ENDBRANCH  20  22
ENDBRANCH  17  20
ENDBRANCH   1  16
TORSDOF 8
ENDMDL
MODEL 5
REMARK VINA RESULT:      -7.1     19.198     21.545
REMARK  8 active torsions:
REMARK  status: ('A' for Active; 'I' for Inactive)
REMARK    1  A    between atoms: C_5  and  C_7 
REMARK    2  A    between atoms: C_7  and  N_8 
REMARK    3  A    between atoms: N_8  and  N_9 
REMARK       I    between atoms: N_9  and  C_10 
REMARK    4  A    between atoms: C_10  and  C_11 
REMARK    5  A    between atoms: C_11  and  C_12 
REMARK       I    between atoms: C_12  and  N_13 
REMARK    6  A    between atoms: N_13  and  N_14 
REMARK    7  A    between atoms: N_14  and  C_15 
REMARK    8  A    between atoms: C_15  and  C_16 
ROOT
HETATM    1  C   UNK N   1      31.504  27.933  -4.104  0.00  0.00     0.208 C 
ENDROOT
BRANCH   1   2
HETATM    2  C   UNK N   1      31.132  26.486  -4.006  0.00  0.00     0.244 C 
HETATM    3  N   UNK N   1      31.165  25.758  -5.151  0.00  0.00    -0.267 N 
HETATM    4  H   UNK N   1      31.431  26.232  -5.972  0.00  0.00     0.190 HD
HETATM    5  O   UNK N   1      30.814  25.984  -2.938  0.00  0.00    -0.271 OA
BRANCH   3   6
HETATM    6  N   UNK N   1      30.859  24.412  -5.278  0.00  0.00    -0.283 N 
HETATM    7  C   UNK N   1      31.681  23.415  -4.625  0.00  0.00     0.179 C 
BRANCH   6   8
HETATM    8  C   UNK N   1      29.707  24.036  -6.071  0.00  0.00     0.127 C 
HETATM    9  S   UNK N   1      29.910  23.670  -7.460  0.00  0.00    -0.058 SA
BRANCH   8  10
HETATM   10  C   UNK N   1      28.300  24.007  -5.517  0.00  0.00     0.003 A 
HETATM   11  C   UNK N   1      27.244  23.464  -6.280  0.00  0.00     0.014 A 
HETATM   12  C   UNK N   1      25.939  23.430  -5.784  0.00  0.00     0.001 A 
HETATM   13  C   UNK N   1      25.663  23.938  -4.515  0.00  0.00     0.000 A 
HETATM   14  C   UNK N   1      26.691  24.480  -3.744  0.00  0.00     0.001 A 
HETATM   15  C   UNK N   1      27.994  24.512  -4.243  0.00  0.00     0.014 A 
ENDBRANCH   8  10
ENDBRANCH   6   8
ENDBRANCH   3   6
ENDBRANCH   1   2
BRANCH   1  16
HETATM   16  C   UNK N   1      30.488  28.961  -3.713  0.00  0.00     0.244 C 
HETATM   17  N   UNK N   1      29.326  28.510  -3.177  0.00  0.00    -0.267 N 
HETATM   18  H   UNK N   1      29.229  27.535  -3.081  0.00  0.00     0.190 HD
HETATM   19  O   UNK N   1      30.700  30.154  -3.872  0.00  0.00    -0.271 OA
BRANCH  17  20
HETATM   20  N   UNK N   1      28.262  29.290  -2.752  0.00  0.00    -0.283 N 
HETATM   21  C   UNK N   1      28.188  29.732  -1.376  0.00  0.00     0.179 C 
BRANCH  20  22
HETATM   22  C   UNK N   1      27.237  29.645  -3.712  0.00  0.00     0.127 C 
HETATM   23  S   UNK N   1      26.697  30.992  -3.687  0.00  0.00    -0.058 SA
BRANCH  22  24
HETATM   24  C   UNK N   1      26.703  28.676  -4.743  0.00  0.00     0.003 A 
HETATM   25  C   UNK N   1      25.446  28.065  -4.605  0.00  0.00     0.014 A 
HETATM   26  C   UNK N   1      24.965  27.173  -5.563  0.00  0.00     0.001 A 
HETATM   27  C   UNK N   1      25.736  26.872  -6.685  0.00  0.00     0.000 A 
HETATM   28  C   UNK N   1      26.988  27.464  -6.848  0.00  0.00     0.001 A 
HETATM   29  C   UNK N   1      27.468  28.356  -5.887  0.00  0.00     0.014 A 
ENDBRANCH  22  24
ENDBRANCH  20  22
ENDBRANCH  17  20
ENDBRANCH   1  16
TORSDOF 8
ENDMDL
MODEL 6
REMARK VINA RESULT:      -7.0     17.476     21.252
REMARK  8 active torsions:
REMARK  status: ('A' for Active; 'I' for Inactive)
REMARK    1  A    between atoms: C_5  and  C_7 
REMARK    2  A    between atoms: C_7  and  N_8 
REMARK    3  A    between atoms: N_8  and  N_9 
REMARK       I    between atoms: N_9  and  C_10 
REMARK    4  A    between atoms: C_10  and  C_11 
REMARK    5  A    between atoms: C_11  and  C_12 
REMARK       I    between atoms: C_12  and  N_13 
REMARK    6  A    between atoms: N_13  and  N_14 
REMARK    7  A    between atoms: N_14  and  C_15 
REMARK    8  A    between atoms: C_15  and  C_16 
ROOT
HETATM    1  C   UNK N   1      30.880  26.994  -3.676  0.00  0.00     0.208 C 
ENDROOT
BRANCH   1   2
HETATM    2  C   UNK N   1      30.113  25.708  -3.698  0.00  0.00     0.244 C 
HETATM    3  N   UNK N   1      30.712  24.620  -3.151  0.00  0.00    -0.267 N 
HETATM    4  H   UNK N   1      31.613  24.750  -2.775  0.00  0.00     0.190 HD
HETATM    5  O   UNK N   1      28.995  25.644  -4.189  0.00  0.00    -0.271 OA
BRANCH   3   6
HETATM    6  N   UNK N   1      30.178  23.343  -3.069  0.00  0.00    -0.283 N 
HETATM    7  C   UNK N   1      29.084  23.069  -2.162  0.00  0.00     0.179 C 
BRANCH   6   8
HETATM    8  C   UNK N   1      30.740  22.304  -3.907  0.00  0.00     0.127 C 
HETATM    9  S   UNK N   1      31.993  21.691  -3.508  0.00  0.00    -0.058 SA
BRANCH   8  10
HETATM   10  C   UNK N   1      30.079  21.828  -5.183  0.00  0.00     0.003 A 
HETATM   11  C   UNK N   1      30.482  20.617  -5.785  0.00  0.00     0.014 A 
HETATM   12  C   UNK N   1      29.883  20.163  -6.962  0.00  0.00     0.001 A 
HETATM   13  C   UNK N   1      28.869  20.911  -7.560  0.00  0.00     0.000 A 
HETATM   14  C   UNK N   1      28.456  22.110  -6.982  0.00  0.00     0.001 A 
HETATM   15  C   UNK N   1      29.056  22.561  -5.805  0.00  0.00     0.014 A 
ENDBRANCH   8  10
ENDBRANCH   6   8
ENDBRANCH   3   6
ENDBRANCH   1   2
BRANCH   1  16
HETATM   16  C   UNK N   1      30.117  28.281  -3.632  0.00  0.00     0.244 C 
HETATM   17  N   UNK N   1      28.916  28.268  -2.999  0.00  0.00    -0.267 N 
HETATM   18  H   UNK N   1      28.627  27.411  -2.612  0.00  0.00     0.190 HD
HETATM   19  O   UNK N   1      30.559  29.299  -4.145  0.00  0.00    -0.271 OA
BRANCH  17  20
HETATM   20  N   UNK N   1      28.057  29.345  -2.847  0.00  0.00    -0.283 N 
HETATM   21  C   UNK N   1      28.091  30.138  -1.636  0.00  0.00     0.179 C 
BRANCH  20  22
HETATM   22  C   UNK N   1      27.136  29.652  -3.921  0.00  0.00     0.127 C 
HETATM   23  S   UNK N   1      26.660  31.016  -4.062  0.00  0.00    -0.058 SA
BRANCH  22  24
HETATM   24  C   UNK N   1      26.643  28.614  -4.906  0.00  0.00     0.003 A 
HETATM   25  C   UNK N   1      27.325  28.348  -6.104  0.00  0.00     0.014 A 
HETATM   26  C   UNK N   1      26.860  27.388  -7.004  0.00  0.00     0.001 A 
HETATM   27  C   UNK N   1      25.698  26.672  -6.721  0.00  0.00     0.000 A 
HETATM   28  C   UNK N   1      25.001  26.917  -5.538  0.00  0.00     0.001 A 
HETATM   29  C   UNK N   1      25.468  27.878  -4.639  0.00  0.00     0.014 A 
ENDBRANCH  22  24
ENDBRANCH  20  22
ENDBRANCH  17  20
ENDBRANCH   1  16
TORSDOF 8
ENDMDL
MODEL 7
REMARK VINA RESULT:      -7.0      6.178      8.386
REMARK  8 active torsions:
REMARK  status: ('A' for Active; 'I' for Inactive)
REMARK    1  A    between atoms: C_5  and  C_7 
REMARK    2  A    between atoms: C_7  and  N_8 
REMARK    3  A    between atoms: N_8  and  N_9 
REMARK       I    between atoms: N_9  and  C_10 
REMARK    4  A    between atoms: C_10  and  C_11 
REMARK    5  A    between atoms: C_11  and  C_12 
REMARK       I    between atoms: C_12  and  N_13 
REMARK    6  A    between atoms: N_13  and  N_14 
REMARK    7  A    between atoms: N_14  and  C_15 
REMARK    8  A    between atoms: C_15  and  C_16 
ROOT
HETATM    1  C   UNK N   1      32.751  17.773   8.114  0.00  0.00     0.208 C 
ENDROOT
BRANCH   1   2
HETATM    2  C   UNK N   1      31.384  17.163   8.133  0.00  0.00     0.244 C 
HETATM    3  N   UNK N   1      30.326  18.013   8.118  0.00  0.00    -0.267 N 
HETATM    4  H   UNK N   1      30.529  18.976   8.097  0.00  0.00     0.190 HD
HETATM    5  O   UNK N   1      31.230  15.951   8.160  0.00  0.00    -0.271 OA
BRANCH   3   6
HETATM    6  N   UNK N   1      28.986  17.657   8.131  0.00  0.00    -0.283 N 
HETATM    7  C   UNK N   1      28.307  17.427   9.389  0.00  0.00     0.179 C 
BRANCH   6   8
HETATM    8  C   UNK N   1      28.295  17.522   6.866  0.00  0.00     0.127 C 
HETATM    9  S   UNK N   1      28.042  16.189   6.351  0.00  0.00    -0.058 SA
BRANCH   8  10
HETATM   10  C   UNK N   1      27.822  18.708   6.055  0.00  0.00     0.003 A 
HETATM   11  C   UNK N   1      27.649  18.594   4.659  0.00  0.00     0.014 A 
HETATM   12  C   UNK N   1      27.214  19.680   3.895  0.00  0.00     0.001 A 
HETATM   13  C   UNK N   1      26.943  20.901   4.513  0.00  0.00     0.000 A 
HETATM   14  C   UNK N   1      27.107  21.035   5.891  0.00  0.00     0.001 A 
HETATM   15  C   UNK N   1      27.542  19.948   6.651  0.00  0.00     0.014 A 
ENDBRANCH   8  10
ENDBRANCH   6   8
ENDBRANCH   3   6
ENDBRANCH   1   2
BRANCH   1  16
HETATM   16  C   UNK N   1      33.780  17.195   7.192  0.00  0.00     0.244 C 
HETATM   17  N   UNK N   1      33.812  15.844   7.069  0.00  0.00    -0.267 N 
HETATM   18  H   UNK N   1      33.155  15.334   7.595  0.00  0.00     0.190 HD
HETATM   19  O   UNK N   1      34.556  17.913   6.579  0.00  0.00    -0.271 OA
BRANCH  17  20
HETATM   20  N   UNK N   1      34.680  15.113   6.273  0.00  0.00    -0.283 N 
HETATM   21  C   UNK N   1      35.973  14.711   6.785  0.00  0.00     0.179 C 
BRANCH  20  22
HETATM   22  C   UNK N   1      34.263  14.768   4.930  0.00  0.00     0.127 C 
HETATM   23  S   UNK N   1      35.064  13.823   4.173  0.00  0.00    -0.058 SA
BRANCH  22  24
HETATM   24  C   UNK N   1      33.027  15.347   4.277  0.00  0.00     0.003 A 
HETATM   25  C   UNK N   1      31.770  14.733   4.395  0.00  0.00     0.014 A 
HETATM   26  C   UNK N   1      30.638  15.278   3.788  0.00  0.00     0.001 A 
HETATM   27  C   UNK N   1      30.742  16.454   3.046  0.00  0.00     0.000 A 
HETATM   28  C   UNK N   1      31.979  17.085   2.913  0.00  0.00     0.001 A 
HETATM   29  C   UNK N   1      33.110  16.538   3.522  0.00  0.00     0.014 A 
ENDBRANCH  22  24
ENDBRANCH  20  22
ENDBRANCH  17  20
ENDBRANCH   1  16
TORSDOF 8
ENDMDL
MODEL 8
REMARK VINA RESULT:      -7.0     17.007     21.039
REMARK  8 active torsions:
REMARK  status: ('A' for Active; 'I' for Inactive)
REMARK    1  A    between atoms: C_5  and  C_7 
REMARK    2  A    between atoms: C_7  and  N_8 
REMARK    3  A    between atoms: N_8  and  N_9 
REMARK       I    between atoms: N_9  and  C_10 
REMARK    4  A    between atoms: C_10  and  C_11 
REMARK    5  A    between atoms: C_11  and  C_12 
REMARK       I    between atoms: C_12  and  N_13 
REMARK    6  A    between atoms: N_13  and  N_14 
REMARK    7  A    between atoms: N_14  and  C_15 
REMARK    8  A    between atoms: C_15  and  C_16 
ROOT
HETATM    1  C   UNK N   1      30.896  27.031  -3.733  0.00  0.00     0.208 C 
ENDROOT
BRANCH   1   2
HETATM    2  C   UNK N   1      30.102  25.765  -3.825  0.00  0.00     0.244 C 
HETATM    3  N   UNK N   1      30.640  24.654  -3.258  0.00  0.00    -0.267 N 
HETATM    4  H   UNK N   1      31.517  24.756  -2.824  0.00  0.00     0.190 HD
HETATM    5  O   UNK N   1      29.017  25.735  -4.386  0.00  0.00    -0.271 OA
BRANCH   3   6
HETATM    6  N   UNK N   1      30.073  23.390  -3.232  0.00  0.00    -0.283 N 
HETATM    7  C   UNK N   1      29.121  23.041  -2.199  0.00  0.00     0.179 C 
BRANCH   6   8
HETATM    8  C   UNK N   1      30.454  22.439  -4.256  0.00  0.00     0.127 C 
HETATM    9  S   UNK N   1      29.649  22.354  -5.460  0.00  0.00    -0.058 SA
BRANCH   8  10
HETATM   10  C   UNK N   1      31.656  21.529  -4.129  0.00  0.00     0.003 A 
HETATM   11  C   UNK N   1      31.916  20.549  -5.110  0.00  0.00     0.014 A 
HETATM   12  C   UNK N   1      33.021  19.701  -5.008  0.00  0.00     0.001 A 
HETATM   13  C   UNK N   1      33.889  19.817  -3.922  0.00  0.00     0.000 A 
HETATM   14  C   UNK N   1      33.651  20.779  -2.941  0.00  0.00     0.001 A 
HETATM   15  C   UNK N   1      32.546  21.624  -3.047  0.00  0.00     0.014 A 
ENDBRANCH   8  10
ENDBRANCH   6   8
ENDBRANCH   3   6
ENDBRANCH   1   2
BRANCH   1  16
HETATM   16  C   UNK N   1      30.160  28.332  -3.647  0.00  0.00     0.244 C 
HETATM   17  N   UNK N   1      28.944  28.317  -3.044  0.00  0.00    -0.267 N 
HETATM   18  H   UNK N   1      28.627  27.450  -2.703  0.00  0.00     0.190 HD
HETATM   19  O   UNK N   1      30.637  29.361  -4.101  0.00  0.00    -0.271 OA
BRANCH  17  20
HETATM   20  N   UNK N   1      28.105  29.405  -2.862  0.00  0.00    -0.283 N 
HETATM   21  C   UNK N   1      28.223  30.225  -1.675  0.00  0.00     0.179 C 
BRANCH  20  22
HETATM   22  C   UNK N   1      27.118  29.695  -3.882  0.00  0.00     0.127 C 
HETATM   23  S   UNK N   1      26.588  31.044  -3.974  0.00  0.00    -0.058 SA
BRANCH  22  24
HETATM   24  C   UNK N   1      26.612  28.656  -4.857  0.00  0.00     0.003 A 
HETATM   25  C   UNK N   1      27.292  28.368  -6.052  0.00  0.00     0.014 A 
HETATM   26  C   UNK N   1      26.813  27.407  -6.943  0.00  0.00     0.001 A 
HETATM   27  C   UNK N   1      25.640  26.711  -6.656  0.00  0.00     0.000 A 
HETATM   28  C   UNK N   1      24.945  26.978  -5.476  0.00  0.00     0.001 A 
HETATM   29  C   UNK N   1      25.425  27.940  -4.586  0.00  0.00     0.014 A 
ENDBRANCH  22  24
ENDBRANCH  20  22
ENDBRANCH  17  20
ENDBRANCH   1  16
TORSDOF 8
ENDMDL
MODEL 9
REMARK VINA RESULT:      -7.0      2.350      9.674
REMARK  8 active torsions:
REMARK  status: ('A' for Active; 'I' for Inactive)
REMARK    1  A    between atoms: C_5  and  C_7 
REMARK    2  A    between atoms: C_7  and  N_8 
REMARK    3  A    between atoms: N_8  and  N_9 
REMARK       I    between atoms: N_9  and  C_10 
REMARK    4  A    between atoms: C_10  and  C_11 
REMARK    5  A    between atoms: C_11  and  C_12 
REMARK       I    between atoms: C_12  and  N_13 
REMARK    6  A    between atoms: N_13  and  N_14 
REMARK    7  A    between atoms: N_14  and  C_15 
REMARK    8  A    between atoms: C_15  and  C_16 
ROOT
HETATM    1  C   UNK N   1      34.004  14.731  10.983  0.00  0.00     0.208 C 
ENDROOT
BRANCH   1   2
HETATM    2  C   UNK N   1      35.277  14.454  11.721  0.00  0.00     0.244 C 
HETATM    3  N   UNK N   1      35.240  13.495  12.682  0.00  0.00    -0.267 N 
HETATM    4  H   UNK N   1      34.377  13.045  12.829  0.00  0.00     0.190 HD
HETATM    5  O   UNK N   1      36.304  15.066  11.468  0.00  0.00    -0.271 OA
BRANCH   3   6
HETATM    6  N   UNK N   1      36.301  13.088  13.476  0.00  0.00    -0.283 N 
HETATM    7  C   UNK N   1      37.279  12.153  12.960  0.00  0.00     0.179 C 
BRANCH   6   8
HETATM    8  C   UNK N   1      36.402  13.617  14.820  0.00  0.00     0.127 C 
HETATM    9  S   UNK N   1      36.901  14.968  14.999  0.00  0.00    -0.058 SA
BRANCH   8  10
HETATM   10  C   UNK N   1      36.011  12.827  16.049  0.00  0.00     0.003 A 
HETATM   11  C   UNK N   1      36.228  11.433  16.099  0.00  0.00     0.014 A 
HETATM   12  C   UNK N   1      35.873  10.688  17.226  0.00  0.00     0.001 A 
HETATM   13  C   UNK N   1      35.293  11.322  18.325  0.00  0.00     0.000 A 
HETATM   14  C   UNK N   1      35.070  12.698  18.296  0.00  0.00     0.001 A 
HETATM   15  C   UNK N   1      35.426  13.439  17.169  0.00  0.00     0.014 A 
ENDBRANCH   8  10
ENDBRANCH   6   8
ENDBRANCH   3   6
ENDBRANCH   1   2
BRANCH   1  16
HETATM   16  C   UNK N   1      34.085  15.386   9.639  0.00  0.00     0.244 C 
HETATM   17  N   UNK N   1      33.576  16.640   9.531  0.00  0.00    -0.267 N 
HETATM   18  H   UNK N   1      33.188  17.035  10.344  0.00  0.00     0.190 HD
HETATM   19  O   UNK N   1      34.587  14.814   8.684  0.00  0.00    -0.271 OA
BRANCH  17  20
HETATM   20  N   UNK N   1      33.550  17.418   8.384  0.00  0.00    -0.283 N 
HETATM   21  C   UNK N   1      34.573  18.417   8.159  0.00  0.00     0.179 C 
BRANCH  20  22
HETATM   22  C   UNK N   1      32.484  17.205   7.428  0.00  0.00     0.127 C 
HETATM   23  S   UNK N   1      31.110  17.343   7.875  0.00  0.00    -0.058 SA
BRANCH  22  24
HETATM   24  C   UNK N   1      32.735  16.844   5.980  0.00  0.00     0.003 A 
HETATM   25  C   UNK N   1      33.684  15.877   5.612  0.00  0.00     0.014 A 
HETATM   26  C   UNK N   1      33.906  15.554   4.272  0.00  0.00     0.001 A 
HETATM   27  C   UNK N   1      33.179  16.195   3.270  0.00  0.00     0.000 A 
HETATM   28  C   UNK N   1      32.231  17.161   3.609  0.00  0.00     0.001 A 
HETATM   29  C   UNK N   1      32.010  17.482   4.949  0.00  0.00     0.014 A 
ENDBRANCH  22  24
ENDBRANCH  20  22
ENDBRANCH  17  20
ENDBRANCH   1  16
TORSDOF 8
ENDMDL
