REMARK  6 active torsions:
REMARK  status: ('A' for Active; 'I' for Inactive)
REMARK    1  A    between atoms: C_2  and  C_3 
REMARK    2  A    between atoms: C_3  and  C_4 
REMARK    3  A    between atoms: C_4  and  C_5 
REMARK    4  A    between atoms: C_5  and  C_6 
REMARK    5  A    between atoms: C_6  and  O_8 
REMARK    6  A    between atoms: C_9  and  O_8 
ROOT
HETATM    1  C   UNK N   1       9.711   3.801  -1.278  0.00  0.00     0.136 C 
HETATM    2  C   UNK N   1       8.585   2.767  -1.456  0.00  0.00     0.034 C 
HETATM    3  C   UNK N   1       7.299   3.035  -0.641  0.00  0.00     0.016 C 
HETATM    4  C   UNK N   1       7.442   4.075   0.483  0.00  0.00    -0.017 C 
HETATM    5  C   UNK N   1       6.112   4.355   1.245  0.00  0.00     0.003 C 
HETATM    6  C   UNK N   1       5.165   3.177   1.470  0.00  0.00     0.007 C 
HETATM    7  C   UNK N   1       4.523   2.738   0.154  0.00  0.00     0.010 C 
HETATM    8  C   UNK N   1       3.974   3.867  -0.747  0.00  0.00    -0.033 C 
HETATM    9  C   UNK N   1       4.654   5.273  -0.632  0.00  0.00     0.001 C 
HETATM   10  C   UNK N   1       5.309   5.526   0.737  0.00  0.00    -0.001 C 
HETATM   11  C   UNK N   1       6.194   6.764   0.747  0.00  0.00     0.033 C 
HETATM   12  C   UNK N   1       7.419   6.538  -0.086  0.00  0.00    -0.023 C 
HETATM   13  C   UNK N   1       8.012   5.337  -0.187  0.00  0.00    -0.072 C 
HETATM   14  C   UNK N   1       9.152   5.224  -1.165  0.00  0.00     0.067 C 
HETATM   15  C   UNK N   1       3.462   6.253  -0.679  0.00  0.00     0.038 C 
HETATM   16  C   UNK N   1       2.480   5.470   0.158  0.00  0.00     0.131 C 
HETATM   17  C   UNK N   1       2.511   4.201  -0.561  0.00  0.00     0.032 C 
HETATM   18  C   UNK N   1       1.489   3.480   0.211  0.00  0.00     0.051 C 
HETATM   19  C   UNK N   1       0.431   4.608   0.238  0.00  0.00     0.168 C 
HETATM   20  O   UNK N   1       1.133   5.851   0.198  0.00  0.00    -0.349 OA
HETATM   21  C   UNK N   1      -0.350   4.479   1.567  0.00  0.00     0.069 C 
HETATM   22  C   UNK N   1      -1.560   3.583   1.349  0.00  0.00     0.011 C 
HETATM   23  C   UNK N   1      -2.460   4.190   0.269  0.00  0.00     0.005 C 
HETATM   24  C   UNK N   1      -1.653   5.084  -0.685  0.00  0.00     0.175 C 
HETATM   25  O   UNK N   1      -0.388   4.513  -0.930  0.00  0.00    -0.354 OA
HETATM   26  C   UNK N   1      -3.133   3.073  -0.501  0.00  0.00     0.012 C 
HETATM   27  C   UNK N   1       1.037   2.183  -0.445  0.00  0.00     0.016 C 
HETATM   28  C   UNK N   1       4.112   3.386  -2.178  0.00  0.00     0.016 C 
HETATM   29  C   UNK N   1       8.382   3.529   1.547  0.00  0.00     0.020 C 
ENDROOT
BRANCH   1  30
HETATM   30  O   UNK N   1      10.465   3.514  -0.159  0.00  0.00    -0.316 OA
BRANCH  30  31
HETATM   31  C   UNK N   1      11.604   4.181   0.150  0.00  0.00     0.259 C 
HETATM   32  O   UNK N   1      12.023   4.150   1.297  0.00  0.00    -0.265 OA
BRANCH  31  33
HETATM   33  C   UNK N   1      12.361   4.944  -0.898  0.00  0.00     0.111 C 
BRANCH  33  34
HETATM   34  C   UNK N   1      12.139   6.442  -0.780  0.00  0.00     0.010 C 
BRANCH  34  35
HETATM   35  C   UNK N   1      12.967   7.028   0.342  0.00  0.00     0.000 C 
BRANCH  35  36
HETATM   36  C   UNK N   1      12.948   8.535   0.223  0.00  0.00    -0.005 C 
HETATM   37  C   UNK N   1      14.271   9.084   0.707  0.00  0.00     0.005 C 
ENDBRANCH  35  36
ENDBRANCH  34  35
ENDBRANCH  33  34
ENDBRANCH  31  33
ENDBRANCH  30  31
ENDBRANCH   1  30
TORSDOF 6
