MODEL 1
REMARK VINA RESULT:      -6.3      0.000      0.000
REMARK  4 active torsions:
REMARK  status: ('A' for Active; 'I' for Inactive)
REMARK    1  A    between atoms: S_2  and  C_13 
REMARK    2  A    between atoms: S_3  and  C_19 
REMARK    3  A    between atoms: N_4  and  C_8 
REMARK       I    between atoms: N_4  and  C_10 
REMARK    4  A    between atoms: N_5  and  C_14 
REMARK       I    between atoms: N_7  and  C_10 
ROOT
HETATM    1  N   UNK N   1      33.612  17.143   8.658  0.00  0.00    -0.188 N 
HETATM    2  N   UNK N   1      35.359  16.040   9.838  0.00  0.00    -0.190 N 
ATOM      3  HN  UNK N   1      35.975  16.798   9.543  1.00  0.00     0.184 HD
HETATM    4  N   UNK N   1      33.183  15.184  10.099  0.00  0.00    -0.234 N 
HETATM    5  C   UNK N   1      34.099  16.112   9.534  0.00  0.00     0.678 C 
HETATM    6  C   UNK N   1      34.479  18.253   8.326  0.00  0.00     0.175 C 
HETATM    7  H   UNK N   1      33.294  14.632  10.907  0.00  0.00     0.174 HD
HETATM    8  H   UNK N   1      32.328  15.080   9.622  0.00  0.00     0.174 HD
ENDROOT
BRANCH   1   9
HETATM    9  C   UNK N   1      32.310  17.052   8.047  0.00  0.00     0.052 A 
HETATM   10  C   UNK N   1      31.193  17.677   8.633  0.00  0.00     0.048 A 
HETATM   11  C   UNK N   1      29.926  17.592   8.069  0.00  0.00     0.002 A 
HETATM   12  C   UNK N   1      29.749  16.875   6.885  0.00  0.00     0.018 A 
HETATM   13  C   UNK N   1      30.837  16.226   6.292  0.00  0.00     0.004 A 
HETATM   14  C   UNK N   1      32.111  16.308   6.872  0.00  0.00     0.030 A 
BRANCH  11  15
HETATM   15  S   UNK N   1      28.563  18.466   8.846  0.00  0.00    -0.134 SA
HETATM   16  C   UNK N   1      28.002  19.270   7.318  0.00  0.00     0.095 C 
ENDBRANCH  11  15
ENDBRANCH   1   9
BRANCH   2  17
HETATM   17  C   UNK N   1      35.926  14.945  10.565  0.00  0.00     0.072 A 
HETATM   18  C   UNK N   1      35.940  14.966  11.971  0.00  0.00     0.050 A 
HETATM   19  C   UNK N   1      36.461  13.920  12.716  0.00  0.00     0.002 A 
HETATM   20  C   UNK N   1      36.980  12.804  12.049  0.00  0.00     0.020 A 
HETATM   21  C   UNK N   1      36.963  12.752  10.649  0.00  0.00     0.027 A 
HETATM   22  C   UNK N   1      36.431  13.814   9.903  0.00  0.00     0.061 A 
HETATM   23 Cl   UNK N   1      36.424  13.710   8.152  0.00  0.00    -0.082 Cl
BRANCH  19  24
HETATM   24  S   UNK N   1      36.413  14.068  14.513  0.00  0.00    -0.134 SA
HETATM   25  C   UNK N   1      36.920  12.373  14.922  0.00  0.00     0.095 C 
ENDBRANCH  19  24
ENDBRANCH   2  17
TORSDOF 4
ENDMDL
MODEL 2
REMARK VINA RESULT:      -6.3      3.073      7.714
REMARK  4 active torsions:
REMARK  status: ('A' for Active; 'I' for Inactive)
REMARK    1  A    between atoms: S_2  and  C_13 
REMARK    2  A    between atoms: S_3  and  C_19 
REMARK    3  A    between atoms: N_4  and  C_8 
REMARK       I    between atoms: N_4  and  C_10 
REMARK    4  A    between atoms: N_5  and  C_14 
REMARK       I    between atoms: N_7  and  C_10 
ROOT
HETATM    1  N   UNK N   1      35.758  12.605  10.968  0.00  0.00    -0.188 N 
HETATM    2  N   UNK N   1      35.746  14.326   9.324  0.00  0.00    -0.190 N 
ATOM      3  HN  UNK N   1      36.734  14.123   9.171  1.00  0.00     0.184 HD
HETATM    4  N   UNK N   1      33.669  13.703  10.239  0.00  0.00    -0.234 N 
HETATM    5  C   UNK N   1      35.083  13.580  10.154  0.00  0.00     0.678 C 
HETATM    6  C   UNK N   1      37.135  12.273  10.671  0.00  0.00     0.175 C 
HETATM    7  H   UNK N   1      33.050  14.087   9.577  0.00  0.00     0.174 HD
HETATM    8  H   UNK N   1      33.257  13.360  11.064  0.00  0.00     0.174 HD
ENDROOT
BRANCH   1   9
HETATM    9  C   UNK N   1      35.116  12.011  12.112  0.00  0.00     0.052 A 
HETATM   10  C   UNK N   1      35.211  12.609  13.383  0.00  0.00     0.048 A 
HETATM   11  C   UNK N   1      34.610  12.047  14.504  0.00  0.00     0.002 A 
HETATM   12  C   UNK N   1      33.885  10.862  14.372  0.00  0.00     0.018 A 
HETATM   13  C   UNK N   1      33.792  10.235  13.125  0.00  0.00     0.004 A 
HETATM   14  C   UNK N   1      34.409  10.802  12.000  0.00  0.00     0.030 A 
BRANCH  11  15
HETATM   15  S   UNK N   1      34.729  12.901  16.079  0.00  0.00    -0.134 SA
HETATM   16  C   UNK N   1      36.326  13.683  15.713  0.00  0.00     0.095 C 
ENDBRANCH  11  15
ENDBRANCH   1   9
BRANCH   2  17
HETATM   17  C   UNK N   1      35.156  15.421   8.615  0.00  0.00     0.072 A 
HETATM   18  C   UNK N   1      34.762  15.261   7.275  0.00  0.00     0.050 A 
HETATM   19  C   UNK N   1      34.170  16.288   6.557  0.00  0.00     0.002 A 
HETATM   20  C   UNK N   1      33.949  17.518   7.187  0.00  0.00     0.020 A 
HETATM   21  C   UNK N   1      34.318  17.697   8.527  0.00  0.00     0.027 A 
HETATM   22  C   UNK N   1      34.914  16.651   9.247  0.00  0.00     0.061 A 
HETATM   23 Cl   UNK N   1      35.359  16.913  10.924  0.00  0.00    -0.082 Cl
BRANCH  19  24
HETATM   24  S   UNK N   1      33.706  15.952   4.846  0.00  0.00    -0.134 SA
HETATM   25  C   UNK N   1      32.845  17.513   4.504  0.00  0.00     0.095 C 
ENDBRANCH  19  24
ENDBRANCH   2  17
TORSDOF 4
ENDMDL
MODEL 3
REMARK VINA RESULT:      -6.1      1.254      1.985
REMARK  4 active torsions:
REMARK  status: ('A' for Active; 'I' for Inactive)
REMARK    1  A    between atoms: S_2  and  C_13 
REMARK    2  A    between atoms: S_3  and  C_19 
REMARK    3  A    between atoms: N_4  and  C_8 
REMARK       I    between atoms: N_4  and  C_10 
REMARK    4  A    between atoms: N_5  and  C_14 
REMARK       I    between atoms: N_7  and  C_10 
ROOT
HETATM    1  N   UNK N   1      33.556  17.140   8.719  0.00  0.00    -0.188 N 
HETATM    2  N   UNK N   1      35.326  16.005   9.832  0.00  0.00    -0.190 N 
ATOM      3  HN  UNK N   1      35.953  16.722   9.469  1.00  0.00     0.184 HD
HETATM    4  N   UNK N   1      33.136  15.260  10.264  0.00  0.00    -0.234 N 
HETATM    5  C   UNK N   1      34.053  16.123   9.605  0.00  0.00     0.678 C 
HETATM    6  C   UNK N   1      34.447  18.196   8.288  0.00  0.00     0.175 C 
HETATM    7  H   UNK N   1      33.275  14.735  11.086  0.00  0.00     0.174 HD
HETATM    8  H   UNK N   1      32.249  15.177   9.846  0.00  0.00     0.174 HD
ENDROOT
BRANCH   1   9
HETATM    9  C   UNK N   1      32.215  17.086   8.195  0.00  0.00     0.052 A 
HETATM   10  C   UNK N   1      31.883  16.198   7.154  0.00  0.00     0.048 A 
HETATM   11  C   UNK N   1      30.599  16.138   6.625  0.00  0.00     0.002 A 
HETATM   12  C   UNK N   1      29.605  16.972   7.138  0.00  0.00     0.018 A 
HETATM   13  C   UNK N   1      29.912  17.879   8.158  0.00  0.00     0.004 A 
HETATM   14  C   UNK N   1      31.212  17.941   8.681  0.00  0.00     0.030 A 
BRANCH  11  15
HETATM   15  S   UNK N   1      30.240  14.937   5.338  0.00  0.00    -0.134 SA
HETATM   16  C   UNK N   1      31.477  15.581   4.175  0.00  0.00     0.095 C 
ENDBRANCH  11  15
ENDBRANCH   1   9
BRANCH   2  17
HETATM   17  C   UNK N   1      35.890  14.914  10.568  0.00  0.00     0.072 A 
HETATM   18  C   UNK N   1      35.936  14.961  11.972  0.00  0.00     0.050 A 
HETATM   19  C   UNK N   1      36.457  13.920  12.725  0.00  0.00     0.002 A 
HETATM   20  C   UNK N   1      36.942  12.783  12.068  0.00  0.00     0.020 A 
HETATM   21  C   UNK N   1      36.892  12.705  10.670  0.00  0.00     0.027 A 
HETATM   22  C   UNK N   1      36.361  13.762   9.916  0.00  0.00     0.061 A 
HETATM   23 Cl   UNK N   1      36.313  13.626   8.167  0.00  0.00    -0.082 Cl
BRANCH  19  24
HETATM   24  S   UNK N   1      36.452  14.102  14.520  0.00  0.00    -0.134 SA
HETATM   25  C   UNK N   1      36.886  12.393  14.951  0.00  0.00     0.095 C 
ENDBRANCH  19  24
ENDBRANCH   2  17
TORSDOF 4
ENDMDL
MODEL 4
REMARK VINA RESULT:      -6.0     15.492     18.815
REMARK  4 active torsions:
REMARK  status: ('A' for Active; 'I' for Inactive)
REMARK    1  A    between atoms: S_2  and  C_13 
REMARK    2  A    between atoms: S_3  and  C_19 
REMARK    3  A    between atoms: N_4  and  C_8 
REMARK       I    between atoms: N_4  and  C_10 
REMARK    4  A    between atoms: N_5  and  C_14 
REMARK       I    between atoms: N_7  and  C_10 
ROOT
HETATM    1  N   UNK N   1      29.570  23.123  -3.597  0.00  0.00    -0.188 N 
HETATM    2  N   UNK N   1      27.786  24.696  -3.519  0.00  0.00    -0.190 N 
ATOM      3  HN  UNK N   1      27.613  24.384  -2.564  1.00  0.00     0.184 HD
HETATM    4  N   UNK N   1      29.194  24.764  -5.404  0.00  0.00    -0.234 N 
HETATM    5  C   UNK N   1      28.806  24.205  -4.156  0.00  0.00     0.678 C 
HETATM    6  C   UNK N   1      29.365  22.758  -2.212  0.00  0.00     0.175 C 
HETATM    7  H   UNK N   1      28.977  25.653  -5.767  0.00  0.00     0.174 HD
HETATM    8  H   UNK N   1      29.751  24.189  -5.977  0.00  0.00     0.174 HD
ENDROOT
BRANCH   1   9
HETATM    9  C   UNK N   1      30.477  22.351  -4.407  0.00  0.00     0.052 A 
HETATM   10  C   UNK N   1      31.853  22.645  -4.430  0.00  0.00     0.048 A 
HETATM   11  C   UNK N   1      32.744  21.921  -5.215  0.00  0.00     0.002 A 
HETATM   12  C   UNK N   1      32.270  20.869  -5.999  0.00  0.00     0.018 A 
HETATM   13  C   UNK N   1      30.903  20.568  -6.011  0.00  0.00     0.004 A 
HETATM   14  C   UNK N   1      30.009  21.309  -5.225  0.00  0.00     0.030 A 
BRANCH  11  15
HETATM   15  S   UNK N   1      34.494  22.320  -5.144  0.00  0.00    -0.134 SA
HETATM   16  C   UNK N   1      34.938  20.890  -4.118  0.00  0.00     0.095 C 
ENDBRANCH  11  15
ENDBRANCH   1   9
BRANCH   2  17
HETATM   17  C   UNK N   1      26.893  25.654  -4.096  0.00  0.00     0.072 A 
HETATM   18  C   UNK N   1      27.001  27.013  -3.753  0.00  0.00     0.050 A 
HETATM   19  C   UNK N   1      26.169  27.977  -4.301  0.00  0.00     0.002 A 
HETATM   20  C   UNK N   1      25.199  27.588  -5.232  0.00  0.00     0.020 A 
HETATM   21  C   UNK N   1      25.082  26.241  -5.602  0.00  0.00     0.027 A 
HETATM   22  C   UNK N   1      25.930  25.273  -5.045  0.00  0.00     0.061 A 
HETATM   23 Cl   UNK N   1      25.755  23.597  -5.536  0.00  0.00    -0.082 Cl
BRANCH  19  24
HETATM   24  S   UNK N   1      26.415  29.687  -3.782  0.00  0.00    -0.134 SA
HETATM   25  C   UNK N   1      27.703  29.392  -2.536  0.00  0.00     0.095 C 
ENDBRANCH  19  24
ENDBRANCH   2  17
TORSDOF 4
ENDMDL
MODEL 5
REMARK VINA RESULT:      -6.0     15.856     18.935
REMARK  4 active torsions:
REMARK  status: ('A' for Active; 'I' for Inactive)
REMARK    1  A    between atoms: S_2  and  C_13 
REMARK    2  A    between atoms: S_3  and  C_19 
REMARK    3  A    between atoms: N_4  and  C_8 
REMARK       I    between atoms: N_4  and  C_10 
REMARK    4  A    between atoms: N_5  and  C_14 
REMARK       I    between atoms: N_7  and  C_10 
ROOT
HETATM    1  N   UNK N   1      29.532  23.235  -3.484  0.00  0.00    -0.188 N 
HETATM    2  N   UNK N   1      27.723  24.781  -3.449  0.00  0.00    -0.190 N 
ATOM      3  HN  UNK N   1      27.499  24.427  -2.519  1.00  0.00     0.184 HD
HETATM    4  N   UNK N   1      29.237  24.944  -5.243  0.00  0.00    -0.234 N 
HETATM    5  C   UNK N   1      28.786  24.329  -4.043  0.00  0.00     0.678 C 
HETATM    6  C   UNK N   1      29.251  22.811  -2.129  0.00  0.00     0.175 C 
HETATM    7  H   UNK N   1      29.029  25.844  -5.583  0.00  0.00     0.174 HD
HETATM    8  H   UNK N   1      29.835  24.400  -5.805  0.00  0.00     0.174 HD
ENDROOT
BRANCH   1   9
HETATM    9  C   UNK N   1      30.495  22.508  -4.270  0.00  0.00     0.052 A 
HETATM   10  C   UNK N   1      30.080  21.564  -5.228  0.00  0.00     0.048 A 
HETATM   11  C   UNK N   1      30.992  20.842  -5.989  0.00  0.00     0.002 A 
HETATM   12  C   UNK N   1      32.359  21.057  -5.808  0.00  0.00     0.018 A 
HETATM   13  C   UNK N   1      32.800  21.974  -4.848  0.00  0.00     0.004 A 
HETATM   14  C   UNK N   1      31.875  22.692  -4.077  0.00  0.00     0.030 A 
BRANCH  11  15
HETATM   15  S   UNK N   1      30.382  19.698  -7.232  0.00  0.00    -0.134 SA
HETATM   16  C   UNK N   1      30.444  20.899  -8.593  0.00  0.00     0.095 C 
ENDBRANCH  11  15
ENDBRANCH   1   9
BRANCH   2  17
HETATM   17  C   UNK N   1      26.850  25.750  -4.038  0.00  0.00     0.072 A 
HETATM   18  C   UNK N   1      26.962  27.106  -3.683  0.00  0.00     0.050 A 
HETATM   19  C   UNK N   1      26.150  28.081  -4.243  0.00  0.00     0.002 A 
HETATM   20  C   UNK N   1      25.198  27.706  -5.198  0.00  0.00     0.020 A 
HETATM   21  C   UNK N   1      25.079  26.363  -5.581  0.00  0.00     0.027 A 
HETATM   22  C   UNK N   1      25.906  25.384  -5.011  0.00  0.00     0.061 A 
HETATM   23 Cl   UNK N   1      25.729  23.714  -5.519  0.00  0.00    -0.082 Cl
BRANCH  19  24
HETATM   24  S   UNK N   1      26.398  29.785  -3.705  0.00  0.00    -0.134 SA
HETATM   25  C   UNK N   1      27.717  29.481  -2.495  0.00  0.00     0.095 C 
ENDBRANCH  19  24
ENDBRANCH   2  17
TORSDOF 4
ENDMDL
MODEL 6
REMARK VINA RESULT:      -5.9      2.408      3.343
REMARK  4 active torsions:
REMARK  status: ('A' for Active; 'I' for Inactive)
REMARK    1  A    between atoms: S_2  and  C_13 
REMARK    2  A    between atoms: S_3  and  C_19 
REMARK    3  A    between atoms: N_4  and  C_8 
REMARK       I    between atoms: N_4  and  C_10 
REMARK    4  A    between atoms: N_5  and  C_14 
REMARK       I    between atoms: N_7  and  C_10 
ROOT
HETATM    1  N   UNK N   1      35.132  14.657   9.165  0.00  0.00    -0.188 N 
HETATM    2  N   UNK N   1      35.389  12.992  10.847  0.00  0.00    -0.190 N 
ATOM      3  HN  UNK N   1      36.188  12.645  10.316  1.00  0.00     0.184 HD
HETATM    4  N   UNK N   1      33.812  14.691  11.253  0.00  0.00    -0.234 N 
HETATM    5  C   UNK N   1      34.791  14.068  10.432  0.00  0.00     0.678 C 
HETATM    6  C   UNK N   1      36.320  14.203   8.475  0.00  0.00     0.175 C 
HETATM    7  H   UNK N   1      33.680  14.596  12.224  0.00  0.00     0.174 HD
HETATM    8  H   UNK N   1      33.187  15.295  10.790  0.00  0.00     0.174 HD
ENDROOT
BRANCH   1   9
HETATM    9  C   UNK N   1      34.275  15.630   8.538  0.00  0.00     0.052 A 
HETATM   10  C   UNK N   1      33.195  15.227   7.732  0.00  0.00     0.048 A 
HETATM   11  C   UNK N   1      32.363  16.149   7.107  0.00  0.00     0.002 A 
HETATM   12  C   UNK N   1      32.595  17.513   7.284  0.00  0.00     0.018 A 
HETATM   13  C   UNK N   1      33.675  17.942   8.063  0.00  0.00     0.004 A 
HETATM   14  C   UNK N   1      34.516  17.007   8.683  0.00  0.00     0.030 A 
BRANCH  11  15
HETATM   15  S   UNK N   1      30.970  15.555   6.141  0.00  0.00    -0.134 SA
HETATM   16  C   UNK N   1      29.825  16.843   6.711  0.00  0.00     0.095 C 
ENDBRANCH  11  15
ENDBRANCH   1   9
BRANCH   2  17
HETATM   17  C   UNK N   1      34.979  12.271  12.013  0.00  0.00     0.072 A 
HETATM   18  C   UNK N   1      35.230  12.799  13.292  0.00  0.00     0.050 A 
HETATM   19  C   UNK N   1      34.834  12.143  14.447  0.00  0.00     0.002 A 
HETATM   20  C   UNK N   1      34.155  10.924  14.338  0.00  0.00     0.020 A 
HETATM   21  C   UNK N   1      33.878  10.385  13.074  0.00  0.00     0.027 A 
HETATM   22  C   UNK N   1      34.280  11.057  11.910  0.00  0.00     0.061 A 
HETATM   23 Cl   UNK N   1      33.912  10.352  10.346  0.00  0.00    -0.082 Cl
BRANCH  19  24
HETATM   24  S   UNK N   1      35.212  12.930  16.026  0.00  0.00    -0.134 SA
HETATM   25  C   UNK N   1      36.629  13.925  15.482  0.00  0.00     0.095 C 
ENDBRANCH  19  24
ENDBRANCH   2  17
TORSDOF 4
ENDMDL
MODEL 7
REMARK VINA RESULT:      -5.6      3.301      8.687
REMARK  4 active torsions:
REMARK  status: ('A' for Active; 'I' for Inactive)
REMARK    1  A    between atoms: S_2  and  C_13 
REMARK    2  A    between atoms: S_3  and  C_19 
REMARK    3  A    between atoms: N_4  and  C_8 
REMARK       I    between atoms: N_4  and  C_10 
REMARK    4  A    between atoms: N_5  and  C_14 
REMARK       I    between atoms: N_7  and  C_10 
ROOT
HETATM    1  N   UNK N   1      36.554  13.997  14.902  0.00  0.00    -0.188 N 
HETATM    2  N   UNK N   1      36.336  14.661  12.627  0.00  0.00    -0.190 N 
ATOM      3  HN  UNK N   1      36.738  15.558  12.898  1.00  0.00     0.184 HD
HETATM    4  N   UNK N   1      35.889  12.407  13.133  0.00  0.00    -0.234 N 
HETATM    5  C   UNK N   1      36.252  13.724  13.523  0.00  0.00     0.678 C 
HETATM    6  C   UNK N   1      37.204  15.243  15.248  0.00  0.00     0.175 C 
HETATM    7  H   UNK N   1      35.937  12.001  12.238  0.00  0.00     0.174 HD
HETATM    8  H   UNK N   1      35.546  11.827  13.850  0.00  0.00     0.174 HD
ENDROOT
BRANCH   1   9
HETATM    9  C   UNK N   1      36.155  13.090  15.948  0.00  0.00     0.052 A 
HETATM   10  C   UNK N   1      36.467  11.720  15.873  0.00  0.00     0.048 A 
HETATM   11  C   UNK N   1      36.081  10.825  16.865  0.00  0.00     0.002 A 
HETATM   12  C   UNK N   1      35.370  11.292  17.971  0.00  0.00     0.018 A 
HETATM   13  C   UNK N   1      35.028  12.645  18.061  0.00  0.00     0.004 A 
HETATM   14  C   UNK N   1      35.412  13.541  17.052  0.00  0.00     0.030 A 
BRANCH  11  15
HETATM   15  S   UNK N   1      36.569   9.103  16.725  0.00  0.00    -0.134 SA
HETATM   16  C   UNK N   1      36.939   9.189  14.949  0.00  0.00     0.095 C 
ENDBRANCH  11  15
ENDBRANCH   1   9
BRANCH   2  17
HETATM   17  C   UNK N   1      35.890  14.494  11.278  0.00  0.00     0.072 A 
HETATM   18  C   UNK N   1      34.600  14.910  10.906  0.00  0.00     0.050 A 
HETATM   19  C   UNK N   1      34.134  14.783   9.606  0.00  0.00     0.002 A 
HETATM   20  C   UNK N   1      34.976  14.235   8.632  0.00  0.00     0.020 A 
HETATM   21  C   UNK N   1      36.273  13.828   8.975  0.00  0.00     0.027 A 
HETATM   22  C   UNK N   1      36.737  13.962  10.292  0.00  0.00     0.061 A 
HETATM   23 Cl   UNK N   1      38.368  13.443  10.681  0.00  0.00    -0.082 Cl
BRANCH  19  24
HETATM   24  S   UNK N   1      32.460  15.362   9.258  0.00  0.00    -0.134 SA
HETATM   25  C   UNK N   1      32.276  14.631   7.607  0.00  0.00     0.095 C 
ENDBRANCH  19  24
ENDBRANCH   2  17
TORSDOF 4
ENDMDL
MODEL 8
REMARK VINA RESULT:      -5.6      5.565      7.151
REMARK  4 active torsions:
REMARK  status: ('A' for Active; 'I' for Inactive)
REMARK    1  A    between atoms: S_2  and  C_13 
REMARK    2  A    between atoms: S_3  and  C_19 
REMARK    3  A    between atoms: N_4  and  C_8 
REMARK       I    between atoms: N_4  and  C_10 
REMARK    4  A    between atoms: N_5  and  C_14 
REMARK       I    between atoms: N_7  and  C_10 
ROOT
HETATM    1  N   UNK N   1      28.311  17.429   5.831  0.00  0.00    -0.188 N 
HETATM    2  N   UNK N   1      30.345  16.197   5.917  0.00  0.00    -0.190 N 
ATOM      3  HN  UNK N   1      29.837  15.482   6.436  1.00  0.00     0.184 HD
HETATM    4  N   UNK N   1      30.316  18.125   4.568  0.00  0.00    -0.234 N 
HETATM    5  C   UNK N   1      29.685  17.220   5.463  0.00  0.00     0.678 C 
HETATM    6  C   UNK N   1      27.588  16.363   6.491  0.00  0.00     0.175 C 
HETATM    7  H   UNK N   1      31.112  17.975   4.009  0.00  0.00     0.174 HD
HETATM    8  H   UNK N   1      29.904  19.016   4.498  0.00  0.00     0.174 HD
ENDROOT
BRANCH   1   9
HETATM    9  C   UNK N   1      27.666  18.701   5.623  0.00  0.00     0.052 A 
HETATM   10  C   UNK N   1      26.912  18.946   4.460  0.00  0.00     0.048 A 
HETATM   11  C   UNK N   1      26.293  20.169   4.232  0.00  0.00     0.002 A 
HETATM   12  C   UNK N   1      26.411  21.185   5.182  0.00  0.00     0.018 A 
HETATM   13  C   UNK N   1      27.172  20.976   6.337  0.00  0.00     0.004 A 
HETATM   14  C   UNK N   1      27.803  19.743   6.555  0.00  0.00     0.030 A 
BRANCH  11  15
HETATM   15  S   UNK N   1      25.300  20.383   2.751  0.00  0.00    -0.134 SA
HETATM   16  C   UNK N   1      23.773  19.740   3.493  0.00  0.00     0.095 C 
ENDBRANCH  11  15
ENDBRANCH   1   9
BRANCH   2  17
HETATM   17  C   UNK N   1      31.753  16.028   5.722  0.00  0.00     0.072 A 
HETATM   18  C   UNK N   1      32.228  15.291   4.623  0.00  0.00     0.050 A 
HETATM   19  C   UNK N   1      33.583  15.118   4.386  0.00  0.00     0.002 A 
HETATM   20  C   UNK N   1      34.506  15.701   5.261  0.00  0.00     0.020 A 
HETATM   21  C   UNK N   1      34.057  16.454   6.355  0.00  0.00     0.027 A 
HETATM   22  C   UNK N   1      32.685  16.627   6.586  0.00  0.00     0.061 A 
HETATM   23 Cl   UNK N   1      32.162  17.579   7.964  0.00  0.00    -0.082 Cl
BRANCH  19  24
HETATM   24  S   UNK N   1      34.061  14.156   2.937  0.00  0.00    -0.134 SA
HETATM   25  C   UNK N   1      35.097  12.925   3.778  0.00  0.00     0.095 C 
ENDBRANCH  19  24
ENDBRANCH   2  17
TORSDOF 4
ENDMDL
MODEL 9
REMARK VINA RESULT:      -5.4     15.567     18.225
REMARK  4 active torsions:
REMARK  status: ('A' for Active; 'I' for Inactive)
REMARK    1  A    between atoms: S_2  and  C_13 
REMARK    2  A    between atoms: S_3  and  C_19 
REMARK    3  A    between atoms: N_4  and  C_8 
REMARK       I    between atoms: N_4  and  C_10 
REMARK    4  A    between atoms: N_5  and  C_14 
REMARK       I    between atoms: N_7  and  C_10 
ROOT
HETATM    1  N   UNK N   1      27.613  25.116  -5.533  0.00  0.00    -0.188 N 
HETATM    2  N   UNK N   1      28.752  23.086  -5.037  0.00  0.00    -0.190 N 
ATOM      3  HN  UNK N   1      27.840  22.629  -5.035  1.00  0.00     0.184 HD
HETATM    4  N   UNK N   1      30.078  24.957  -5.566  0.00  0.00    -0.234 N 
HETATM    5  C   UNK N   1      28.813  24.344  -5.356  0.00  0.00     0.678 C 
HETATM    6  C   UNK N   1      26.341  24.432  -5.614  0.00  0.00     0.175 C 
HETATM    7  H   UNK N   1      30.939  24.525  -5.770  0.00  0.00     0.174 HD
HETATM    8  H   UNK N   1      30.094  25.939  -5.501  0.00  0.00     0.174 HD
ENDROOT
BRANCH   1   9
HETATM    9  C   UNK N   1      27.647  26.556  -5.555  0.00  0.00     0.052 A 
HETATM   10  C   UNK N   1      27.552  27.298  -4.362  0.00  0.00     0.048 A 
HETATM   11  C   UNK N   1      27.569  28.688  -4.361  0.00  0.00     0.002 A 
HETATM   12  C   UNK N   1      27.692  29.374  -5.570  0.00  0.00     0.018 A 
HETATM   13  C   UNK N   1      27.767  28.662  -6.772  0.00  0.00     0.004 A 
HETATM   14  C   UNK N   1      27.739  27.260  -6.767  0.00  0.00     0.030 A 
BRANCH  11  15
HETATM   15  S   UNK N   1      27.502  29.561  -2.793  0.00  0.00    -0.134 SA
HETATM   16  C   UNK N   1      26.506  30.941  -3.425  0.00  0.00     0.095 C 
ENDBRANCH  11  15
ENDBRANCH   1   9
BRANCH   2  17
HETATM   17  C   UNK N   1      29.904  22.312  -4.687  0.00  0.00     0.072 A 
HETATM   18  C   UNK N   1      30.609  21.611  -5.680  0.00  0.00     0.050 A 
HETATM   19  C   UNK N   1      31.741  20.864  -5.388  0.00  0.00     0.002 A 
HETATM   20  C   UNK N   1      32.201  20.816  -4.067  0.00  0.00     0.020 A 
HETATM   21  C   UNK N   1      31.524  21.521  -3.062  0.00  0.00     0.027 A 
HETATM   22  C   UNK N   1      30.382  22.275  -3.367  0.00  0.00     0.061 A 
HETATM   23 Cl   UNK N   1      29.564  23.146  -2.081  0.00  0.00    -0.082 Cl
BRANCH  19  24
HETATM   24  S   UNK N   1      32.558  20.016  -6.755  0.00  0.00    -0.134 SA
HETATM   25  C   UNK N   1      31.110  19.817  -7.833  0.00  0.00     0.095 C 
ENDBRANCH  19  24
ENDBRANCH   2  17
TORSDOF 4
ENDMDL
