MODEL 1
REMARK VINA RESULT:      -8.4      0.000      0.000
REMARK  9 active torsions:
REMARK  status: ('A' for Active; 'I' for Inactive)
REMARK    1  A    between atoms: O_1  and  C_12 
REMARK    2  A    between atoms: O_1  and  C_23 
REMARK    3  A    between atoms: O_2  and  C_26 
REMARK    4  A    between atoms: O_3  and  C_34 
REMARK    5  A    between atoms: N_4  and  C_11 
REMARK    6  A    between atoms: N_5  and  C_17 
REMARK    7  A    between atoms: C_11  and  C_12 
REMARK    8  A    between atoms: C_13  and  C_19 
REMARK    9  A    between atoms: C_17  and  C_18 
ROOT
HETATM    1  N   UNK N   1      32.132  17.134   6.899  0.00  0.00    -0.341 N 
HETATM    2  C   UNK N   1      31.643  16.396   5.860  0.00  0.00     0.052 A 
HETATM    3  C   UNK N   1      31.058  17.490   7.656  0.00  0.00     0.046 A 
HETATM    4  C   UNK N   1      30.247  16.317   5.960  0.00  0.00    -0.022 A 
HETATM    5  C   UNK N   1      29.901  17.020   7.094  0.00  0.00     0.002 A 
HETATM    6  C   UNK N   1      31.040  18.225   8.844  0.00  0.00     0.033 A 
HETATM    7  C   UNK N   1      28.650  17.272   7.660  0.00  0.00     0.051 A 
HETATM    8  C   UNK N   1      29.293  15.627   5.045  0.00  0.00     0.051 C 
HETATM    9  C   UNK N   1      28.603  18.029   8.845  0.00  0.00     0.066 A 
HETATM   10  C   UNK N   1      29.794  18.497   9.438  0.00  0.00     0.039 A 
ENDROOT
BRANCH   1  11
HETATM   11  C   UNK N   1      33.554  17.434   7.116  0.00  0.00     0.168 C 
BRANCH  11  12
HETATM   12  C   UNK N   1      34.217  16.637   8.183  0.00  0.00    -0.040 A 
HETATM   13  C   UNK N   1      34.561  15.291   7.991  0.00  0.00     0.011 A 
HETATM   14  C   UNK N   1      35.309  14.623   8.962  0.00  0.00     0.037 A 
HETATM   15  C   UNK N   1      35.694  15.294  10.135  0.00  0.00     0.068 A 
HETATM   16  C   UNK N   1      35.274  16.607  10.351  0.00  0.00     0.037 A 
HETATM   17  C   UNK N   1      34.544  17.279   9.375  0.00  0.00     0.011 A 
BRANCH  15  18
HETATM   18  O   UNK N   1      36.505  14.723  11.050  0.00  0.00    -0.349 OA
BRANCH  18  19
HETATM   19  C   UNK N   1      36.089  13.789  11.973  0.00  0.00     0.206 C 
BRANCH  19  20
HETATM   20  C   UNK N   1      36.230  14.351  13.389  0.00  0.00     0.299 C 
BRANCH  20  21
HETATM   21  N   UNK N   1      35.474  13.552  14.346  0.00  0.00     0.090 N 
HETATM   22  C   UNK N   1      36.334  13.215  15.475  0.00  0.00     0.272 C 
HETATM   23  C   UNK N   1      35.503  12.491  16.534  0.00  0.00     0.030 C 
HETATM   24  C   UNK N   1      34.875  11.233  15.933  0.00  0.00     0.003 C 
HETATM   25  C   UNK N   1      34.113  11.561  14.650  0.00  0.00     0.030 C 
HETATM   26  C   UNK N   1      35.032  12.317  13.700  0.00  0.00     0.272 C 
ENDBRANCH  20  21
ENDBRANCH  19  20
ENDBRANCH  18  19
ENDBRANCH  15  18
ENDBRANCH  11  12
ENDBRANCH   1  11
BRANCH   2  27
HETATM   27  C   UNK N   1      32.495  15.756   4.804  0.00  0.00    -0.009 A 
HETATM   28  C   UNK N   1      32.956  14.439   4.957  0.00  0.00     0.016 A 
HETATM   29  C   UNK N   1      33.714  13.817   3.967  0.00  0.00     0.037 A 
HETATM   30  C   UNK N   1      34.018  14.505   2.796  0.00  0.00     0.065 A 
HETATM   31  C   UNK N   1      33.572  15.818   2.622  0.00  0.00     0.037 A 
HETATM   32  C   UNK N   1      32.816  16.442   3.622  0.00  0.00     0.016 A 
BRANCH  30  33
HETATM   33  O   UNK N   1      34.737  13.902   1.836  0.00  0.00    -0.361 OA
HETATM   34  H   UNK N   1      34.893  14.340   1.022  0.00  0.00     0.217 HD
ENDBRANCH  30  33
ENDBRANCH   2  27
BRANCH   9  35
HETATM   35  O   UNK N   1      27.420  18.309   9.416  0.00  0.00    -0.361 OA
HETATM   36  H   UNK N   1      27.385  18.719  10.257  0.00  0.00     0.217 HD
ENDBRANCH   9  35
TORSDOF 9
ENDMDL
MODEL 2
REMARK VINA RESULT:      -8.0     14.678     19.079
REMARK  9 active torsions:
REMARK  status: ('A' for Active; 'I' for Inactive)
REMARK    1  A    between atoms: O_1  and  C_12 
REMARK    2  A    between atoms: O_1  and  C_23 
REMARK    3  A    between atoms: O_2  and  C_26 
REMARK    4  A    between atoms: O_3  and  C_34 
REMARK    5  A    between atoms: N_4  and  C_11 
REMARK    6  A    between atoms: N_5  and  C_17 
REMARK    7  A    between atoms: C_11  and  C_12 
REMARK    8  A    between atoms: C_13  and  C_19 
REMARK    9  A    between atoms: C_17  and  C_18 
ROOT
HETATM    1  N   UNK N   1      27.395  23.859  -4.819  0.00  0.00    -0.341 N 
HETATM    2  C   UNK N   1      27.782  23.635  -6.108  0.00  0.00     0.052 A 
HETATM    3  C   UNK N   1      28.439  23.475  -4.033  0.00  0.00     0.046 A 
HETATM    4  C   UNK N   1      29.069  23.081  -6.120  0.00  0.00    -0.022 A 
HETATM    5  C   UNK N   1      29.459  22.982  -4.802  0.00  0.00     0.002 A 
HETATM    6  C   UNK N   1      28.544  23.536  -2.641  0.00  0.00     0.033 A 
HETATM    7  C   UNK N   1      30.638  22.492  -4.237  0.00  0.00     0.051 A 
HETATM    8  C   UNK N   1      29.885  22.663  -7.297  0.00  0.00     0.051 C 
HETATM    9  C   UNK N   1      30.760  22.522  -2.836  0.00  0.00     0.066 A 
HETATM   10  C   UNK N   1      29.720  23.049  -2.042  0.00  0.00     0.039 A 
ENDROOT
BRANCH   1  11
HETATM   11  C   UNK N   1      26.100  24.427  -4.420  0.00  0.00     0.168 C 
BRANCH  11  12
HETATM   12  C   UNK N   1      26.079  25.904  -4.246  0.00  0.00    -0.040 A 
HETATM   13  C   UNK N   1      26.506  26.511  -3.056  0.00  0.00     0.011 A 
HETATM   14  C   UNK N   1      26.607  27.902  -2.986  0.00  0.00     0.037 A 
HETATM   15  C   UNK N   1      26.260  28.687  -4.100  0.00  0.00     0.068 A 
HETATM   16  C   UNK N   1      25.758  28.075  -5.249  0.00  0.00     0.037 A 
HETATM   17  C   UNK N   1      25.675  26.688  -5.325  0.00  0.00     0.011 A 
BRANCH  15  18
HETATM   18  O   UNK N   1      26.443  30.023  -4.115  0.00  0.00    -0.349 OA
BRANCH  18  19
HETATM   19  C   UNK N   1      27.614  30.645  -3.738  0.00  0.00     0.206 C 
BRANCH  19  20
HETATM   20  C   UNK N   1      28.747  30.252  -4.688  0.00  0.00     0.299 C 
BRANCH  20  21
HETATM   21  N   UNK N   1      29.127  28.857  -4.498  0.00  0.00     0.090 N 
HETATM   22  C   UNK N   1      30.308  28.794  -3.645  0.00  0.00     0.272 C 
HETATM   23  C   UNK N   1      30.625  27.329  -3.342  0.00  0.00     0.030 C 
HETATM   24  C   UNK N   1      30.853  26.565  -4.646  0.00  0.00     0.003 C 
HETATM   25  C   UNK N   1      29.688  26.770  -5.612  0.00  0.00     0.030 C 
HETATM   26  C   UNK N   1      29.445  28.263  -5.796  0.00  0.00     0.272 C 
ENDBRANCH  20  21
ENDBRANCH  19  20
ENDBRANCH  18  19
ENDBRANCH  15  18
ENDBRANCH  11  12
ENDBRANCH   1  11
BRANCH   2  27
HETATM   27  C   UNK N   1      26.948  23.968  -7.310  0.00  0.00    -0.009 A 
HETATM   28  C   UNK N   1      25.925  23.104  -7.733  0.00  0.00     0.016 A 
HETATM   29  C   UNK N   1      25.116  23.418  -8.823  0.00  0.00     0.037 A 
HETATM   30  C   UNK N   1      25.314  24.614  -9.508  0.00  0.00     0.065 A 
HETATM   31  C   UNK N   1      26.328  25.488  -9.108  0.00  0.00     0.037 A 
HETATM   32  C   UNK N   1      27.143  25.165  -8.015  0.00  0.00     0.016 A 
BRANCH  30  33
HETATM   33  O   UNK N   1      24.527  24.923 -10.551  0.00  0.00    -0.361 OA
HETATM   34  H   UNK N   1      23.644  25.202 -10.405  0.00  0.00     0.217 HD
ENDBRANCH  30  33
ENDBRANCH   2  27
BRANCH   9  35
HETATM   35  O   UNK N   1      31.871  22.047  -2.249  0.00  0.00    -0.361 OA
HETATM   36  H   UNK N   1      32.241  22.488  -1.510  0.00  0.00     0.217 HD
ENDBRANCH   9  35
TORSDOF 9
ENDMDL
MODEL 3
REMARK VINA RESULT:      -8.0      6.080     12.022
REMARK  9 active torsions:
REMARK  status: ('A' for Active; 'I' for Inactive)
REMARK    1  A    between atoms: O_1  and  C_12 
REMARK    2  A    between atoms: O_1  and  C_23 
REMARK    3  A    between atoms: O_2  and  C_26 
REMARK    4  A    between atoms: O_3  and  C_34 
REMARK    5  A    between atoms: N_4  and  C_11 
REMARK    6  A    between atoms: N_5  and  C_17 
REMARK    7  A    between atoms: C_11  and  C_12 
REMARK    8  A    between atoms: C_13  and  C_19 
REMARK    9  A    between atoms: C_17  and  C_18 
ROOT
HETATM    1  N   UNK N   1      28.292  17.412   4.749  0.00  0.00    -0.341 N 
HETATM    2  C   UNK N   1      27.539  18.463   5.184  0.00  0.00     0.052 A 
HETATM    3  C   UNK N   1      29.161  17.120   5.756  0.00  0.00     0.046 A 
HETATM    4  C   UNK N   1      27.964  18.843   6.465  0.00  0.00    -0.022 A 
HETATM    5  C   UNK N   1      28.991  17.988   6.800  0.00  0.00     0.002 A 
HETATM    6  C   UNK N   1      30.119  16.104   5.806  0.00  0.00     0.033 A 
HETATM    7  C   UNK N   1      29.779  17.923   7.951  0.00  0.00     0.051 A 
HETATM    8  C   UNK N   1      27.440  19.946   7.322  0.00  0.00     0.051 C 
HETATM    9  C   UNK N   1      30.767  16.923   8.017  0.00  0.00     0.066 A 
HETATM   10  C   UNK N   1      30.931  16.013   6.952  0.00  0.00     0.039 A 
ENDROOT
BRANCH   1  11
HETATM   11  C   UNK N   1      28.136  16.752   3.445  0.00  0.00     0.168 C 
BRANCH  11  12
HETATM   12  C   UNK N   1      26.993  15.805   3.345  0.00  0.00    -0.040 A 
HETATM   13  C   UNK N   1      26.497  15.129   4.469  0.00  0.00     0.011 A 
HETATM   14  C   UNK N   1      25.335  14.362   4.358  0.00  0.00     0.037 A 
HETATM   15  C   UNK N   1      24.683  14.253   3.118  0.00  0.00     0.068 A 
HETATM   16  C   UNK N   1      25.233  14.863   1.990  0.00  0.00     0.037 A 
HETATM   17  C   UNK N   1      26.380  15.642   2.104  0.00  0.00     0.011 A 
BRANCH  15  18
HETATM   18  O   UNK N   1      23.502  13.613   2.987  0.00  0.00    -0.349 OA
BRANCH  18  19
HETATM   19  C   UNK N   1      22.426  14.115   2.287  0.00  0.00     0.206 C 
BRANCH  19  20
HETATM   20  C   UNK N   1      21.282  14.445   3.248  0.00  0.00     0.299 C 
BRANCH  20  21
HETATM   21  N   UNK N   1      20.607  15.675   2.854  0.00  0.00     0.090 N 
HETATM   22  C   UNK N   1      20.779  15.878   1.420  0.00  0.00     0.272 C 
HETATM   23  C   UNK N   1      19.961  17.095   0.988  0.00  0.00     0.030 C 
HETATM   24  C   UNK N   1      20.412  18.329   1.771  0.00  0.00     0.003 C 
HETATM   25  C   UNK N   1      20.394  18.060   3.274  0.00  0.00     0.030 C 
HETATM   26  C   UNK N   1      21.203  16.802   3.568  0.00  0.00     0.272 C 
ENDBRANCH  20  21
ENDBRANCH  19  20
ENDBRANCH  18  19
ENDBRANCH  15  18
ENDBRANCH  11  12
ENDBRANCH   1  11
BRANCH   2  27
HETATM   27  C   UNK N   1      26.416  19.078   4.403  0.00  0.00    -0.009 A 
HETATM   28  C   UNK N   1      25.090  18.664   4.608  0.00  0.00     0.016 A 
HETATM   29  C   UNK N   1      24.032  19.254   3.919  0.00  0.00     0.037 A 
HETATM   30  C   UNK N   1      24.285  20.280   3.013  0.00  0.00     0.065 A 
HETATM   31  C   UNK N   1      25.596  20.706   2.789  0.00  0.00     0.037 A 
HETATM   32  C   UNK N   1      26.658  20.107   3.479  0.00  0.00     0.016 A 
BRANCH  30  33
HETATM   33  O   UNK N   1      23.265  20.858   2.358  0.00  0.00    -0.361 OA
HETATM   34  H   UNK N   1      22.389  20.768   2.681  0.00  0.00     0.217 HD
ENDBRANCH  30  33
ENDBRANCH   2  27
BRANCH   9  35
HETATM   35  O   UNK N   1      31.558  16.833   9.099  0.00  0.00    -0.361 OA
HETATM   36  H   UNK N   1      31.287  16.332   9.843  0.00  0.00     0.217 HD
ENDBRANCH   9  35
TORSDOF 9
ENDMDL
MODEL 4
REMARK VINA RESULT:      -7.8     14.788     19.106
REMARK  9 active torsions:
REMARK  status: ('A' for Active; 'I' for Inactive)
REMARK    1  A    between atoms: O_1  and  C_12 
REMARK    2  A    between atoms: O_1  and  C_23 
REMARK    3  A    between atoms: O_2  and  C_26 
REMARK    4  A    between atoms: O_3  and  C_34 
REMARK    5  A    between atoms: N_4  and  C_11 
REMARK    6  A    between atoms: N_5  and  C_17 
REMARK    7  A    between atoms: C_11  and  C_12 
REMARK    8  A    between atoms: C_13  and  C_19 
REMARK    9  A    between atoms: C_17  and  C_18 
ROOT
HETATM    1  N   UNK N   1      27.224  25.464  -4.183  0.00  0.00    -0.341 N 
HETATM    2  C   UNK N   1      28.557  25.237  -4.004  0.00  0.00     0.052 A 
HETATM    3  C   UNK N   1      27.059  26.816  -4.159  0.00  0.00     0.046 A 
HETATM    4  C   UNK N   1      29.221  26.460  -3.840  0.00  0.00    -0.022 A 
HETATM    5  C   UNK N   1      28.256  27.439  -3.934  0.00  0.00     0.002 A 
HETATM    6  C   UNK N   1      25.881  27.548  -4.329  0.00  0.00     0.033 A 
HETATM    7  C   UNK N   1      28.359  28.828  -3.835  0.00  0.00     0.051 A 
HETATM    8  C   UNK N   1      30.675  26.697  -3.605  0.00  0.00     0.051 C 
HETATM    9  C   UNK N   1      27.183  29.587  -3.980  0.00  0.00     0.066 A 
HETATM   10  C   UNK N   1      25.951  28.950  -4.234  0.00  0.00     0.039 A 
ENDROOT
BRANCH   1  11
HETATM   11  C   UNK N   1      26.214  24.415  -4.380  0.00  0.00     0.168 C 
BRANCH  11  12
HETATM   12  C   UNK N   1      25.918  24.075  -5.798  0.00  0.00    -0.040 A 
HETATM   13  C   UNK N   1      25.996  25.036  -6.817  0.00  0.00     0.011 A 
HETATM   14  C   UNK N   1      25.853  24.645  -8.150  0.00  0.00     0.037 A 
HETATM   15  C   UNK N   1      25.608  23.296  -8.461  0.00  0.00     0.068 A 
HETATM   16  C   UNK N   1      25.450  22.365  -7.434  0.00  0.00     0.037 A 
HETATM   17  C   UNK N   1      25.611  22.752  -6.107  0.00  0.00     0.011 A 
BRANCH  15  18
HETATM   18  O   UNK N   1      25.569  22.855  -9.736  0.00  0.00    -0.349 OA
BRANCH  18  19
HETATM   19  C   UNK N   1      26.119  21.663 -10.157  0.00  0.00     0.206 C 
BRANCH  19  20
HETATM   20  C   UNK N   1      27.646  21.765 -10.170  0.00  0.00     0.299 C 
BRANCH  20  21
HETATM   21  N   UNK N   1      28.256  20.533  -9.686  0.00  0.00     0.090 N 
HETATM   22  C   UNK N   1      28.550  20.671  -8.264  0.00  0.00     0.272 C 
HETATM   23  C   UNK N   1      29.067  19.334  -7.732  0.00  0.00     0.030 C 
HETATM   24  C   UNK N   1      30.315  18.912  -8.508  0.00  0.00     0.003 C 
HETATM   25  C   UNK N   1      30.056  18.933 -10.014  0.00  0.00     0.030 C 
HETATM   26  C   UNK N   1      29.504  20.297 -10.409  0.00  0.00     0.272 C 
ENDBRANCH  20  21
ENDBRANCH  19  20
ENDBRANCH  18  19
ENDBRANCH  15  18
ENDBRANCH  11  12
ENDBRANCH   1  11
BRANCH   2  27
HETATM   27  C   UNK N   1      29.191  23.877  -4.014  0.00  0.00    -0.009 A 
HETATM   28  C   UNK N   1      29.504  23.242  -5.227  0.00  0.00     0.016 A 
HETATM   29  C   UNK N   1      30.129  21.997  -5.252  0.00  0.00     0.037 A 
HETATM   30  C   UNK N   1      30.460  21.366  -4.056  0.00  0.00     0.065 A 
HETATM   31  C   UNK N   1      30.156  21.977  -2.837  0.00  0.00     0.037 A 
HETATM   32  C   UNK N   1      29.522  23.226  -2.816  0.00  0.00     0.016 A 
BRANCH  30  33
HETATM   33  O   UNK N   1      31.074  20.172  -4.079  0.00  0.00    -0.361 OA
HETATM   34  H   UNK N   1      30.729  19.478  -4.605  0.00  0.00     0.217 HD
ENDBRANCH  30  33
ENDBRANCH   2  27
BRANCH   9  35
HETATM   35  O   UNK N   1      27.233  30.926  -3.877  0.00  0.00    -0.361 OA
HETATM   36  H   UNK N   1      27.948  31.340  -3.435  0.00  0.00     0.217 HD
ENDBRANCH   9  35
TORSDOF 9
ENDMDL
MODEL 5
REMARK VINA RESULT:      -7.8      8.457     12.545
REMARK  9 active torsions:
REMARK  status: ('A' for Active; 'I' for Inactive)
REMARK    1  A    between atoms: O_1  and  C_12 
REMARK    2  A    between atoms: O_1  and  C_23 
REMARK    3  A    between atoms: O_2  and  C_26 
REMARK    4  A    between atoms: O_3  and  C_34 
REMARK    5  A    between atoms: N_4  and  C_11 
REMARK    6  A    between atoms: N_5  and  C_17 
REMARK    7  A    between atoms: C_11  and  C_12 
REMARK    8  A    between atoms: C_13  and  C_19 
REMARK    9  A    between atoms: C_17  and  C_18 
ROOT
HETATM    1  N   UNK N   1      22.230  13.443   7.310  0.00  0.00    -0.341 N 
HETATM    2  C   UNK N   1      21.199  14.329   7.425  0.00  0.00     0.052 A 
HETATM    3  C   UNK N   1      22.355  12.838   8.523  0.00  0.00     0.046 A 
HETATM    4  C   UNK N   1      20.697  14.292   8.734  0.00  0.00    -0.022 A 
HETATM    5  C   UNK N   1      21.446  13.352   9.408  0.00  0.00     0.002 A 
HETATM    6  C   UNK N   1      23.249  11.834   8.903  0.00  0.00     0.033 A 
HETATM    7  C   UNK N   1      21.382  12.922  10.735  0.00  0.00     0.051 A 
HETATM    8  C   UNK N   1      19.584  15.094   9.318  0.00  0.00     0.051 C 
HETATM    9  C   UNK N   1      22.287  11.927  11.149  0.00  0.00     0.066 A 
HETATM   10  C   UNK N   1      23.211  11.380  10.235  0.00  0.00     0.039 A 
ENDROOT
BRANCH   1  11
HETATM   11  C   UNK N   1      23.004  13.215   6.081  0.00  0.00     0.168 C 
BRANCH  11  12
HETATM   12  C   UNK N   1      24.181  14.105   5.896  0.00  0.00    -0.040 A 
HETATM   13  C   UNK N   1      24.897  14.615   6.990  0.00  0.00     0.011 A 
HETATM   14  C   UNK N   1      26.079  15.327   6.772  0.00  0.00     0.037 A 
HETATM   15  C   UNK N   1      26.531  15.548   5.460  0.00  0.00     0.068 A 
HETATM   16  C   UNK N   1      25.767  15.107   4.379  0.00  0.00     0.037 A 
HETATM   17  C   UNK N   1      24.599  14.382   4.597  0.00  0.00     0.011 A 
BRANCH  15  18
HETATM   18  O   UNK N   1      27.719  16.135   5.205  0.00  0.00    -0.349 OA
BRANCH  18  19
HETATM   19  C   UNK N   1      27.921  17.065   4.209  0.00  0.00     0.206 C 
BRANCH  19  20
HETATM   20  C   UNK N   1      27.405  18.435   4.656  0.00  0.00     0.299 C 
BRANCH  20  21
HETATM   21  N   UNK N   1      26.250  18.842   3.865  0.00  0.00     0.090 N 
HETATM   22  C   UNK N   1      26.451  20.205   3.389  0.00  0.00     0.272 C 
HETATM   23  C   UNK N   1      25.301  20.580   2.454  0.00  0.00     0.030 C 
HETATM   24  C   UNK N   1      23.968  20.451   3.192  0.00  0.00     0.003 C 
HETATM   25  C   UNK N   1      23.830  19.074   3.837  0.00  0.00     0.030 C 
HETATM   26  C   UNK N   1      25.053  18.802   4.704  0.00  0.00     0.272 C 
ENDBRANCH  20  21
ENDBRANCH  19  20
ENDBRANCH  18  19
ENDBRANCH  15  18
ENDBRANCH  11  12
ENDBRANCH   1  11
BRANCH   2  27
HETATM   27  C   UNK N   1      20.684  15.178   6.301  0.00  0.00    -0.009 A 
HETATM   28  C   UNK N   1      21.215  16.457   6.069  0.00  0.00     0.016 A 
HETATM   29  C   UNK N   1      20.776  17.241   5.004  0.00  0.00     0.037 A 
HETATM   30  C   UNK N   1      19.797  16.752   4.144  0.00  0.00     0.065 A 
HETATM   31  C   UNK N   1      19.251  15.483   4.356  0.00  0.00     0.037 A 
HETATM   32  C   UNK N   1      19.691  14.700   5.432  0.00  0.00     0.016 A 
BRANCH  30  33
HETATM   33  O   UNK N   1      19.382  17.502   3.110  0.00  0.00    -0.361 OA
HETATM   34  H   UNK N   1      18.465  17.614   2.951  0.00  0.00     0.217 HD
ENDBRANCH  30  33
ENDBRANCH   2  27
BRANCH   9  35
HETATM   35  O   UNK N   1      22.272  11.495  12.421  0.00  0.00    -0.361 OA
HETATM   36  H   UNK N   1      22.809  11.908  13.067  0.00  0.00     0.217 HD
ENDBRANCH   9  35
TORSDOF 9
ENDMDL
MODEL 6
REMARK VINA RESULT:      -7.7      6.556     10.764
REMARK  9 active torsions:
REMARK  status: ('A' for Active; 'I' for Inactive)
REMARK    1  A    between atoms: O_1  and  C_12 
REMARK    2  A    between atoms: O_1  and  C_23 
REMARK    3  A    between atoms: O_2  and  C_26 
REMARK    4  A    between atoms: O_3  and  C_34 
REMARK    5  A    between atoms: N_4  and  C_11 
REMARK    6  A    between atoms: N_5  and  C_17 
REMARK    7  A    between atoms: C_11  and  C_12 
REMARK    8  A    between atoms: C_13  and  C_19 
REMARK    9  A    between atoms: C_17  and  C_18 
ROOT
HETATM    1  N   UNK N   1      22.294  14.380   6.879  0.00  0.00    -0.341 N 
HETATM    2  C   UNK N   1      21.392  15.398   6.982  0.00  0.00     0.052 A 
HETATM    3  C   UNK N   1      22.157  13.630   8.007  0.00  0.00     0.046 A 
HETATM    4  C   UNK N   1      20.706  15.292   8.200  0.00  0.00    -0.022 A 
HETATM    5  C   UNK N   1      21.211  14.176   8.832  0.00  0.00     0.002 A 
HETATM    6  C   UNK N   1      22.837  12.461   8.359  0.00  0.00     0.033 A 
HETATM    7  C   UNK N   1      20.897  13.614  10.071  0.00  0.00     0.051 A 
HETATM    8  C   UNK N   1      19.644  16.188   8.743  0.00  0.00     0.051 C 
HETATM    9  C   UNK N   1      21.584  12.449  10.458  0.00  0.00     0.066 A 
HETATM   10  C   UNK N   1      22.544  11.871   9.602  0.00  0.00     0.039 A 
ENDROOT
BRANCH   1  11
HETATM   11  C   UNK N   1      23.197  14.174   5.738  0.00  0.00     0.168 C 
BRANCH  11  12
HETATM   12  C   UNK N   1      24.450  14.976   5.766  0.00  0.00    -0.040 A 
HETATM   13  C   UNK N   1      24.750  15.908   4.761  0.00  0.00     0.011 A 
HETATM   14  C   UNK N   1      25.862  16.741   4.900  0.00  0.00     0.037 A 
HETATM   15  C   UNK N   1      26.686  16.627   6.033  0.00  0.00     0.068 A 
HETATM   16  C   UNK N   1      26.424  15.641   6.984  0.00  0.00     0.037 A 
HETATM   17  C   UNK N   1      25.305  14.823   6.855  0.00  0.00     0.011 A 
BRANCH  15  18
HETATM   18  O   UNK N   1      27.706  17.480   6.261  0.00  0.00    -0.349 OA
BRANCH  18  19
HETATM   19  C   UNK N   1      28.859  17.522   5.506  0.00  0.00     0.206 C 
BRANCH  19  20
HETATM   20  C   UNK N   1      29.907  16.577   6.097  0.00  0.00     0.299 C 
BRANCH  20  21
HETATM   21  N   UNK N   1      31.163  17.276   6.340  0.00  0.00     0.090 N 
HETATM   22  C   UNK N   1      32.218  16.656   5.545  0.00  0.00     0.272 C 
HETATM   23  C   UNK N   1      33.502  17.471   5.701  0.00  0.00     0.030 C 
HETATM   24  C   UNK N   1      33.899  17.540   7.177  0.00  0.00     0.003 C 
HETATM   25  C   UNK N   1      32.734  18.029   8.035  0.00  0.00     0.030 C 
HETATM   26  C   UNK N   1      31.509  17.168   7.756  0.00  0.00     0.272 C 
ENDBRANCH  20  21
ENDBRANCH  19  20
ENDBRANCH  18  19
ENDBRANCH  15  18
ENDBRANCH  11  12
ENDBRANCH   1  11
BRANCH   2  27
HETATM   27  C   UNK N   1      21.169  16.440   5.926  0.00  0.00    -0.009 A 
HETATM   28  C   UNK N   1      20.297  16.195   4.852  0.00  0.00     0.016 A 
HETATM   29  C   UNK N   1      20.049  17.167   3.886  0.00  0.00     0.037 A 
HETATM   30  C   UNK N   1      20.667  18.411   3.982  0.00  0.00     0.065 A 
HETATM   31  C   UNK N   1      21.540  18.677   5.040  0.00  0.00     0.037 A 
HETATM   32  C   UNK N   1      21.792  17.694   6.007  0.00  0.00     0.016 A 
BRANCH  30  33
HETATM   33  O   UNK N   1      20.418  19.353   3.058  0.00  0.00    -0.361 OA
HETATM   34  H   UNK N   1      19.591  19.794   3.048  0.00  0.00     0.217 HD
ENDBRANCH  30  33
ENDBRANCH   2  27
BRANCH   9  35
HETATM   35  O   UNK N   1      21.325  11.883  11.648  0.00  0.00    -0.361 OA
HETATM   36  H   UNK N   1      20.670  11.217  11.723  0.00  0.00     0.217 HD
ENDBRANCH   9  35
TORSDOF 9
ENDMDL
MODEL 7
REMARK VINA RESULT:      -7.5     14.112     18.074
REMARK  9 active torsions:
REMARK  status: ('A' for Active; 'I' for Inactive)
REMARK    1  A    between atoms: O_1  and  C_12 
REMARK    2  A    between atoms: O_1  and  C_23 
REMARK    3  A    between atoms: O_2  and  C_26 
REMARK    4  A    between atoms: O_3  and  C_34 
REMARK    5  A    between atoms: N_4  and  C_11 
REMARK    6  A    between atoms: N_5  and  C_17 
REMARK    7  A    between atoms: C_11  and  C_12 
REMARK    8  A    between atoms: C_13  and  C_19 
REMARK    9  A    between atoms: C_17  and  C_18 
ROOT
HETATM    1  N   UNK N   1      26.041  24.824  -5.845  0.00  0.00    -0.341 N 
HETATM    2  C   UNK N   1      26.241  25.933  -6.615  0.00  0.00     0.052 A 
HETATM    3  C   UNK N   1      25.830  23.792  -6.708  0.00  0.00     0.046 A 
HETATM    4  C   UNK N   1      26.125  25.588  -7.969  0.00  0.00    -0.022 A 
HETATM    5  C   UNK N   1      25.858  24.237  -8.002  0.00  0.00     0.002 A 
HETATM    6  C   UNK N   1      25.608  22.445  -6.409  0.00  0.00     0.033 A 
HETATM    7  C   UNK N   1      25.641  23.380  -9.083  0.00  0.00     0.051 A 
HETATM    8  C   UNK N   1      26.253  26.475  -9.161  0.00  0.00     0.051 C 
HETATM    9  C   UNK N   1      25.393  22.023  -8.808  0.00  0.00     0.066 A 
HETATM   10  C   UNK N   1      25.384  21.556  -7.477  0.00  0.00     0.039 A 
ENDROOT
BRANCH   1  11
HETATM   11  C   UNK N   1      26.080  24.807  -4.376  0.00  0.00     0.168 C 
BRANCH  11  12
HETATM   12  C   UNK N   1      27.395  24.448  -3.779  0.00  0.00    -0.040 A 
HETATM   13  C   UNK N   1      27.488  23.629  -2.643  0.00  0.00     0.011 A 
HETATM   14  C   UNK N   1      28.742  23.199  -2.203  0.00  0.00     0.037 A 
HETATM   15  C   UNK N   1      29.902  23.607  -2.884  0.00  0.00     0.068 A 
HETATM   16  C   UNK N   1      29.800  24.488  -3.960  0.00  0.00     0.037 A 
HETATM   17  C   UNK N   1      28.550  24.901  -4.411  0.00  0.00     0.011 A 
BRANCH  15  18
HETATM   18  O   UNK N   1      31.122  23.132  -2.559  0.00  0.00    -0.349 OA
BRANCH  18  19
HETATM   19  C   UNK N   1      31.555  21.856  -2.851  0.00  0.00     0.206 C 
BRANCH  19  20
HETATM   20  C   UNK N   1      32.393  21.866  -4.131  0.00  0.00     0.299 C 
BRANCH  20  21
HETATM   21  N   UNK N   1      33.515  20.940  -4.028  0.00  0.00     0.090 N 
HETATM   22  C   UNK N   1      34.622  21.438  -4.837  0.00  0.00     0.272 C 
HETATM   23  C   UNK N   1      35.838  20.536  -4.623  0.00  0.00     0.030 C 
HETATM   24  C   UNK N   1      35.491  19.096  -5.001  0.00  0.00     0.003 C 
HETATM   25  C   UNK N   1      34.227  18.630  -4.281  0.00  0.00     0.030 C 
HETATM   26  C   UNK N   1      33.107  19.631  -4.535  0.00  0.00     0.272 C 
ENDBRANCH  20  21
ENDBRANCH  19  20
ENDBRANCH  18  19
ENDBRANCH  15  18
ENDBRANCH  11  12
ENDBRANCH   1  11
BRANCH   2  27
HETATM   27  C   UNK N   1      26.562  27.293  -6.070  0.00  0.00    -0.009 A 
HETATM   28  C   UNK N   1      25.816  27.833  -5.010  0.00  0.00     0.016 A 
HETATM   29  C   UNK N   1      26.127  29.078  -4.466  0.00  0.00     0.037 A 
HETATM   30  C   UNK N   1      27.201  29.804  -4.972  0.00  0.00     0.065 A 
HETATM   31  C   UNK N   1      27.956  29.288  -6.029  0.00  0.00     0.037 A 
HETATM   32  C   UNK N   1      27.636  28.039  -6.577  0.00  0.00     0.016 A 
BRANCH  30  33
HETATM   33  O   UNK N   1      27.509  30.998  -4.440  0.00  0.00    -0.361 OA
HETATM   34  H   UNK N   1      28.261  31.467  -4.746  0.00  0.00     0.217 HD
ENDBRANCH  30  33
ENDBRANCH   2  27
BRANCH   9  35
HETATM   35  O   UNK N   1      25.163  21.166  -9.816  0.00  0.00    -0.361 OA
HETATM   36  H   UNK N   1      25.876  20.721 -10.230  0.00  0.00     0.217 HD
ENDBRANCH   9  35
TORSDOF 9
ENDMDL
MODEL 8
REMARK VINA RESULT:      -7.5      2.942      9.360
REMARK  9 active torsions:
REMARK  status: ('A' for Active; 'I' for Inactive)
REMARK    1  A    between atoms: O_1  and  C_12 
REMARK    2  A    between atoms: O_1  and  C_23 
REMARK    3  A    between atoms: O_2  and  C_26 
REMARK    4  A    between atoms: O_3  and  C_34 
REMARK    5  A    between atoms: N_4  and  C_11 
REMARK    6  A    between atoms: N_5  and  C_17 
REMARK    7  A    between atoms: C_11  and  C_12 
REMARK    8  A    between atoms: C_13  and  C_19 
REMARK    9  A    between atoms: C_17  and  C_18 
ROOT
HETATM    1  N   UNK N   1      36.258  12.711  13.587  0.00  0.00    -0.341 N 
HETATM    2  C   UNK N   1      35.534  11.592  13.879  0.00  0.00     0.052 A 
HETATM    3  C   UNK N   1      36.325  13.436  14.737  0.00  0.00     0.046 A 
HETATM    4  C   UNK N   1      35.125  11.638  15.219  0.00  0.00    -0.022 A 
HETATM    5  C   UNK N   1      35.628  12.812  15.737  0.00  0.00     0.002 A 
HETATM    6  C   UNK N   1      36.983  14.649  14.960  0.00  0.00     0.033 A 
HETATM    7  C   UNK N   1      35.516  13.363  17.014  0.00  0.00     0.051 A 
HETATM    8  C   UNK N   1      34.307  10.642  15.970  0.00  0.00     0.051 C 
HETATM    9  C   UNK N   1      36.151  14.595  17.259  0.00  0.00     0.066 A 
HETATM   10  C   UNK N   1      36.887  15.231  16.238  0.00  0.00     0.039 A 
ENDROOT
BRANCH   1  11
HETATM   11  C   UNK N   1      36.844  13.009  12.272  0.00  0.00     0.168 C 
BRANCH  11  12
HETATM   12  C   UNK N   1      35.947  13.723  11.324  0.00  0.00    -0.040 A 
HETATM   13  C   UNK N   1      35.202  13.034  10.355  0.00  0.00     0.011 A 
HETATM   14  C   UNK N   1      34.265  13.724   9.583  0.00  0.00     0.037 A 
HETATM   15  C   UNK N   1      34.090  15.107   9.764  0.00  0.00     0.068 A 
HETATM   16  C   UNK N   1      34.896  15.794  10.672  0.00  0.00     0.037 A 
HETATM   17  C   UNK N   1      35.816  15.104  11.454  0.00  0.00     0.011 A 
BRANCH  15  18
HETATM   18  O   UNK N   1      33.125  15.794   9.118  0.00  0.00    -0.349 OA
BRANCH  18  19
HETATM   19  C   UNK N   1      33.263  17.095   8.685  0.00  0.00     0.206 C 
BRANCH  19  20
HETATM   20  C   UNK N   1      32.216  17.405   7.613  0.00  0.00     0.299 C 
BRANCH  20  21
HETATM   21  N   UNK N   1      30.871  17.393   8.176  0.00  0.00     0.090 N 
HETATM   22  C   UNK N   1      29.897  17.421   7.092  0.00  0.00     0.272 C 
HETATM   23  C   UNK N   1      28.493  17.276   7.681  0.00  0.00     0.030 C 
HETATM   24  C   UNK N   1      28.230  18.403   8.681  0.00  0.00     0.003 C 
HETATM   25  C   UNK N   1      29.344  18.483   9.722  0.00  0.00     0.030 C 
HETATM   26  C   UNK N   1      30.688  18.579   9.012  0.00  0.00     0.272 C 
ENDBRANCH  20  21
ENDBRANCH  19  20
ENDBRANCH  18  19
ENDBRANCH  15  18
ENDBRANCH  11  12
ENDBRANCH   1  11
BRANCH   2  27
HETATM   27  C   UNK N   1      35.258  10.486  12.905  0.00  0.00    -0.009 A 
HETATM   28  C   UNK N   1      33.996  10.361  12.302  0.00  0.00     0.016 A 
HETATM   29  C   UNK N   1      33.737   9.363  11.365  0.00  0.00     0.037 A 
HETATM   30  C   UNK N   1      34.745   8.473  11.006  0.00  0.00     0.065 A 
HETATM   31  C   UNK N   1      36.008   8.575  11.595  0.00  0.00     0.037 A 
HETATM   32  C   UNK N   1      36.263   9.576  12.541  0.00  0.00     0.016 A 
BRANCH  30  33
HETATM   33  O   UNK N   1      34.499   7.519  10.094  0.00  0.00    -0.361 OA
HETATM   34  H   UNK N   1      33.790   6.919  10.222  0.00  0.00     0.217 HD
ENDBRANCH  30  33
ENDBRANCH   2  27
BRANCH   9  35
HETATM   35  O   UNK N   1      36.056  15.169  18.469  0.00  0.00    -0.361 OA
HETATM   36  H   UNK N   1      35.686  14.697  19.189  0.00  0.00     0.217 HD
ENDBRANCH   9  35
TORSDOF 9
ENDMDL
MODEL 9
REMARK VINA RESULT:      -7.5      7.106     11.782
REMARK  9 active torsions:
REMARK  status: ('A' for Active; 'I' for Inactive)
REMARK    1  A    between atoms: O_1  and  C_12 
REMARK    2  A    between atoms: O_1  and  C_23 
REMARK    3  A    between atoms: O_2  and  C_26 
REMARK    4  A    between atoms: O_3  and  C_34 
REMARK    5  A    between atoms: N_4  and  C_11 
REMARK    6  A    between atoms: N_5  and  C_17 
REMARK    7  A    between atoms: C_11  and  C_12 
REMARK    8  A    between atoms: C_13  and  C_19 
REMARK    9  A    between atoms: C_17  and  C_18 
ROOT
HETATM    1  N   UNK N   1      22.202  13.392   7.111  0.00  0.00    -0.341 N 
HETATM    2  C   UNK N   1      21.227  14.335   7.264  0.00  0.00     0.052 A 
HETATM    3  C   UNK N   1      22.372  12.815   8.333  0.00  0.00     0.046 A 
HETATM    4  C   UNK N   1      20.808  14.361   8.601  0.00  0.00    -0.022 A 
HETATM    5  C   UNK N   1      21.549  13.401   9.256  0.00  0.00     0.002 A 
HETATM    6  C   UNK N   1      23.235  11.775   8.687  0.00  0.00     0.033 A 
HETATM    7  C   UNK N   1      21.547  13.011  10.597  0.00  0.00     0.051 A 
HETATM    8  C   UNK N   1      19.778  15.237   9.229  0.00  0.00     0.051 C 
HETATM    9  C   UNK N   1      22.423  11.980  10.984  0.00  0.00     0.066 A 
HETATM   10  C   UNK N   1      23.258  11.360  10.031  0.00  0.00     0.039 A 
ENDROOT
BRANCH   1  11
HETATM   11  C   UNK N   1      22.883  13.090   5.845  0.00  0.00     0.168 C 
BRANCH  11  12
HETATM   12  C   UNK N   1      23.671  14.210   5.263  0.00  0.00    -0.040 A 
HETATM   13  C   UNK N   1      23.519  14.598   3.923  0.00  0.00     0.011 A 
HETATM   14  C   UNK N   1      24.168  15.744   3.457  0.00  0.00     0.037 A 
HETATM   15  C   UNK N   1      24.986  16.488   4.325  0.00  0.00     0.068 A 
HETATM   16  C   UNK N   1      25.194  16.044   5.632  0.00  0.00     0.037 A 
HETATM   17  C   UNK N   1      24.532  14.913   6.101  0.00  0.00     0.011 A 
BRANCH  15  18
HETATM   18  O   UNK N   1      25.545  17.657   3.950  0.00  0.00    -0.349 OA
BRANCH  18  19
HETATM   19  C   UNK N   1      26.077  18.575   4.830  0.00  0.00     0.206 C 
BRANCH  19  20
HETATM   20  C   UNK N   1      27.513  18.917   4.427  0.00  0.00     0.299 C 
BRANCH  20  21
HETATM   21  N   UNK N   1      28.440  18.647   5.519  0.00  0.00     0.090 N 
HETATM   22  C   UNK N   1      28.912  17.270   5.418  0.00  0.00     0.272 C 
HETATM   23  C   UNK N   1      29.981  17.032   6.485  0.00  0.00     0.030 C 
HETATM   24  C   UNK N   1      29.402  17.310   7.873  0.00  0.00     0.003 C 
HETATM   25  C   UNK N   1      28.754  18.692   7.929  0.00  0.00     0.030 C 
HETATM   26  C   UNK N   1      27.746  18.820   6.794  0.00  0.00     0.272 C 
ENDBRANCH  20  21
ENDBRANCH  19  20
ENDBRANCH  18  19
ENDBRANCH  15  18
ENDBRANCH  11  12
ENDBRANCH   1  11
BRANCH   2  27
HETATM   27  C   UNK N   1      20.687  15.180   6.148  0.00  0.00    -0.009 A 
HETATM   28  C   UNK N   1      21.130  16.501   5.972  0.00  0.00     0.016 A 
HETATM   29  C   UNK N   1      20.668  17.285   4.917  0.00  0.00     0.037 A 
HETATM   30  C   UNK N   1      19.755  16.754   4.010  0.00  0.00     0.065 A 
HETATM   31  C   UNK N   1      19.298  15.442   4.166  0.00  0.00     0.037 A 
HETATM   32  C   UNK N   1      19.760  14.660   5.232  0.00  0.00     0.016 A 
BRANCH  30  33
HETATM   33  O   UNK N   1      19.319  17.504   2.985  0.00  0.00    -0.361 OA
HETATM   34  H   UNK N   1      19.188  18.425   3.101  0.00  0.00     0.217 HD
ENDBRANCH  30  33
ENDBRANCH   2  27
BRANCH   9  35
HETATM   35  O   UNK N   1      22.467  11.584  12.267  0.00  0.00    -0.361 OA
HETATM   36  H   UNK N   1      22.899  10.787  12.501  0.00  0.00     0.217 HD
ENDBRANCH   9  35
TORSDOF 9
ENDMDL
