MODEL 1
REMARK VINA RESULT:      -7.3      0.000      0.000
REMARK  7 active torsions:
REMARK  status: ('A' for Active; 'I' for Inactive)
REMARK    1  A    between atoms: O_2  and  C_9 
REMARK    2  A    between atoms: O_2  and  C_10 
REMARK    3  A    between atoms: O_3  and  C_12 
REMARK    4  A    between atoms: O_3  and  C_20 
REMARK    5  A    between atoms: O_5  and  C_17 
REMARK    6  A    between atoms: O_5  and  C_25 
REMARK    7  A    between atoms: C_9  and  C_17 
ROOT
HETATM    1  C   UNK N   1      21.508  17.607   4.670  0.00  0.00     0.070 A 
HETATM    2  C   UNK N   1      20.640  15.371   6.137  0.00  0.00     0.080 A 
HETATM    3  C   UNK N   1      21.203  17.736   6.041  0.00  0.00     0.039 A 
HETATM    4  C   UNK N   1      21.414  16.364   4.063  0.00  0.00     0.039 A 
HETATM    5  C   UNK N   1      20.768  16.615   6.774  0.00  0.00     0.040 A 
HETATM    6  C   UNK N   1      20.998  15.264   4.784  0.00  0.00     0.040 A 
ENDROOT
BRANCH   2   7
HETATM    7  O   UNK N   1      20.187  14.279   6.816  0.00  0.00    -0.274 OA
BRANCH   7   8
HETATM    8  C   UNK N   1      20.927  13.686   7.794  0.00  0.00     0.276 A 
HETATM    9  O   UNK N   1      20.478  13.410   9.008  0.00  0.00    -0.271 OA
HETATM   10  C   UNK N   1      21.505  12.947   9.681  0.00  0.00     0.108 A 
HETATM   11  C   UNK N   1      22.589  12.923   8.859  0.00  0.00     0.070 A 
HETATM   12  C   UNK N   1      21.592  12.564  11.016  0.00  0.00     0.063 A 
HETATM   13  N   UNK N   1      22.244  13.381   7.653  0.00  0.00    -0.313 N 
HETATM   14  C   UNK N   1      23.846  12.513   9.281  0.00  0.00     0.034 A 
ATOM     15  HN  UNK N   1      22.829  13.480   6.823  1.00  0.00     0.170 HD
HETATM   16  C   UNK N   1      23.976  12.120  10.623  0.00  0.00     0.026 A 
HETATM   17  C   UNK N   1      22.856  12.147  11.489  0.00  0.00     0.036 A 
HETATM   18 Cl   UNK N   1      23.055  11.683  13.163  0.00  0.00    -0.084 Cl
ENDBRANCH   7   8
ENDBRANCH   2   7
BRANCH   1  19
HETATM   19  O   UNK N   1      21.856  18.648   3.880  0.00  0.00    -0.336 OA
BRANCH  19  20
HETATM   20  C   UNK N   1      21.108  19.743   3.501  0.00  0.00     0.224 C 
HETATM   21  C   UNK N   1      19.843  19.334   2.758  0.00  0.00     0.051 C 
BRANCH  20  22
HETATM   22  C   UNK N   1      21.961  20.593   2.579  0.00  0.00     0.288 C 
HETATM   23  O   UNK N   1      21.577  20.817   1.440  0.00  0.00    -0.262 OA
BRANCH  22  24
HETATM   24  O   UNK N   1      23.141  21.122   2.982  0.00  0.00    -0.320 OA
BRANCH  24  25
HETATM   25  C   UNK N   1      24.358  20.601   2.614  0.00  0.00     0.174 C 
HETATM   26  C   UNK N   1      25.153  20.254   3.853  0.00  0.00     0.034 C 
ENDBRANCH  24  25
ENDBRANCH  22  24
ENDBRANCH  20  22
ENDBRANCH  19  20
ENDBRANCH   1  19
TORSDOF 7
ENDMDL
MODEL 2
REMARK VINA RESULT:      -6.8     12.100     13.898
REMARK  7 active torsions:
REMARK  status: ('A' for Active; 'I' for Inactive)
REMARK    1  A    between atoms: O_2  and  C_9 
REMARK    2  A    between atoms: O_2  and  C_10 
REMARK    3  A    between atoms: O_3  and  C_12 
REMARK    4  A    between atoms: O_3  and  C_20 
REMARK    5  A    between atoms: O_5  and  C_17 
REMARK    6  A    between atoms: O_5  and  C_25 
REMARK    7  A    between atoms: C_9  and  C_17 
ROOT
HETATM    1  C   UNK N   1      33.901  15.856   9.342  0.00  0.00     0.070 A 
HETATM    2  C   UNK N   1      35.464  15.437  11.642  0.00  0.00     0.080 A 
HETATM    3  C   UNK N   1      34.809  16.846   9.769  0.00  0.00     0.039 A 
HETATM    4  C   UNK N   1      33.814  14.661  10.040  0.00  0.00     0.039 A 
HETATM    5  C   UNK N   1      35.592  16.635  10.922  0.00  0.00     0.040 A 
HETATM    6  C   UNK N   1      34.588  14.450  11.164  0.00  0.00     0.040 A 
ENDROOT
BRANCH   2   7
HETATM    7  O   UNK N   1      36.183  15.223  12.780  0.00  0.00    -0.274 OA
BRANCH   7   8
HETATM    8  C   UNK N   1      36.114  14.043  13.459  0.00  0.00     0.276 A 
HETATM    9  O   UNK N   1      35.097  13.679  14.223  0.00  0.00    -0.271 OA
HETATM   10  C   UNK N   1      35.447  12.544  14.782  0.00  0.00     0.108 A 
HETATM   11  C   UNK N   1      36.688  12.205  14.336  0.00  0.00     0.070 A 
HETATM   12  C   UNK N   1      34.767  11.767  15.715  0.00  0.00     0.063 A 
HETATM   13  N   UNK N   1      37.128  13.139  13.490  0.00  0.00    -0.313 N 
HETATM   14  C   UNK N   1      37.357  11.068  14.766  0.00  0.00     0.034 A 
ATOM     15  HN  UNK N   1      38.014  13.167  12.986  1.00  0.00     0.170 HD
HETATM   16  C   UNK N   1      36.705  10.257  15.709  0.00  0.00     0.026 A 
HETATM   17  C   UNK N   1      35.417  10.604  16.185  0.00  0.00     0.036 A 
HETATM   18 Cl   UNK N   1      34.644   9.593  17.383  0.00  0.00    -0.084 Cl
ENDBRANCH   7   8
ENDBRANCH   2   7
BRANCH   1  19
HETATM   19  O   UNK N   1      33.060  16.013   8.295  0.00  0.00    -0.336 OA
BRANCH  19  20
HETATM   20  C   UNK N   1      32.570  17.175   7.738  0.00  0.00     0.224 C 
HETATM   21  C   UNK N   1      31.059  17.118   7.550  0.00  0.00     0.051 C 
BRANCH  20  22
HETATM   22  C   UNK N   1      33.223  17.354   6.382  0.00  0.00     0.288 C 
HETATM   23  O   UNK N   1      34.311  17.909   6.306  0.00  0.00    -0.262 OA
BRANCH  22  24
HETATM   24  O   UNK N   1      32.640  16.911   5.242  0.00  0.00    -0.320 OA
BRANCH  24  25
HETATM   25  C   UNK N   1      33.231  15.995   4.408  0.00  0.00     0.174 C 
HETATM   26  C   UNK N   1      33.099  16.459   2.974  0.00  0.00     0.034 C 
ENDBRANCH  24  25
ENDBRANCH  22  24
ENDBRANCH  20  22
ENDBRANCH  19  20
ENDBRANCH   1  19
TORSDOF 7
ENDMDL
MODEL 3
REMARK VINA RESULT:      -6.8     11.135     12.747
REMARK  7 active torsions:
REMARK  status: ('A' for Active; 'I' for Inactive)
REMARK    1  A    between atoms: O_2  and  C_9 
REMARK    2  A    between atoms: O_2  and  C_10 
REMARK    3  A    between atoms: O_3  and  C_12 
REMARK    4  A    between atoms: O_3  and  C_20 
REMARK    5  A    between atoms: O_5  and  C_17 
REMARK    6  A    between atoms: O_5  and  C_25 
REMARK    7  A    between atoms: C_9  and  C_17 
ROOT
HETATM    1  C   UNK N   1      32.429  17.169   7.538  0.00  0.00     0.070 A 
HETATM    2  C   UNK N   1      34.592  16.971   9.324  0.00  0.00     0.080 A 
HETATM    3  C   UNK N   1      32.456  16.142   8.504  0.00  0.00     0.039 A 
HETATM    4  C   UNK N   1      33.455  18.101   7.501  0.00  0.00     0.039 A 
HETATM    5  C   UNK N   1      33.541  16.044   9.398  0.00  0.00     0.040 A 
HETATM    6  C   UNK N   1      34.512  18.011   8.384  0.00  0.00     0.040 A 
ENDROOT
BRANCH   2   7
HETATM    7  O   UNK N   1      35.669  16.876  10.153  0.00  0.00    -0.274 OA
BRANCH   7   8
HETATM    8  C   UNK N   1      35.939  15.737  10.851  0.00  0.00     0.276 A 
HETATM    9  O   UNK N   1      35.602  15.538  12.115  0.00  0.00    -0.271 OA
HETATM   10  C   UNK N   1      36.123  14.381  12.454  0.00  0.00     0.108 A 
HETATM   11  C   UNK N   1      36.769  13.862  11.374  0.00  0.00     0.070 A 
HETATM   12  C   UNK N   1      36.116  13.731  13.684  0.00  0.00     0.063 A 
HETATM   13  N   UNK N   1      36.659  14.703  10.343  0.00  0.00    -0.313 N 
HETATM   14  C   UNK N   1      37.455  12.657  11.415  0.00  0.00     0.034 A 
ATOM     15  HN  UNK N   1      37.028  14.594   9.398  1.00  0.00     0.170 HD
HETATM   16  C   UNK N   1      37.473  11.970  12.640  0.00  0.00     0.026 A 
HETATM   17  C   UNK N   1      36.810  12.504  13.772  0.00  0.00     0.036 A 
HETATM   18 Cl   UNK N   1      36.877  11.643  15.292  0.00  0.00    -0.084 Cl
ENDBRANCH   7   8
ENDBRANCH   2   7
BRANCH   1  19
HETATM   19  O   UNK N   1      31.466  17.285   6.596  0.00  0.00    -0.336 OA
BRANCH  19  20
HETATM   20  C   UNK N   1      30.295  16.569   6.453  0.00  0.00     0.224 C 
HETATM   21  C   UNK N   1      30.018  16.224   4.996  0.00  0.00     0.051 C 
BRANCH  20  22
HETATM   22  C   UNK N   1      29.159  17.425   6.976  0.00  0.00     0.288 C 
HETATM   23  O   UNK N   1      28.718  18.330   6.281  0.00  0.00    -0.262 OA
BRANCH  22  24
HETATM   24  O   UNK N   1      28.606  17.215   8.195  0.00  0.00    -0.320 OA
BRANCH  24  25
HETATM   25  C   UNK N   1      28.425  18.218   9.116  0.00  0.00     0.174 C 
HETATM   26  C   UNK N   1      29.764  18.620   9.692  0.00  0.00     0.034 C 
ENDBRANCH  24  25
ENDBRANCH  22  24
ENDBRANCH  20  22
ENDBRANCH  19  20
ENDBRANCH   1  19
TORSDOF 7
ENDMDL
MODEL 4
REMARK VINA RESULT:      -6.7     12.310     16.230
REMARK  7 active torsions:
REMARK  status: ('A' for Active; 'I' for Inactive)
REMARK    1  A    between atoms: O_2  and  C_9 
REMARK    2  A    between atoms: O_2  and  C_10 
REMARK    3  A    between atoms: O_3  and  C_12 
REMARK    4  A    between atoms: O_3  and  C_20 
REMARK    5  A    between atoms: O_5  and  C_17 
REMARK    6  A    between atoms: O_5  and  C_25 
REMARK    7  A    between atoms: C_9  and  C_17 
ROOT
HETATM    1  C   UNK N   1      36.310  13.779  12.014  0.00  0.00     0.070 A 
HETATM    2  C   UNK N   1      35.637  16.072  10.533  0.00  0.00     0.080 A 
HETATM    3  C   UNK N   1      36.488  13.794  10.615  0.00  0.00     0.039 A 
HETATM    4  C   UNK N   1      35.839  14.914  12.656  0.00  0.00     0.039 A 
HETATM    5  C   UNK N   1      36.150  14.944   9.874  0.00  0.00     0.040 A 
HETATM    6  C   UNK N   1      35.518  16.044  11.931  0.00  0.00     0.040 A 
ENDROOT
BRANCH   2   7
HETATM    7  O   UNK N   1      35.269  17.184   9.835  0.00  0.00    -0.274 OA
BRANCH   7   8
HETATM    8  C   UNK N   1      34.427  17.113   8.765  0.00  0.00     0.276 A 
HETATM    9  O   UNK N   1      34.820  17.138   7.502  0.00  0.00    -0.271 OA
HETATM   10  C   UNK N   1      33.725  17.156   6.779  0.00  0.00     0.108 A 
HETATM   11  C   UNK N   1      32.651  17.124   7.615  0.00  0.00     0.070 A 
HETATM   12  C   UNK N   1      33.574  17.243   5.398  0.00  0.00     0.063 A 
HETATM   13  N   UNK N   1      33.074  17.089   8.881  0.00  0.00    -0.313 N 
HETATM   14  C   UNK N   1      31.341  17.165   7.160  0.00  0.00     0.034 A 
ATOM     15  HN  UNK N   1      32.513  17.052   9.733  1.00  0.00     0.170 HD
HETATM   16  C   UNK N   1      31.146  17.253   5.772  0.00  0.00     0.026 A 
HETATM   17  C   UNK N   1      32.256  17.295   4.893  0.00  0.00     0.036 A 
HETATM   18 Cl   UNK N   1      31.983  17.438   3.172  0.00  0.00    -0.084 Cl
ENDBRANCH   7   8
ENDBRANCH   2   7
BRANCH   1  19
HETATM   19  O   UNK N   1      36.536  12.691  12.785  0.00  0.00    -0.336 OA
BRANCH  19  20
HETATM   20  C   UNK N   1      36.572  12.591  14.160  0.00  0.00     0.224 C 
HETATM   21  C   UNK N   1      37.613  11.581  14.625  0.00  0.00     0.051 C 
BRANCH  20  22
HETATM   22  C   UNK N   1      35.205  12.133  14.630  0.00  0.00     0.288 C 
HETATM   23  O   UNK N   1      34.779  11.043  14.273  0.00  0.00    -0.262 OA
BRANCH  22  24
HETATM   24  O   UNK N   1      34.436  12.896  15.443  0.00  0.00    -0.320 OA
BRANCH  24  25
HETATM   25  C   UNK N   1      34.811  13.240  16.719  0.00  0.00     0.174 C 
HETATM   26  C   UNK N   1      35.209  11.996  17.481  0.00  0.00     0.034 C 
ENDBRANCH  24  25
ENDBRANCH  22  24
ENDBRANCH  20  22
ENDBRANCH  19  20
ENDBRANCH   1  19
TORSDOF 7
ENDMDL
MODEL 5
REMARK VINA RESULT:      -6.6      9.918     11.520
REMARK  7 active torsions:
REMARK  status: ('A' for Active; 'I' for Inactive)
REMARK    1  A    between atoms: O_2  and  C_9 
REMARK    2  A    between atoms: O_2  and  C_10 
REMARK    3  A    between atoms: O_3  and  C_12 
REMARK    4  A    between atoms: O_3  and  C_20 
REMARK    5  A    between atoms: O_5  and  C_17 
REMARK    6  A    between atoms: O_5  and  C_25 
REMARK    7  A    between atoms: C_9  and  C_17 
ROOT
HETATM    1  C   UNK N   1      30.972  17.266   6.412  0.00  0.00     0.070 A 
HETATM    2  C   UNK N   1      33.235  17.678   8.029  0.00  0.00     0.080 A 
HETATM    3  C   UNK N   1      32.260  17.275   5.836  0.00  0.00     0.039 A 
HETATM    4  C   UNK N   1      30.834  17.422   7.783  0.00  0.00     0.039 A 
HETATM    5  C   UNK N   1      33.392  17.482   6.649  0.00  0.00     0.040 A 
HETATM    6  C   UNK N   1      31.945  17.615   8.579  0.00  0.00     0.040 A 
ENDROOT
BRANCH   2   7
HETATM    7  O   UNK N   1      34.312  17.916   8.830  0.00  0.00    -0.274 OA
BRANCH   7   8
HETATM    8  C   UNK N   1      34.912  16.918   9.539  0.00  0.00     0.276 A 
HETATM    9  O   UNK N   1      35.342  15.783   9.013  0.00  0.00    -0.271 OA
HETATM   10  C   UNK N   1      35.755  15.048  10.019  0.00  0.00     0.108 A 
HETATM   11  C   UNK N   1      35.591  15.754  11.171  0.00  0.00     0.070 A 
HETATM   12  C   UNK N   1      36.247  13.746  10.024  0.00  0.00     0.063 A 
HETATM   13  N   UNK N   1      35.063  16.948  10.889  0.00  0.00    -0.313 N 
HETATM   14  C   UNK N   1      35.904  15.240  12.421  0.00  0.00     0.034 A 
ATOM     15  HN  UNK N   1      34.829  17.703  11.534  1.00  0.00     0.170 HD
HETATM   16  C   UNK N   1      36.402  13.928  12.469  0.00  0.00     0.026 A 
HETATM   17  C   UNK N   1      36.571  13.181  11.278  0.00  0.00     0.036 A 
HETATM   18 Cl   UNK N   1      37.162  11.539  11.372  0.00  0.00    -0.084 Cl
ENDBRANCH   7   8
ENDBRANCH   2   7
BRANCH   1  19
HETATM   19  O   UNK N   1      29.832  17.152   5.693  0.00  0.00    -0.336 OA
BRANCH  19  20
HETATM   20  C   UNK N   1      28.599  17.726   5.920  0.00  0.00     0.224 C 
HETATM   21  C   UNK N   1      27.532  16.678   6.210  0.00  0.00     0.051 C 
BRANCH  20  22
HETATM   22  C   UNK N   1      28.204  18.489   4.670  0.00  0.00     0.288 C 
HETATM   23  O   UNK N   1      27.883  17.872   3.664  0.00  0.00    -0.262 OA
BRANCH  22  24
HETATM   24  O   UNK N   1      28.189  19.843   4.634  0.00  0.00    -0.320 OA
BRANCH  24  25
HETATM   25  C   UNK N   1      27.715  20.613   5.668  0.00  0.00     0.174 C 
HETATM   26  C   UNK N   1      26.215  20.759   5.542  0.00  0.00     0.034 C 
ENDBRANCH  24  25
ENDBRANCH  22  24
ENDBRANCH  20  22
ENDBRANCH  19  20
ENDBRANCH   1  19
TORSDOF 7
ENDMDL
MODEL 6
REMARK VINA RESULT:      -6.6     14.296     15.854
REMARK  7 active torsions:
REMARK  status: ('A' for Active; 'I' for Inactive)
REMARK    1  A    between atoms: O_2  and  C_9 
REMARK    2  A    between atoms: O_2  and  C_10 
REMARK    3  A    between atoms: O_3  and  C_12 
REMARK    4  A    between atoms: O_3  and  C_20 
REMARK    5  A    between atoms: O_5  and  C_17 
REMARK    6  A    between atoms: O_5  and  C_25 
REMARK    7  A    between atoms: C_9  and  C_17 
ROOT
HETATM    1  C   UNK N   1      27.676  25.062  -3.832  0.00  0.00     0.070 A 
HETATM    2  C   UNK N   1      29.662  23.540  -2.549  0.00  0.00     0.080 A 
HETATM    3  C   UNK N   1      27.311  24.020  -2.954  0.00  0.00     0.039 A 
HETATM    4  C   UNK N   1      29.018  25.355  -4.026  0.00  0.00     0.039 A 
HETATM    5  C   UNK N   1      28.308  23.259  -2.312  0.00  0.00     0.040 A 
HETATM    6  C   UNK N   1      29.993  24.615  -3.389  0.00  0.00     0.040 A 
ENDROOT
BRANCH   2   7
HETATM    7  O   UNK N   1      30.644  22.795  -1.968  0.00  0.00    -0.274 OA
BRANCH   7   8
HETATM    8  C   UNK N   1      31.442  21.966  -2.700  0.00  0.00     0.276 A 
HETATM    9  O   UNK N   1      32.709  21.707  -2.417  0.00  0.00    -0.271 OA
HETATM   10  C   UNK N   1      33.157  20.962  -3.400  0.00  0.00     0.108 A 
HETATM   11  C   UNK N   1      32.143  20.750  -4.283  0.00  0.00     0.070 A 
HETATM   12  C   UNK N   1      34.437  20.462  -3.624  0.00  0.00     0.063 A 
HETATM   13  N   UNK N   1      31.043  21.373  -3.855  0.00  0.00    -0.313 N 
HETATM   14  C   UNK N   1      32.304  20.024  -5.455  0.00  0.00     0.034 A 
ATOM     15  HN  UNK N   1      30.121  21.398  -4.291  1.00  0.00     0.170 HD
HETATM   16  C   UNK N   1      33.582  19.503  -5.717  0.00  0.00     0.026 A 
HETATM   17  C   UNK N   1      34.645  19.723  -4.809  0.00  0.00     0.036 A 
HETATM   18 Cl   UNK N   1      36.233  19.091  -5.178  0.00  0.00    -0.084 Cl
ENDBRANCH   7   8
ENDBRANCH   2   7
BRANCH   1  19
HETATM   19  O   UNK N   1      26.785  25.787  -4.545  0.00  0.00    -0.336 OA
BRANCH  19  20
HETATM   20  C   UNK N   1      26.603  25.845  -5.911  0.00  0.00     0.224 C 
HETATM   21  C   UNK N   1      25.501  26.825  -6.293  0.00  0.00     0.051 C 
BRANCH  20  22
HETATM   22  C   UNK N   1      26.211  24.460  -6.388  0.00  0.00     0.288 C 
HETATM   23  O   UNK N   1      25.194  23.939  -5.952  0.00  0.00    -0.262 OA
BRANCH  22  24
HETATM   24  O   UNK N   1      26.953  23.779  -7.293  0.00  0.00    -0.320 OA
BRANCH  24  25
HETATM   25  C   UNK N   1      27.345  22.475  -7.108  0.00  0.00     0.174 C 
HETATM   26  C   UNK N   1      28.658  22.446  -6.358  0.00  0.00     0.034 C 
ENDBRANCH  24  25
ENDBRANCH  22  24
ENDBRANCH  20  22
ENDBRANCH  19  20
ENDBRANCH   1  19
TORSDOF 7
ENDMDL
MODEL 7
REMARK VINA RESULT:      -6.6     11.525     15.293
REMARK  7 active torsions:
REMARK  status: ('A' for Active; 'I' for Inactive)
REMARK    1  A    between atoms: O_2  and  C_9 
REMARK    2  A    between atoms: O_2  and  C_10 
REMARK    3  A    between atoms: O_3  and  C_12 
REMARK    4  A    between atoms: O_3  and  C_20 
REMARK    5  A    between atoms: O_5  and  C_17 
REMARK    6  A    between atoms: O_5  and  C_25 
REMARK    7  A    between atoms: C_9  and  C_17 
ROOT
HETATM    1  C   UNK N   1      35.285  14.425  11.135  0.00  0.00     0.070 A 
HETATM    2  C   UNK N   1      34.498  16.718   9.710  0.00  0.00     0.080 A 
HETATM    3  C   UNK N   1      35.842  15.681  11.454  0.00  0.00     0.039 A 
HETATM    4  C   UNK N   1      34.321  14.337  10.143  0.00  0.00     0.039 A 
HETATM    5  C   UNK N   1      35.446  16.829  10.739  0.00  0.00     0.040 A 
HETATM    6  C   UNK N   1      33.926  15.463   9.450  0.00  0.00     0.040 A 
ENDROOT
BRANCH   2   7
HETATM    7  O   UNK N   1      34.125  17.807   8.980  0.00  0.00    -0.274 OA
BRANCH   7   8
HETATM    8  C   UNK N   1      33.440  17.682   7.808  0.00  0.00     0.276 A 
HETATM    9  O   UNK N   1      32.124  17.574   7.719  0.00  0.00    -0.271 OA
HETATM   10  C   UNK N   1      31.859  17.369   6.450  0.00  0.00     0.108 A 
HETATM   11  C   UNK N   1      33.030  17.371   5.755  0.00  0.00     0.070 A 
HETATM   12  C   UNK N   1      30.639  17.131   5.825  0.00  0.00     0.063 A 
HETATM   13  N   UNK N   1      34.046  17.576   6.596  0.00  0.00    -0.313 N 
HETATM   14  C   UNK N   1      33.094  17.147   4.387  0.00  0.00     0.034 A 
ATOM     15  HN  UNK N   1      35.041  17.637   6.381  1.00  0.00     0.170 HD
HETATM   16  C   UNK N   1      31.882  16.902   3.720  0.00  0.00     0.026 A 
HETATM   17  C   UNK N   1      30.660  16.890   4.433  0.00  0.00     0.036 A 
HETATM   18 Cl   UNK N   1      29.172  16.549   3.581  0.00  0.00    -0.084 Cl
ENDBRANCH   7   8
ENDBRANCH   2   7
BRANCH   1  19
HETATM   19  O   UNK N   1      35.668  13.267  11.720  0.00  0.00    -0.336 OA
BRANCH  19  20
HETATM   20  C   UNK N   1      36.588  13.062  12.726  0.00  0.00     0.224 C 
HETATM   21  C   UNK N   1      37.155  11.648  12.693  0.00  0.00     0.051 C 
BRANCH  20  22
HETATM   22  C   UNK N   1      35.884  13.273  14.052  0.00  0.00     0.288 C 
HETATM   23  O   UNK N   1      36.485  13.805  14.975  0.00  0.00    -0.262 OA
BRANCH  22  24
HETATM   24  O   UNK N   1      34.598  12.895  14.247  0.00  0.00    -0.320 OA
BRANCH  24  25
HETATM   25  C   UNK N   1      34.239  11.875  15.094  0.00  0.00     0.174 C 
HETATM   26  C   UNK N   1      33.752  10.694  14.283  0.00  0.00     0.034 C 
ENDBRANCH  24  25
ENDBRANCH  22  24
ENDBRANCH  20  22
ENDBRANCH  19  20
ENDBRANCH   1  19
TORSDOF 7
ENDMDL
MODEL 8
REMARK VINA RESULT:      -6.6     11.335     15.106
REMARK  7 active torsions:
REMARK  status: ('A' for Active; 'I' for Inactive)
REMARK    1  A    between atoms: O_2  and  C_9 
REMARK    2  A    between atoms: O_2  and  C_10 
REMARK    3  A    between atoms: O_3  and  C_12 
REMARK    4  A    between atoms: O_3  and  C_20 
REMARK    5  A    between atoms: O_5  and  C_17 
REMARK    6  A    between atoms: O_5  and  C_25 
REMARK    7  A    between atoms: C_9  and  C_17 
ROOT
HETATM    1  C   UNK N   1      35.221  14.112  11.603  0.00  0.00     0.070 A 
HETATM    2  C   UNK N   1      34.494  16.159   9.818  0.00  0.00     0.080 A 
HETATM    3  C   UNK N   1      34.419  13.819  10.481  0.00  0.00     0.039 A 
HETATM    4  C   UNK N   1      35.679  15.406  11.797  0.00  0.00     0.039 A 
HETATM    5  C   UNK N   1      34.056  14.846   9.587  0.00  0.00     0.040 A 
HETATM    6  C   UNK N   1      35.331  16.410  10.916  0.00  0.00     0.040 A 
ENDROOT
BRANCH   2   7
HETATM    7  O   UNK N   1      34.126  17.177   8.989  0.00  0.00    -0.274 OA
BRANCH   7   8
HETATM    8  C   UNK N   1      32.897  17.213   8.401  0.00  0.00     0.276 A 
HETATM    9  O   UNK N   1      32.677  16.991   7.115  0.00  0.00    -0.271 OA
HETATM   10  C   UNK N   1      31.400  17.219   6.918  0.00  0.00     0.108 A 
HETATM   11  C   UNK N   1      30.832  17.568   8.105  0.00  0.00     0.070 A 
HETATM   12  C   UNK N   1      30.664  17.187   5.737  0.00  0.00     0.063 A 
HETATM   13  N   UNK N   1      31.763  17.564   9.062  0.00  0.00    -0.313 N 
HETATM   14  C   UNK N   1      29.492  17.906   8.228  0.00  0.00     0.034 A 
ATOM     15  HN  UNK N   1      31.650  17.774  10.054  1.00  0.00     0.170 HD
HETATM   16  C   UNK N   1      28.715  17.887   7.058  0.00  0.00     0.026 A 
HETATM   17  C   UNK N   1      29.297  17.533   5.817  0.00  0.00     0.036 A 
HETATM   18 Cl   UNK N   1      28.312  17.549   4.372  0.00  0.00    -0.084 Cl
ENDBRANCH   7   8
ENDBRANCH   2   7
BRANCH   1  19
HETATM   19  O   UNK N   1      35.548  13.201  12.547  0.00  0.00    -0.336 OA
BRANCH  19  20
HETATM   20  C   UNK N   1      36.541  13.255  13.503  0.00  0.00     0.224 C 
HETATM   21  C   UNK N   1      37.395  11.994  13.503  0.00  0.00     0.051 C 
BRANCH  20  22
HETATM   22  C   UNK N   1      35.876  13.392  14.858  0.00  0.00     0.288 C 
HETATM   23  O   UNK N   1      36.522  13.818  15.806  0.00  0.00    -0.262 OA
BRANCH  22  24
HETATM   24  O   UNK N   1      34.577  13.062  15.055  0.00  0.00    -0.320 OA
BRANCH  24  25
HETATM   25  C   UNK N   1      34.187  11.891  15.657  0.00  0.00     0.174 C 
HETATM   26  C   UNK N   1      33.812  10.879  14.598  0.00  0.00     0.034 C 
ENDBRANCH  24  25
ENDBRANCH  22  24
ENDBRANCH  20  22
ENDBRANCH  19  20
ENDBRANCH   1  19
TORSDOF 7
ENDMDL
MODEL 9
REMARK VINA RESULT:      -6.5     14.555     15.939
REMARK  7 active torsions:
REMARK  status: ('A' for Active; 'I' for Inactive)
REMARK    1  A    between atoms: O_2  and  C_9 
REMARK    2  A    between atoms: O_2  and  C_10 
REMARK    3  A    between atoms: O_3  and  C_12 
REMARK    4  A    between atoms: O_3  and  C_20 
REMARK    5  A    between atoms: O_5  and  C_17 
REMARK    6  A    between atoms: O_5  and  C_25 
REMARK    7  A    between atoms: C_9  and  C_17 
ROOT
HETATM    1  C   UNK N   1      27.988  25.799  -4.066  0.00  0.00     0.070 A 
HETATM    2  C   UNK N   1      29.371  23.681  -2.838  0.00  0.00     0.080 A 
HETATM    3  C   UNK N   1      29.397  25.766  -4.092  0.00  0.00     0.039 A 
HETATM    4  C   UNK N   1      27.291  24.762  -3.465  0.00  0.00     0.039 A 
HETATM    5  C   UNK N   1      30.089  24.704  -3.476  0.00  0.00     0.040 A 
HETATM    6  C   UNK N   1      27.968  23.716  -2.871  0.00  0.00     0.040 A 
ENDROOT
BRANCH   2   7
HETATM    7  O   UNK N   1      30.017  22.662  -2.204  0.00  0.00    -0.274 OA
BRANCH   7   8
HETATM    8  C   UNK N   1      30.962  21.910  -2.836  0.00  0.00     0.276 A 
HETATM    9  O   UNK N   1      32.236  21.857  -2.481  0.00  0.00    -0.271 OA
HETATM   10  C   UNK N   1      32.837  21.119  -3.384  0.00  0.00     0.108 A 
HETATM   11  C   UNK N   1      31.912  20.703  -4.291  0.00  0.00     0.070 A 
HETATM   12  C   UNK N   1      34.185  20.797  -3.514  0.00  0.00     0.063 A 
HETATM   13  N   UNK N   1      30.713  21.187  -3.959  0.00  0.00    -0.313 N 
HETATM   14  C   UNK N   1      32.236  19.928  -5.396  0.00  0.00     0.034 A 
ATOM     15  HN  UNK N   1      29.822  21.047  -4.435  1.00  0.00     0.170 HD
HETATM   16  C   UNK N   1      33.588  19.582  -5.563  0.00  0.00     0.026 A 
HETATM   17  C   UNK N   1      34.559  20.016  -4.630  0.00  0.00     0.036 A 
HETATM   18 Cl   UNK N   1      36.238  19.598  -4.882  0.00  0.00    -0.084 Cl
ENDBRANCH   7   8
ENDBRANCH   2   7
BRANCH   1  19
HETATM   19  O   UNK N   1      27.253  26.819  -4.564  0.00  0.00    -0.336 OA
BRANCH  19  20
HETATM   20  C   UNK N   1      26.078  27.361  -4.087  0.00  0.00     0.224 C 
HETATM   21  C   UNK N   1      25.071  27.599  -5.204  0.00  0.00     0.051 C 
BRANCH  20  22
HETATM   22  C   UNK N   1      26.409  28.692  -3.438  0.00  0.00     0.288 C 
HETATM   23  O   UNK N   1      26.094  29.731  -4.002  0.00  0.00    -0.262 OA
BRANCH  22  24
HETATM   24  O   UNK N   1      27.041  28.767  -2.243  0.00  0.00    -0.320 OA
BRANCH  24  25
HETATM   25  C   UNK N   1      28.051  29.662  -1.988  0.00  0.00     0.174 C 
HETATM   26  C   UNK N   1      29.336  29.165  -2.613  0.00  0.00     0.034 C 
ENDBRANCH  24  25
ENDBRANCH  22  24
ENDBRANCH  20  22
ENDBRANCH  19  20
ENDBRANCH   1  19
TORSDOF 7
ENDMDL
