REMARK  19 active torsions:
REMARK  status: ('A' for Active; 'I' for Inactive)
REMARK    1  A    between atoms: C_2  and  C_4 
REMARK    2  A    between atoms: C_4  and  C_5 
REMARK    3  A    between atoms: C_5  and  C_6 
REMARK    4  A    between atoms: C_5  and  N_9 
REMARK       I    between atoms: C_6  and  N_8 
REMARK       I    between atoms: N_9  and  C_10 
REMARK    5  A    between atoms: C_10  and  C_12 
REMARK    6  A    between atoms: C_12  and  C_13 
REMARK    7  A    between atoms: C_12  and  N_20 
REMARK    8  A    between atoms: C_13  and  C_14 
REMARK       I    between atoms: N_20  and  C_21 
REMARK    9  A    between atoms: C_21  and  C_23 
REMARK   10  A    between atoms: C_23  and  C_24 
REMARK   11  A    between atoms: C_23  and  N_31 
REMARK   12  A    between atoms: C_24  and  C_25 
REMARK       I    between atoms: N_31  and  C_32 
REMARK   13  A    between atoms: C_32  and  C_34 
REMARK   14  A    between atoms: C_34  and  C_35 
REMARK   15  A    between atoms: C_34  and  N_38 
REMARK       I    between atoms: N_38  and  C_39 
REMARK   16  A    between atoms: C_39  and  C_41 
REMARK   17  A    between atoms: C_41  and  C_42 
REMARK   18  A    between atoms: C_41  and  N_46 
REMARK   19  A    between atoms: C_42  and  C_43 
ROOT
HETATM    1  C   UNK N   1      -2.537   4.399  -0.704  0.00  0.00     0.180 C 
ENDROOT
BRANCH   1   2
HETATM    2  C   UNK N   1      -3.564   3.468  -0.105  0.00  0.00     0.241 C 
HETATM    3  N   UNK N   1      -4.263   2.643  -0.926  0.00  0.00    -0.346 N 
HETATM    4  H   UNK N   1      -4.065   2.682  -1.889  0.00  0.00     0.163 HD
HETATM    5  O   UNK N   1      -3.762   3.471   1.103  0.00  0.00    -0.271 OA
BRANCH   3   6
HETATM    6  C   UNK N   1      -5.281   1.707  -0.483  0.00  0.00     0.180 C 
BRANCH   6   7
HETATM    7  C   UNK N   1      -4.770   0.313  -0.200  0.00  0.00     0.241 C 
HETATM    8  N   UNK N   1      -5.688  -0.628   0.135  0.00  0.00    -0.346 N 
HETATM    9  H   UNK N   1      -6.603  -0.280   0.245  0.00  0.00     0.163 HD
HETATM   10  O   UNK N   1      -3.586   0.036  -0.312  0.00  0.00    -0.271 OA
BRANCH   8  11
HETATM   11  C   UNK N   1      -5.562  -2.051   0.361  0.00  0.00     0.176 C 
BRANCH  11  12
HETATM   12  C   UNK N   1      -6.849  -2.658  -0.186  0.00  0.00     0.038 C 
BRANCH  12  13
HETATM   13  C   UNK N   1      -7.288  -3.927   0.513  0.00  0.00    -0.020 C 
HETATM   14  C   UNK N   1      -8.754  -4.142   0.202  0.00  0.00     0.009 C 
HETATM   15  C   UNK N   1      -6.499  -5.114   0.001  0.00  0.00     0.009 C 
ENDBRANCH  12  13
ENDBRANCH  11  12
BRANCH  11  16
HETATM   16  C   UNK N   1      -4.373  -2.683  -0.300  0.00  0.00     0.238 C 
HETATM   17  O   UNK N   1      -4.257  -2.651  -1.515  0.00  0.00    -0.271 OA
HETATM   18  N   UNK N   1      -3.452  -3.322   0.447  0.00  0.00    -0.368 N 
HETATM   19  H   UNK N   1      -3.520  -4.138   0.993  0.00  0.00     0.159 HD
HETATM   20  H   UNK N   1      -2.561  -2.902   0.447  0.00  0.00     0.159 HD
ENDBRANCH  11  16
ENDBRANCH   8  11
ENDBRANCH   6   7
BRANCH   6  21
HETATM   21  C   UNK N   1      -6.206   2.288   0.594  0.00  0.00     0.073 C 
BRANCH  21  22
HETATM   22  C   UNK N   1      -7.633   1.950   0.316  0.00  0.00    -0.056 A 
HETATM   23  C   UNK N   1      -8.127   0.659   0.547  0.00  0.00     0.007 A 
HETATM   24  C   UNK N   1      -9.457   0.350   0.258  0.00  0.00     0.001 A 
HETATM   25  C   UNK N   1     -10.302   1.336  -0.256  0.00  0.00     0.000 A 
HETATM   26  C   UNK N   1      -9.818   2.629  -0.474  0.00  0.00     0.001 A 
HETATM   27  C   UNK N   1      -8.484   2.936  -0.187  0.00  0.00     0.007 A 
ENDBRANCH  21  22
ENDBRANCH   6  21
ENDBRANCH   3   6
ENDBRANCH   1   2
BRANCH   1  28
HETATM   28  C   UNK N   1      -2.663   5.847  -0.199  0.00  0.00     0.073 C 
BRANCH  28  29
HETATM   29  C   UNK N   1      -4.044   6.464  -0.175  0.00  0.00    -0.056 A 
HETATM   30  C   UNK N   1      -5.176   5.807  -0.689  0.00  0.00     0.007 A 
HETATM   31  C   UNK N   1      -6.442   6.390  -0.586  0.00  0.00     0.001 A 
HETATM   32  C   UNK N   1      -6.588   7.636   0.026  0.00  0.00     0.000 A 
HETATM   33  C   UNK N   1      -5.467   8.302   0.528  0.00  0.00     0.001 A 
HETATM   34  C   UNK N   1      -4.201   7.716   0.429  0.00  0.00     0.007 A 
ENDBRANCH  28  29
ENDBRANCH   1  28
BRANCH   1  35
HETATM   35  N   UNK N   1      -1.154   3.930  -0.594  0.00  0.00    -0.346 N 
HETATM   36  C   UNK N   1      -0.709   2.911   0.195  0.00  0.00     0.241 C 
HETATM   37  O   UNK N   1      -1.471   2.332   0.961  0.00  0.00    -0.271 OA
HETATM   38  H   UNK N   1      -0.481   4.395  -1.142  0.00  0.00     0.163 HD
BRANCH  36  39
HETATM   39  C   UNK N   1       0.697   2.390   0.068  0.00  0.00     0.180 C 
BRANCH  39  40
HETATM   40  C   UNK N   1       1.699   3.211   0.882  0.00  0.00     0.009 C 
HETATM   41  C   UNK N   1       3.092   2.623   0.753  0.00  0.00     0.012 C 
HETATM   42  C   UNK N   1       1.750   4.639   0.363  0.00  0.00     0.012 C 
ENDBRANCH  39  40
BRANCH  39  43
HETATM   43  N   UNK N   1       0.629   1.001   0.467  0.00  0.00    -0.346 N 
HETATM   44  C   UNK N   1       0.973   0.003  -0.369  0.00  0.00     0.240 C 
HETATM   45  O   UNK N   1       1.714   0.224  -1.320  0.00  0.00    -0.271 OA
HETATM   46  H   UNK N   1       0.323   0.779   1.375  0.00  0.00     0.163 HD
BRANCH  44  47
HETATM   47  C   UNK N   1       0.136  -1.240  -0.350  0.00  0.00     0.169 C 
BRANCH  47  48
HETATM   48  C   UNK N   1       0.569  -2.315   0.644  0.00  0.00     0.038 C 
BRANCH  48  49
HETATM   49  C   UNK N   1       1.455  -3.367   0.002  0.00  0.00    -0.020 C 
HETATM   50  C   UNK N   1       2.601  -3.687   0.931  0.00  0.00     0.009 C 
HETATM   51  C   UNK N   1       0.641  -4.623  -0.251  0.00  0.00     0.009 C 
ENDBRANCH  48  49
ENDBRANCH  47  48
BRANCH  47  52
HETATM   52  N   UNK N   1      -0.090  -1.733  -1.705  0.00  0.00    -0.413 N 
HETATM   53  C   UNK N   1      -1.426  -2.286  -1.770  0.00  0.00     0.140 C 
HETATM   54  H   UNK N   1       0.579  -1.695  -2.474  0.00  0.00     0.153 HD
ENDBRANCH  47  52
ENDBRANCH  44  47
ENDBRANCH  39  43
ENDBRANCH  36  39
ENDBRANCH   1  35
TORSDOF 19
