REMARK  3 active torsions:
REMARK  status: ('A' for Active; 'I' for Inactive)
REMARK    1  A    between atoms: C_5  and  O_24 
REMARK    2  A    between atoms: C_9  and  O_23 
REMARK    3  A    between atoms: C_18  and  O_21 
ROOT
HETATM    1  C   UNK N   1       4.977  -0.157   1.473  0.00  0.00     0.020 C 
HETATM    2  C   UNK N   1       5.419   0.206   0.056  0.00  0.00    -0.017 C 
HETATM    3  C   UNK N   1       6.422  -0.854  -0.425  0.00  0.00     0.016 C 
HETATM    4  C   UNK N   1       7.821  -0.614   0.125  0.00  0.00     0.033 C 
HETATM    5  C   UNK N   1       8.328   0.681  -0.487  0.00  0.00     0.122 C 
HETATM    6  C   UNK N   1       7.504   1.865  -0.031  0.00  0.00     0.066 C 
HETATM    7  C   UNK N   1       6.033   1.612   0.059  0.00  0.00    -0.070 C 
HETATM    8  C   UNK N   1       5.260   2.699   0.107  0.00  0.00     0.008 C 
HETATM    9  C   UNK N   1       3.780   2.612   0.129  0.00  0.00     0.146 C 
HETATM   10  C   UNK N   1       3.216   1.386  -0.584  0.00  0.00     0.028 C 
HETATM   11  C   UNK N   1       4.215   0.252  -0.910  0.00  0.00     0.005 C 
HETATM   12  C   UNK N   1       3.487  -1.061  -1.176  0.00  0.00     0.007 C 
HETATM   13  C   UNK N   1       2.707  -1.425   0.066  0.00  0.00     0.014 C 
HETATM   14  C   UNK N   1       1.569  -0.439   0.389  0.00  0.00     0.003 C 
HETATM   15  C   UNK N   1       1.919   1.052   0.144  0.00  0.00     0.005 C 
HETATM   16  C   UNK N   1       0.849   1.578  -0.795  0.00  0.00     0.010 C 
HETATM   17  C   UNK N   1       0.439   0.349  -1.583  0.00  0.00     0.052 C 
HETATM   18  C   UNK N   1       0.308  -0.677  -0.487  0.00  0.00     0.128 C 
HETATM   19  C   UNK N   1      -0.964  -0.404   0.217  0.00  0.00    -0.078 C 
HETATM   20  C   UNK N   1      -1.991  -0.213   0.815  0.00  0.00     0.015 C 
HETATM   21  C   UNK N   1       1.307  -0.629   1.881  0.00  0.00     0.020 C 
ENDROOT
BRANCH  18  22
HETATM   22  O   UNK N   1       0.259  -1.974  -1.005  0.00  0.00    -0.377 OA
HETATM   23  H   UNK N   1      -0.537  -2.395  -1.365  0.00  0.00     0.211 HD
ENDBRANCH  18  22
BRANCH   9  24
HETATM   24  O   UNK N   1       3.228   3.769  -0.419  0.00  0.00    -0.391 OA
HETATM   25  H   UNK N   1       3.733   4.504  -0.800  0.00  0.00     0.210 HD
ENDBRANCH   9  24
BRANCH   5  26
HETATM   26  O   UNK N   1       9.651   0.907  -0.118  0.00  0.00    -0.395 OA
HETATM   27  H   UNK N   1      10.248   0.187   0.139  0.00  0.00     0.210 HD
ENDBRANCH   5  26
TORSDOF 3
