MODEL 1
REMARK VINA RESULT:      -3.0      0.000      0.000
REMARK  31 active torsions:
REMARK  status: ('A' for Active; 'I' for Inactive)
REMARK    1  A    between atoms: C_35  and  C_7 
REMARK    2  A    between atoms: C_36  and  C_8 
REMARK    3  A    between atoms: C_11  and  C_9 
REMARK    4  A    between atoms: C_13  and  C_9 
REMARK    5  A    between atoms: C_12  and  C_10 
REMARK    6  A    between atoms: C_14  and  C_10 
REMARK    7  A    between atoms: C_37  and  C_11 
REMARK    8  A    between atoms: C_38  and  C_12 
REMARK    9  A    between atoms: O_59  and  C_13 
REMARK   10  A    between atoms: O_60  and  C_14 
REMARK   11  A    between atoms: C_17  and  C_15 
REMARK   12  A    between atoms: O_61  and  C_15 
REMARK   13  A    between atoms: C_18  and  C_16 
REMARK   14  A    between atoms: O_62  and  C_16 
REMARK   15  A    between atoms: O_63  and  C_17 
REMARK   16  A    between atoms: O_64  and  C_18 
REMARK   17  A    between atoms: C_21  and  C_19 
REMARK   18  A    between atoms: O_63  and  C_19 
REMARK   19  A    between atoms: C_22  and  C_20 
REMARK   20  A    between atoms: O_64  and  C_20 
REMARK   21  A    between atoms: O_65  and  C_21 
REMARK   22  A    between atoms: O_66  and  C_22 
REMARK   23  A    between atoms: C_25  and  C_23 
REMARK   24  A    between atoms: O_65  and  C_23 
REMARK   25  A    between atoms: C_26  and  C_24 
REMARK   26  A    between atoms: O_66  and  C_24 
REMARK   27  A    between atoms: O_67  and  C_25 
REMARK   28  A    between atoms: O_68  and  C_26 
REMARK   29  A    between atoms: O_67  and  C_47 
REMARK   30  A    between atoms: O_68  and  C_48 
REMARK   31  A    between atoms: Lu_77  and  Lu_77 
ROOT
HETATM    1  C   UNK N   1      32.904  17.975   8.412  0.00  0.00     0.129 C 
HETATM    2  C   UNK N   1      34.219  18.311   7.801  0.00  0.00     0.168 C 
HETATM    3  O   UNK N   1      34.985  19.063   8.379  0.00  0.00    -0.648 OA
HETATM    4  O   UNK N   1      34.561  17.788   6.609  0.00  0.00    -0.648 OA
ENDROOT
TORSDOF 31
ENDMDL
MODEL 2
REMARK VINA RESULT:      -2.7     12.773     13.157
REMARK  31 active torsions:
REMARK  status: ('A' for Active; 'I' for Inactive)
REMARK    1  A    between atoms: C_35  and  C_7 
REMARK    2  A    between atoms: C_36  and  C_8 
REMARK    3  A    between atoms: C_11  and  C_9 
REMARK    4  A    between atoms: C_13  and  C_9 
REMARK    5  A    between atoms: C_12  and  C_10 
REMARK    6  A    between atoms: C_14  and  C_10 
REMARK    7  A    between atoms: C_37  and  C_11 
REMARK    8  A    between atoms: C_38  and  C_12 
REMARK    9  A    between atoms: O_59  and  C_13 
REMARK   10  A    between atoms: O_60  and  C_14 
REMARK   11  A    between atoms: C_17  and  C_15 
REMARK   12  A    between atoms: O_61  and  C_15 
REMARK   13  A    between atoms: C_18  and  C_16 
REMARK   14  A    between atoms: O_62  and  C_16 
REMARK   15  A    between atoms: O_63  and  C_17 
REMARK   16  A    between atoms: O_64  and  C_18 
REMARK   17  A    between atoms: C_21  and  C_19 
REMARK   18  A    between atoms: O_63  and  C_19 
REMARK   19  A    between atoms: C_22  and  C_20 
REMARK   20  A    between atoms: O_64  and  C_20 
REMARK   21  A    between atoms: O_65  and  C_21 
REMARK   22  A    between atoms: O_66  and  C_22 
REMARK   23  A    between atoms: C_25  and  C_23 
REMARK   24  A    between atoms: O_65  and  C_23 
REMARK   25  A    between atoms: C_26  and  C_24 
REMARK   26  A    between atoms: O_66  and  C_24 
REMARK   27  A    between atoms: O_67  and  C_25 
REMARK   28  A    between atoms: O_68  and  C_26 
REMARK   29  A    between atoms: O_67  and  C_47 
REMARK   30  A    between atoms: O_68  and  C_48 
REMARK   31  A    between atoms: Lu_77  and  Lu_77 
ROOT
HETATM    1  C   UNK N   1      22.344  12.047  11.516  0.00  0.00     0.129 C 
HETATM    2  C   UNK N   1      23.585  12.027  12.338  0.00  0.00     0.168 C 
HETATM    3  O   UNK N   1      23.511  12.077  13.554  0.00  0.00    -0.648 OA
HETATM    4  O   UNK N   1      24.788  11.959  11.739  0.00  0.00    -0.648 OA
ENDROOT
TORSDOF 31
ENDMDL
MODEL 3
REMARK VINA RESULT:      -2.7     14.034     14.421
REMARK  31 active torsions:
REMARK  status: ('A' for Active; 'I' for Inactive)
REMARK    1  A    between atoms: C_35  and  C_7 
REMARK    2  A    between atoms: C_36  and  C_8 
REMARK    3  A    between atoms: C_11  and  C_9 
REMARK    4  A    between atoms: C_13  and  C_9 
REMARK    5  A    between atoms: C_12  and  C_10 
REMARK    6  A    between atoms: C_14  and  C_10 
REMARK    7  A    between atoms: C_37  and  C_11 
REMARK    8  A    between atoms: C_38  and  C_12 
REMARK    9  A    between atoms: O_59  and  C_13 
REMARK   10  A    between atoms: O_60  and  C_14 
REMARK   11  A    between atoms: C_17  and  C_15 
REMARK   12  A    between atoms: O_61  and  C_15 
REMARK   13  A    between atoms: C_18  and  C_16 
REMARK   14  A    between atoms: O_62  and  C_16 
REMARK   15  A    between atoms: O_63  and  C_17 
REMARK   16  A    between atoms: O_64  and  C_18 
REMARK   17  A    between atoms: C_21  and  C_19 
REMARK   18  A    between atoms: O_63  and  C_19 
REMARK   19  A    between atoms: C_22  and  C_20 
REMARK   20  A    between atoms: O_64  and  C_20 
REMARK   21  A    between atoms: O_65  and  C_21 
REMARK   22  A    between atoms: O_66  and  C_22 
REMARK   23  A    between atoms: C_25  and  C_23 
REMARK   24  A    between atoms: O_65  and  C_23 
REMARK   25  A    between atoms: C_26  and  C_24 
REMARK   26  A    between atoms: O_66  and  C_24 
REMARK   27  A    between atoms: O_67  and  C_25 
REMARK   28  A    between atoms: O_68  and  C_26 
REMARK   29  A    between atoms: O_67  and  C_47 
REMARK   30  A    between atoms: O_68  and  C_48 
REMARK   31  A    between atoms: Lu_77  and  Lu_77 
ROOT
HETATM    1  C   UNK N   1      20.277  19.592   2.476  0.00  0.00     0.129 C 
HETATM    2  C   UNK N   1      21.254  20.555   1.898  0.00  0.00     0.168 C 
HETATM    3  O   UNK N   1      21.947  21.236   2.636  0.00  0.00    -0.648 OA
HETATM    4  O   UNK N   1      21.369  20.677   0.564  0.00  0.00    -0.648 OA
ENDROOT
TORSDOF 31
ENDMDL
MODEL 4
REMARK VINA RESULT:      -2.3     10.798     11.252
REMARK  31 active torsions:
REMARK  status: ('A' for Active; 'I' for Inactive)
REMARK    1  A    between atoms: C_35  and  C_7 
REMARK    2  A    between atoms: C_36  and  C_8 
REMARK    3  A    between atoms: C_11  and  C_9 
REMARK    4  A    between atoms: C_13  and  C_9 
REMARK    5  A    between atoms: C_12  and  C_10 
REMARK    6  A    between atoms: C_14  and  C_10 
REMARK    7  A    between atoms: C_37  and  C_11 
REMARK    8  A    between atoms: C_38  and  C_12 
REMARK    9  A    between atoms: O_59  and  C_13 
REMARK   10  A    between atoms: O_60  and  C_14 
REMARK   11  A    between atoms: C_17  and  C_15 
REMARK   12  A    between atoms: O_61  and  C_15 
REMARK   13  A    between atoms: C_18  and  C_16 
REMARK   14  A    between atoms: O_62  and  C_16 
REMARK   15  A    between atoms: O_63  and  C_17 
REMARK   16  A    between atoms: O_64  and  C_18 
REMARK   17  A    between atoms: C_21  and  C_19 
REMARK   18  A    between atoms: O_63  and  C_19 
REMARK   19  A    between atoms: C_22  and  C_20 
REMARK   20  A    between atoms: O_64  and  C_20 
REMARK   21  A    between atoms: O_65  and  C_21 
REMARK   22  A    between atoms: O_66  and  C_22 
REMARK   23  A    between atoms: C_25  and  C_23 
REMARK   24  A    between atoms: O_65  and  C_23 
REMARK   25  A    between atoms: C_26  and  C_24 
REMARK   26  A    between atoms: O_66  and  C_24 
REMARK   27  A    between atoms: O_67  and  C_25 
REMARK   28  A    between atoms: O_68  and  C_26 
REMARK   29  A    between atoms: O_67  and  C_47 
REMARK   30  A    between atoms: O_68  and  C_48 
REMARK   31  A    between atoms: Lu_77  and  Lu_77 
ROOT
HETATM    1  C   UNK N   1      42.865  21.875   3.118  0.00  0.00     0.129 C 
HETATM    2  C   UNK N   1      43.604  22.866   3.947  0.00  0.00     0.168 C 
HETATM    3  O   UNK N   1      43.926  23.940   3.468  0.00  0.00    -0.648 OA
HETATM    4  O   UNK N   1      43.919  22.575   5.222  0.00  0.00    -0.648 OA
ENDROOT
TORSDOF 31
ENDMDL
MODEL 5
REMARK VINA RESULT:      -2.3     18.215     18.657
REMARK  31 active torsions:
REMARK  status: ('A' for Active; 'I' for Inactive)
REMARK    1  A    between atoms: C_35  and  C_7 
REMARK    2  A    between atoms: C_36  and  C_8 
REMARK    3  A    between atoms: C_11  and  C_9 
REMARK    4  A    between atoms: C_13  and  C_9 
REMARK    5  A    between atoms: C_12  and  C_10 
REMARK    6  A    between atoms: C_14  and  C_10 
REMARK    7  A    between atoms: C_37  and  C_11 
REMARK    8  A    between atoms: C_38  and  C_12 
REMARK    9  A    between atoms: O_59  and  C_13 
REMARK   10  A    between atoms: O_60  and  C_14 
REMARK   11  A    between atoms: C_17  and  C_15 
REMARK   12  A    between atoms: O_61  and  C_15 
REMARK   13  A    between atoms: C_18  and  C_16 
REMARK   14  A    between atoms: O_62  and  C_16 
REMARK   15  A    between atoms: O_63  and  C_17 
REMARK   16  A    between atoms: O_64  and  C_18 
REMARK   17  A    between atoms: C_21  and  C_19 
REMARK   18  A    between atoms: O_63  and  C_19 
REMARK   19  A    between atoms: C_22  and  C_20 
REMARK   20  A    between atoms: O_64  and  C_20 
REMARK   21  A    between atoms: O_65  and  C_21 
REMARK   22  A    between atoms: O_66  and  C_22 
REMARK   23  A    between atoms: C_25  and  C_23 
REMARK   24  A    between atoms: O_65  and  C_23 
REMARK   25  A    between atoms: C_26  and  C_24 
REMARK   26  A    between atoms: O_66  and  C_24 
REMARK   27  A    between atoms: O_67  and  C_25 
REMARK   28  A    between atoms: O_68  and  C_26 
REMARK   29  A    between atoms: O_67  and  C_47 
REMARK   30  A    between atoms: O_68  and  C_48 
REMARK   31  A    between atoms: Lu_77  and  Lu_77 
ROOT
HETATM    1  C   UNK N   1      52.833  21.904  12.012  0.00  0.00     0.129 C 
HETATM    2  C   UNK N   1      51.611  22.736  12.185  0.00  0.00     0.168 C 
HETATM    3  O   UNK N   1      51.484  23.771  11.552  0.00  0.00    -0.648 OA
HETATM    4  O   UNK N   1      50.650  22.349  13.043  0.00  0.00    -0.648 OA
ENDROOT
TORSDOF 31
ENDMDL
MODEL 6
REMARK VINA RESULT:      -2.2     11.635     12.070
REMARK  31 active torsions:
REMARK  status: ('A' for Active; 'I' for Inactive)
REMARK    1  A    between atoms: C_35  and  C_7 
REMARK    2  A    between atoms: C_36  and  C_8 
REMARK    3  A    between atoms: C_11  and  C_9 
REMARK    4  A    between atoms: C_13  and  C_9 
REMARK    5  A    between atoms: C_12  and  C_10 
REMARK    6  A    between atoms: C_14  and  C_10 
REMARK    7  A    between atoms: C_37  and  C_11 
REMARK    8  A    between atoms: C_38  and  C_12 
REMARK    9  A    between atoms: O_59  and  C_13 
REMARK   10  A    between atoms: O_60  and  C_14 
REMARK   11  A    between atoms: C_17  and  C_15 
REMARK   12  A    between atoms: O_61  and  C_15 
REMARK   13  A    between atoms: C_18  and  C_16 
REMARK   14  A    between atoms: O_62  and  C_16 
REMARK   15  A    between atoms: O_63  and  C_17 
REMARK   16  A    between atoms: O_64  and  C_18 
REMARK   17  A    between atoms: C_21  and  C_19 
REMARK   18  A    between atoms: O_63  and  C_19 
REMARK   19  A    between atoms: C_22  and  C_20 
REMARK   20  A    between atoms: O_64  and  C_20 
REMARK   21  A    between atoms: O_65  and  C_21 
REMARK   22  A    between atoms: O_66  and  C_22 
REMARK   23  A    between atoms: C_25  and  C_23 
REMARK   24  A    between atoms: O_65  and  C_23 
REMARK   25  A    between atoms: C_26  and  C_24 
REMARK   26  A    between atoms: O_66  and  C_24 
REMARK   27  A    between atoms: O_67  and  C_25 
REMARK   28  A    between atoms: O_68  and  C_26 
REMARK   29  A    between atoms: O_67  and  C_47 
REMARK   30  A    between atoms: O_68  and  C_48 
REMARK   31  A    between atoms: Lu_77  and  Lu_77 
ROOT
HETATM    1  C   UNK N   1      35.215  12.323  17.763  0.00  0.00     0.129 C 
HETATM    2  C   UNK N   1      35.237  13.456  18.729  0.00  0.00     0.168 C 
HETATM    3  O   UNK N   1      34.881  13.280  19.882  0.00  0.00    -0.648 OA
HETATM    4  O   UNK N   1      35.646  14.674  18.329  0.00  0.00    -0.648 OA
ENDROOT
TORSDOF 31
ENDMDL
MODEL 7
REMARK VINA RESULT:      -2.2      1.270      2.021
REMARK  31 active torsions:
REMARK  status: ('A' for Active; 'I' for Inactive)
REMARK    1  A    between atoms: C_35  and  C_7 
REMARK    2  A    between atoms: C_36  and  C_8 
REMARK    3  A    between atoms: C_11  and  C_9 
REMARK    4  A    between atoms: C_13  and  C_9 
REMARK    5  A    between atoms: C_12  and  C_10 
REMARK    6  A    between atoms: C_14  and  C_10 
REMARK    7  A    between atoms: C_37  and  C_11 
REMARK    8  A    between atoms: C_38  and  C_12 
REMARK    9  A    between atoms: O_59  and  C_13 
REMARK   10  A    between atoms: O_60  and  C_14 
REMARK   11  A    between atoms: C_17  and  C_15 
REMARK   12  A    between atoms: O_61  and  C_15 
REMARK   13  A    between atoms: C_18  and  C_16 
REMARK   14  A    between atoms: O_62  and  C_16 
REMARK   15  A    between atoms: O_63  and  C_17 
REMARK   16  A    between atoms: O_64  and  C_18 
REMARK   17  A    between atoms: C_21  and  C_19 
REMARK   18  A    between atoms: O_63  and  C_19 
REMARK   19  A    between atoms: C_22  and  C_20 
REMARK   20  A    between atoms: O_64  and  C_20 
REMARK   21  A    between atoms: O_65  and  C_21 
REMARK   22  A    between atoms: O_66  and  C_22 
REMARK   23  A    between atoms: C_25  and  C_23 
REMARK   24  A    between atoms: O_65  and  C_23 
REMARK   25  A    between atoms: C_26  and  C_24 
REMARK   26  A    between atoms: O_66  and  C_24 
REMARK   27  A    between atoms: O_67  and  C_25 
REMARK   28  A    between atoms: O_68  and  C_26 
REMARK   29  A    between atoms: O_67  and  C_47 
REMARK   30  A    between atoms: O_68  and  C_48 
REMARK   31  A    between atoms: Lu_77  and  Lu_77 
ROOT
HETATM    1  C   UNK N   1      32.574  17.841   8.266  0.00  0.00     0.129 C 
HETATM    2  C   UNK N   1      33.270  17.728   6.955  0.00  0.00     0.168 C 
HETATM    3  O   UNK N   1      32.648  17.384   5.964  0.00  0.00    -0.648 OA
HETATM    4  O   UNK N   1      34.584  18.002   6.865  0.00  0.00    -0.648 OA
ENDROOT
TORSDOF 31
ENDMDL
MODEL 8
REMARK VINA RESULT:      -2.2     18.905     19.051
REMARK  31 active torsions:
REMARK  status: ('A' for Active; 'I' for Inactive)
REMARK    1  A    between atoms: C_35  and  C_7 
REMARK    2  A    between atoms: C_36  and  C_8 
REMARK    3  A    between atoms: C_11  and  C_9 
REMARK    4  A    between atoms: C_13  and  C_9 
REMARK    5  A    between atoms: C_12  and  C_10 
REMARK    6  A    between atoms: C_14  and  C_10 
REMARK    7  A    between atoms: C_37  and  C_11 
REMARK    8  A    between atoms: C_38  and  C_12 
REMARK    9  A    between atoms: O_59  and  C_13 
REMARK   10  A    between atoms: O_60  and  C_14 
REMARK   11  A    between atoms: C_17  and  C_15 
REMARK   12  A    between atoms: O_61  and  C_15 
REMARK   13  A    between atoms: C_18  and  C_16 
REMARK   14  A    between atoms: O_62  and  C_16 
REMARK   15  A    between atoms: O_63  and  C_17 
REMARK   16  A    between atoms: O_64  and  C_18 
REMARK   17  A    between atoms: C_21  and  C_19 
REMARK   18  A    between atoms: O_63  and  C_19 
REMARK   19  A    between atoms: C_22  and  C_20 
REMARK   20  A    between atoms: O_64  and  C_20 
REMARK   21  A    between atoms: O_65  and  C_21 
REMARK   22  A    between atoms: O_66  and  C_22 
REMARK   23  A    between atoms: C_25  and  C_23 
REMARK   24  A    between atoms: O_65  and  C_23 
REMARK   25  A    between atoms: C_26  and  C_24 
REMARK   26  A    between atoms: O_66  and  C_24 
REMARK   27  A    between atoms: O_67  and  C_25 
REMARK   28  A    between atoms: O_68  and  C_26 
REMARK   29  A    between atoms: O_67  and  C_47 
REMARK   30  A    between atoms: O_68  and  C_48 
REMARK   31  A    between atoms: Lu_77  and  Lu_77 
ROOT
HETATM    1  C   UNK N   1      49.225  17.048  19.938  0.00  0.00     0.129 C 
HETATM    2  C   UNK N   1      48.697  18.439  19.990  0.00  0.00     0.168 C 
HETATM    3  O   UNK N   1      47.740  18.701  20.700  0.00  0.00    -0.648 OA
HETATM    4  O   UNK N   1      49.273  19.405  19.252  0.00  0.00    -0.648 OA
ENDROOT
TORSDOF 31
ENDMDL
MODEL 9
REMARK VINA RESULT:      -2.2      2.442      2.836
REMARK  31 active torsions:
REMARK  status: ('A' for Active; 'I' for Inactive)
REMARK    1  A    between atoms: C_35  and  C_7 
REMARK    2  A    between atoms: C_36  and  C_8 
REMARK    3  A    between atoms: C_11  and  C_9 
REMARK    4  A    between atoms: C_13  and  C_9 
REMARK    5  A    between atoms: C_12  and  C_10 
REMARK    6  A    between atoms: C_14  and  C_10 
REMARK    7  A    between atoms: C_37  and  C_11 
REMARK    8  A    between atoms: C_38  and  C_12 
REMARK    9  A    between atoms: O_59  and  C_13 
REMARK   10  A    between atoms: O_60  and  C_14 
REMARK   11  A    between atoms: C_17  and  C_15 
REMARK   12  A    between atoms: O_61  and  C_15 
REMARK   13  A    between atoms: C_18  and  C_16 
REMARK   14  A    between atoms: O_62  and  C_16 
REMARK   15  A    between atoms: O_63  and  C_17 
REMARK   16  A    between atoms: O_64  and  C_18 
REMARK   17  A    between atoms: C_21  and  C_19 
REMARK   18  A    between atoms: O_63  and  C_19 
REMARK   19  A    between atoms: C_22  and  C_20 
REMARK   20  A    between atoms: O_64  and  C_20 
REMARK   21  A    between atoms: O_65  and  C_21 
REMARK   22  A    between atoms: O_66  and  C_22 
REMARK   23  A    between atoms: C_25  and  C_23 
REMARK   24  A    between atoms: O_65  and  C_23 
REMARK   25  A    between atoms: C_26  and  C_24 
REMARK   26  A    between atoms: O_66  and  C_24 
REMARK   27  A    between atoms: O_67  and  C_25 
REMARK   28  A    between atoms: O_68  and  C_26 
REMARK   29  A    between atoms: O_67  and  C_47 
REMARK   30  A    between atoms: O_68  and  C_48 
REMARK   31  A    between atoms: Lu_77  and  Lu_77 
ROOT
HETATM    1  C   UNK N   1      32.884  17.598   4.514  0.00  0.00     0.129 C 
HETATM    2  C   UNK N   1      33.244  17.478   5.954  0.00  0.00     0.168 C 
HETATM    3  O   UNK N   1      34.361  17.791   6.331  0.00  0.00    -0.648 OA
HETATM    4  O   UNK N   1      32.338  17.022   6.837  0.00  0.00    -0.648 OA
ENDROOT
TORSDOF 31
ENDMDL
