MODEL 1
REMARK VINA RESULT:      -7.9      0.000      0.000
REMARK  2 active torsions:
REMARK  status: ('A' for Active; 'I' for Inactive)
REMARK    1  A    between atoms: O_1  and  C_18 
REMARK    2  A    between atoms: C_9  and  C_21 
ROOT
HETATM    1  C   UNK N   1      31.153  22.172  -4.036  0.00  0.00    -0.030 C 
HETATM    2  C   UNK N   1      27.894  24.989  -4.870  0.00  0.00    -0.036 C 
HETATM    3  C   UNK N   1      28.650  23.735  -4.347  0.00  0.00    -0.002 C 
HETATM    4  C   UNK N   1      30.029  21.726  -4.965  0.00  0.00    -0.001 C 
HETATM    5  C   UNK N   1      29.273  22.938  -5.534  0.00  0.00    -0.005 C 
HETATM    6  C   UNK N   1      26.826  24.544  -5.910  0.00  0.00    -0.003 C 
HETATM    7  C   UNK N   1      31.811  20.827  -3.743  0.00  0.00     0.063 C 
HETATM    8  C   UNK N   1      30.541  22.886  -2.828  0.00  0.00     0.011 C 
HETATM    9  C   UNK N   1      29.732  24.109  -3.301  0.00  0.00     0.006 C 
HETATM   10  C   UNK N   1      28.173  22.507  -6.506  0.00  0.00     0.006 C 
HETATM   11  C   UNK N   1      30.737  20.814  -5.954  0.00  0.00     0.006 C 
HETATM   12  C   UNK N   1      27.199  25.709  -3.692  0.00  0.00     0.013 C 
HETATM   13  C   UNK N   1      27.443  23.734  -7.053  0.00  0.00     0.006 C 
HETATM   14  C   UNK N   1      31.792  20.095  -5.097  0.00  0.00     0.013 C 
HETATM   15  C   UNK N   1      26.058  25.741  -6.494  0.00  0.00     0.043 C 
HETATM   16  C   UNK N   1      25.766  26.861  -5.482  0.00  0.00     0.054 C 
HETATM   17  C   UNK N   1      32.158  23.110  -4.737  0.00  0.00     0.016 C 
HETATM   18  C   UNK N   1      28.891  25.965  -5.509  0.00  0.00     0.016 C 
HETATM   19  C   UNK N   1      25.847  26.364  -4.037  0.00  0.00     0.038 C 
HETATM   20  C   UNK N   1      24.373  27.393  -5.743  0.00  0.00     0.045 C 
ENDROOT
BRANCH   7  21
HETATM   21  C   UNK N   1      33.174  20.913  -3.089  0.00  0.00     0.128 C 
HETATM   22  O   UNK N   1      33.266  21.277  -1.930  0.00  0.00    -0.298 OA
HETATM   23  C   UNK N   1      34.417  20.568  -3.845  0.00  0.00     0.091 C 
ENDBRANCH   7  21
BRANCH  16  24
HETATM   24  O   UNK N   1      26.677  27.902  -5.666  0.00  0.00    -0.390 OA
HETATM   25  H   UNK N   1      27.581  28.174  -5.447  0.00  0.00     0.210 HD
ENDBRANCH  16  24
TORSDOF 2
ENDMDL
MODEL 2
REMARK VINA RESULT:      -7.4      1.090      7.050
REMARK  2 active torsions:
REMARK  status: ('A' for Active; 'I' for Inactive)
REMARK    1  A    between atoms: O_1  and  C_18 
REMARK    2  A    between atoms: C_9  and  C_21 
ROOT
HETATM    1  C   UNK N   1      27.379  25.399  -5.481  0.00  0.00    -0.030 C 
HETATM    2  C   UNK N   1      30.736  22.749  -4.502  0.00  0.00    -0.036 C 
HETATM    3  C   UNK N   1      29.879  23.820  -5.234  0.00  0.00    -0.002 C 
HETATM    4  C   UNK N   1      27.737  24.288  -6.463  0.00  0.00    -0.001 C 
HETATM    5  C   UNK N   1      28.559  23.187  -5.772  0.00  0.00    -0.005 C 
HETATM    6  C   UNK N   1      31.001  21.559  -5.468  0.00  0.00    -0.003 C 
HETATM    7  C   UNK N   1      26.469  26.252  -6.360  0.00  0.00     0.063 C 
HETATM    8  C   UNK N   1      28.668  26.076  -5.010  0.00  0.00     0.011 C 
HETATM    9  C   UNK N   1      29.580  25.039  -4.325  0.00  0.00     0.006 C 
HETATM   10  C   UNK N   1      28.884  22.043  -6.734  0.00  0.00     0.006 C 
HETATM   11  C   UNK N   1      26.390  23.895  -7.048  0.00  0.00     0.006 C 
HETATM   12  C   UNK N   1      32.084  23.368  -4.065  0.00  0.00     0.013 C 
HETATM   13  C   UNK N   1      29.700  20.968  -6.016  0.00  0.00     0.006 C 
HETATM   14  C   UNK N   1      25.628  25.227  -7.141  0.00  0.00     0.013 C 
HETATM   15  C   UNK N   1      31.821  20.445  -4.797  0.00  0.00     0.043 C 
HETATM   16  C   UNK N   1      32.912  20.951  -3.839  0.00  0.00     0.054 C 
HETATM   17  C   UNK N   1      26.594  24.874  -4.261  0.00  0.00     0.016 C 
HETATM   18  C   UNK N   1      30.000  22.268  -3.245  0.00  0.00     0.016 C 
HETATM   19  C   UNK N   1      33.288  22.408  -4.115  0.00  0.00     0.038 C 
HETATM   20  C   UNK N   1      34.141  20.083  -4.010  0.00  0.00     0.045 C 
ENDROOT
BRANCH   7  21
HETATM   21  C   UNK N   1      25.663  27.296  -5.616  0.00  0.00     0.128 C 
HETATM   22  O   UNK N   1      24.448  27.213  -5.587  0.00  0.00    -0.298 OA
HETATM   23  C   UNK N   1      26.331  28.440  -4.922  0.00  0.00     0.091 C 
ENDBRANCH   7  21
BRANCH  16  24
HETATM   24  O   UNK N   1      32.467  20.828  -2.522  0.00  0.00    -0.390 OA
HETATM   25  H   UNK N   1      32.742  20.983  -1.605  0.00  0.00     0.210 HD
ENDBRANCH  16  24
TORSDOF 2
ENDMDL
MODEL 3
REMARK VINA RESULT:      -7.3     22.521     26.388
REMARK  2 active torsions:
REMARK  status: ('A' for Active; 'I' for Inactive)
REMARK    1  A    between atoms: O_1  and  C_18 
REMARK    2  A    between atoms: C_9  and  C_21 
ROOT
HETATM    1  C   UNK N   1      35.935  11.773  14.392  0.00  0.00    -0.030 C 
HETATM    2  C   UNK N   1      35.077  10.002  18.313  0.00  0.00    -0.036 C 
HETATM    3  C   UNK N   1      34.863  10.716  16.948  0.00  0.00    -0.002 C 
HETATM    4  C   UNK N   1      35.464  12.691  15.515  0.00  0.00    -0.001 C 
HETATM    5  C   UNK N   1      35.688  12.038  16.889  0.00  0.00    -0.005 C 
HETATM    6  C   UNK N   1      34.710  10.982  19.464  0.00  0.00    -0.003 C 
HETATM    7  C   UNK N   1      35.744  12.696  13.191  0.00  0.00     0.063 C 
HETATM    8  C   UNK N   1      35.075  10.507  14.396  0.00  0.00     0.011 C 
HETATM    9  C   UNK N   1      35.210   9.791  15.754  0.00  0.00     0.006 C 
HETATM   10  C   UNK N   1      35.264  12.968  18.027  0.00  0.00     0.006 C 
HETATM   11  C   UNK N   1      36.196  13.992  15.229  0.00  0.00     0.006 C 
HETATM   12  C   UNK N   1      34.175   8.750  18.394  0.00  0.00     0.013 C 
HETATM   13  C   UNK N   1      35.500  12.290  19.376  0.00  0.00     0.006 C 
HETATM   14  C   UNK N   1      36.217  14.072  13.694  0.00  0.00     0.013 C 
HETATM   15  C   UNK N   1      34.928  10.350  20.849  0.00  0.00     0.043 C 
HETATM   16  C   UNK N   1      34.567   8.858  20.927  0.00  0.00     0.054 C 
HETATM   17  C   UNK N   1      37.423  11.389  14.531  0.00  0.00     0.016 C 
HETATM   18  C   UNK N   1      36.538   9.550  18.438  0.00  0.00     0.016 C 
HETATM   19  C   UNK N   1      33.625   8.434  19.799  0.00  0.00     0.038 C 
HETATM   20  C   UNK N   1      33.891   8.596  22.257  0.00  0.00     0.045 C 
ENDROOT
BRANCH   7  21
HETATM   21  C   UNK N   1      36.409  12.226  11.915  0.00  0.00     0.128 C 
HETATM   22  O   UNK N   1      35.990  11.235  11.344  0.00  0.00    -0.298 OA
HETATM   23  C   UNK N   1      37.585  12.953  11.343  0.00  0.00     0.091 C 
ENDBRANCH   7  21
BRANCH  16  24
HETATM   24  O   UNK N   1      35.733   8.094  20.869  0.00  0.00    -0.390 OA
HETATM   25  H   UNK N   1      36.699   8.170  20.911  0.00  0.00     0.210 HD
ENDBRANCH  16  24
TORSDOF 2
ENDMDL
MODEL 4
REMARK VINA RESULT:      -7.2     13.366     17.750
REMARK  2 active torsions:
REMARK  status: ('A' for Active; 'I' for Inactive)
REMARK    1  A    between atoms: O_1  and  C_18 
REMARK    2  A    between atoms: C_9  and  C_21 
ROOT
HETATM    1  C   UNK N   1      33.788  15.155   5.909  0.00  0.00    -0.030 C 
HETATM    2  C   UNK N   1      35.213  14.363   9.982  0.00  0.00    -0.036 C 
HETATM    3  C   UNK N   1      34.248  14.631   8.792  0.00  0.00    -0.002 C 
HETATM    4  C   UNK N   1      33.582  16.230   6.972  0.00  0.00    -0.001 C 
HETATM    5  C   UNK N   1      34.541  16.023   8.155  0.00  0.00    -0.005 C 
HETATM    6  C   UNK N   1      35.090  15.523  11.011  0.00  0.00    -0.003 C 
HETATM    7  C   UNK N   1      32.850  15.669   4.821  0.00  0.00     0.063 C 
HETATM    8  C   UNK N   1      33.425  13.794   6.507  0.00  0.00     0.011 C 
HETATM    9  C   UNK N   1      34.320  13.506   7.728  0.00  0.00     0.006 C 
HETATM   10  C   UNK N   1      34.379  17.122   9.207  0.00  0.00     0.006 C 
HETATM   11  C   UNK N   1      33.707  17.524   6.185  0.00  0.00     0.006 C 
HETATM   12  C   UNK N   1      34.842  13.026  10.665  0.00  0.00     0.013 C 
HETATM   13  C   UNK N   1      35.346  16.888  10.367  0.00  0.00     0.006 C 
HETATM   14  C   UNK N   1      33.059  17.194   4.830  0.00  0.00     0.013 C 
HETATM   15  C   UNK N   1      36.042  15.338  12.204  0.00  0.00     0.043 C 
HETATM   16  C   UNK N   1      36.205  13.880  12.663  0.00  0.00     0.054 C 
HETATM   17  C   UNK N   1      35.238  15.120   5.383  0.00  0.00     0.016 C 
HETATM   18  C   UNK N   1      36.654  14.254   9.465  0.00  0.00     0.016 C 
HETATM   19  C   UNK N   1      35.050  12.996  12.192  0.00  0.00     0.038 C 
HETATM   20  C   UNK N   1      36.259  13.856  14.176  0.00  0.00     0.045 C 
ENDROOT
BRANCH   7  21
HETATM   21  C   UNK N   1      33.027  15.015   3.467  0.00  0.00     0.128 C 
HETATM   22  O   UNK N   1      33.496  15.655   2.543  0.00  0.00    -0.298 OA
HETATM   23  C   UNK N   1      32.624  13.593   3.236  0.00  0.00     0.091 C 
ENDBRANCH   7  21
BRANCH  16  24
HETATM   24  O   UNK N   1      37.409  13.370  12.173  0.00  0.00    -0.390 OA
HETATM   25  H   UNK N   1      38.117  13.561  11.539  0.00  0.00     0.210 HD
ENDBRANCH  16  24
TORSDOF 2
ENDMDL
MODEL 5
REMARK VINA RESULT:      -7.2      1.396      7.367
REMARK  2 active torsions:
REMARK  status: ('A' for Active; 'I' for Inactive)
REMARK    1  A    between atoms: O_1  and  C_18 
REMARK    2  A    between atoms: C_9  and  C_21 
ROOT
HETATM    1  C   UNK N   1      27.580  24.205  -5.615  0.00  0.00    -0.030 C 
HETATM    2  C   UNK N   1      31.227  21.817  -5.127  0.00  0.00    -0.036 C 
HETATM    3  C   UNK N   1      29.721  22.200  -5.175  0.00  0.00    -0.002 C 
HETATM    4  C   UNK N   1      27.915  23.668  -4.227  0.00  0.00    -0.001 C 
HETATM    5  C   UNK N   1      29.406  23.307  -4.124  0.00  0.00    -0.005 C 
HETATM    6  C   UNK N   1      31.598  21.382  -3.680  0.00  0.00    -0.003 C 
HETATM    7  C   UNK N   1      26.125  24.613  -5.402  0.00  0.00     0.063 C 
HETATM    8  C   UNK N   1      27.812  23.096  -6.643  0.00  0.00     0.011 C 
HETATM    9  C   UNK N   1      29.284  22.641  -6.595  0.00  0.00     0.006 C 
HETATM   10  C   UNK N   1      29.766  22.812  -2.722  0.00  0.00     0.006 C 
HETATM   11  C   UNK N   1      27.390  24.752  -3.300  0.00  0.00     0.006 C 
HETATM   12  C   UNK N   1      31.501  20.648  -6.102  0.00  0.00     0.013 C 
HETATM   13  C   UNK N   1      31.253  22.463  -2.653  0.00  0.00     0.006 C 
HETATM   14  C   UNK N   1      26.111  25.243  -3.998  0.00  0.00     0.013 C 
HETATM   15  C   UNK N   1      33.086  21.017  -3.552  0.00  0.00     0.043 C 
HETATM   16  C   UNK N   1      33.667  20.289  -4.776  0.00  0.00     0.054 C 
HETATM   17  C   UNK N   1      28.426  25.441  -5.987  0.00  0.00     0.016 C 
HETATM   18  C   UNK N   1      32.081  23.015  -5.564  0.00  0.00     0.016 C 
HETATM   19  C   UNK N   1      32.575  19.648  -5.634  0.00  0.00     0.038 C 
HETATM   20  C   UNK N   1      34.610  19.209  -4.289  0.00  0.00     0.045 C 
ENDROOT
BRANCH   7  21
HETATM   21  C   UNK N   1      25.542  25.486  -6.493  0.00  0.00     0.128 C 
HETATM   22  O   UNK N   1      25.374  25.027  -7.609  0.00  0.00    -0.298 OA
HETATM   23  C   UNK N   1      25.176  26.912  -6.230  0.00  0.00     0.091 C 
ENDBRANCH   7  21
BRANCH  16  24
HETATM   24  O   UNK N   1      34.395  21.193  -5.551  0.00  0.00    -0.390 OA
HETATM   25  H   UNK N   1      35.176  21.252  -6.124  0.00  0.00     0.210 HD
ENDBRANCH  16  24
TORSDOF 2
ENDMDL
MODEL 6
REMARK VINA RESULT:      -7.2     20.331     24.422
REMARK  2 active torsions:
REMARK  status: ('A' for Active; 'I' for Inactive)
REMARK    1  A    between atoms: O_1  and  C_18 
REMARK    2  A    between atoms: C_9  and  C_21 
ROOT
HETATM    1  C   UNK N   1      36.289  13.204  12.449  0.00  0.00    -0.030 C 
HETATM    2  C   UNK N   1      35.735  11.092  16.253  0.00  0.00    -0.036 C 
HETATM    3  C   UNK N   1      36.332  12.043  15.178  0.00  0.00    -0.002 C 
HETATM    4  C   UNK N   1      37.362  12.215  12.892  0.00  0.00    -0.001 C 
HETATM    5  C   UNK N   1      36.805  11.231  13.933  0.00  0.00    -0.005 C 
HETATM    6  C   UNK N   1      36.789  10.008  16.619  0.00  0.00    -0.003 C 
HETATM    7  C   UNK N   1      37.040  13.940  11.343  0.00  0.00     0.063 C 
HETATM    8  C   UNK N   1      35.878  14.058  13.650  0.00  0.00     0.011 C 
HETATM    9  C   UNK N   1      35.329  13.152  14.769  0.00  0.00     0.006 C 
HETATM   10  C   UNK N   1      37.857  10.202  14.351  0.00  0.00     0.006 C 
HETATM   11  C   UNK N   1      37.864  11.637  11.579  0.00  0.00     0.006 C 
HETATM   12  C   UNK N   1      35.366  11.900  17.519  0.00  0.00     0.013 C 
HETATM   13  C   UNK N   1      37.271   9.241  15.386  0.00  0.00     0.006 C 
HETATM   14  C   UNK N   1      37.816  12.830  10.611  0.00  0.00     0.013 C 
HETATM   15  C   UNK N   1      36.254   9.011  17.659  0.00  0.00     0.043 C 
HETATM   16  C   UNK N   1      35.353   9.641  18.735  0.00  0.00     0.054 C 
HETATM   17  C   UNK N   1      35.046  12.501  11.864  0.00  0.00     0.016 C 
HETATM   18  C   UNK N   1      34.457  10.437  15.713  0.00  0.00     0.016 C 
HETATM   19  C   UNK N   1      35.568  11.151  18.851  0.00  0.00     0.038 C 
HETATM   20  C   UNK N   1      35.672   8.994  20.066  0.00  0.00     0.045 C 
ENDROOT
BRANCH   7  21
HETATM   21  C   UNK N   1      36.175  14.802  10.449  0.00  0.00     0.128 C 
HETATM   22  O   UNK N   1      35.915  14.430   9.318  0.00  0.00    -0.298 OA
HETATM   23  C   UNK N   1      35.637  16.114  10.925  0.00  0.00     0.091 C 
ENDBRANCH   7  21
BRANCH  16  24
HETATM   24  O   UNK N   1      34.016   9.385  18.430  0.00  0.00    -0.390 OA
HETATM   25  H   UNK N   1      33.361   9.485  17.721  0.00  0.00     0.210 HD
ENDBRANCH  16  24
TORSDOF 2
ENDMDL
MODEL 7
REMARK VINA RESULT:      -7.0     19.827     23.728
REMARK  2 active torsions:
REMARK  status: ('A' for Active; 'I' for Inactive)
REMARK    1  A    between atoms: O_1  and  C_18 
REMARK    2  A    between atoms: C_9  and  C_21 
ROOT
HETATM    1  C   UNK N   1      35.862  10.740  16.136  0.00  0.00    -0.030 C 
HETATM    2  C   UNK N   1      36.751  12.016  12.034  0.00  0.00    -0.036 C 
HETATM    3  C   UNK N   1      36.933  11.723  13.551  0.00  0.00    -0.002 C 
HETATM    4  C   UNK N   1      36.126  12.220  15.879  0.00  0.00    -0.001 C 
HETATM    5  C   UNK N   1      35.924  12.562  14.393  0.00  0.00    -0.005 C 
HETATM    6  C   UNK N   1      36.901  13.544  11.788  0.00  0.00    -0.003 C 
HETATM    7  C   UNK N   1      35.980  10.706  17.658  0.00  0.00     0.063 C 
HETATM    8  C   UNK N   1      36.899   9.913  15.374  0.00  0.00     0.011 C 
HETATM    9  C   UNK N   1      36.797  10.211  13.866  0.00  0.00     0.006 C 
HETATM   10  C   UNK N   1      36.139  14.054  14.128  0.00  0.00     0.006 C 
HETATM   11  C   UNK N   1      35.225  12.913  16.887  0.00  0.00     0.006 C 
HETATM   12  C   UNK N   1      37.824  11.254  11.223  0.00  0.00     0.013 C 
HETATM   13  C   UNK N   1      35.931  14.360  12.645  0.00  0.00     0.006 C 
HETATM   14  C   UNK N   1      35.280  11.997  18.120  0.00  0.00     0.013 C 
HETATM   15  C   UNK N   1      36.703  13.911  10.308  0.00  0.00     0.043 C 
HETATM   16  C   UNK N   1      37.278  12.884   9.319  0.00  0.00     0.054 C 
HETATM   17  C   UNK N   1      34.443  10.312  15.708  0.00  0.00     0.016 C 
HETATM   18  C   UNK N   1      35.369  11.531  11.576  0.00  0.00     0.016 C 
HETATM   19  C   UNK N   1      38.334  11.990   9.969  0.00  0.00     0.038 C 
HETATM   20  C   UNK N   1      37.908  13.632   8.163  0.00  0.00     0.045 C 
ENDROOT
BRANCH   7  21
HETATM   21  C   UNK N   1      35.466   9.439  18.309  0.00  0.00     0.128 C 
HETATM   22  O   UNK N   1      36.084   8.398  18.175  0.00  0.00    -0.298 OA
HETATM   23  C   UNK N   1      34.203   9.439  19.109  0.00  0.00     0.091 C 
ENDBRANCH   7  21
BRANCH  16  24
HETATM   24  O   UNK N   1      36.243  12.092   8.819  0.00  0.00    -0.390 OA
HETATM   25  H   UNK N   1      36.042  11.185   8.541  0.00  0.00     0.210 HD
ENDBRANCH  16  24
TORSDOF 2
ENDMDL
MODEL 8
REMARK VINA RESULT:      -6.9      1.638      2.690
REMARK  2 active torsions:
REMARK  status: ('A' for Active; 'I' for Inactive)
REMARK    1  A    between atoms: O_1  and  C_18 
REMARK    2  A    between atoms: C_9  and  C_21 
ROOT
HETATM    1  C   UNK N   1      31.977  22.089  -5.132  0.00  0.00    -0.030 C 
HETATM    2  C   UNK N   1      28.295  24.435  -5.560  0.00  0.00    -0.036 C 
HETATM    3  C   UNK N   1      29.778  24.076  -5.262  0.00  0.00    -0.002 C 
HETATM    4  C   UNK N   1      31.345  22.683  -3.877  0.00  0.00    -0.001 C 
HETATM    5  C   UNK N   1      29.865  23.023  -4.115  0.00  0.00    -0.005 C 
HETATM    6  C   UNK N   1      27.616  24.929  -4.250  0.00  0.00    -0.003 C 
HETATM    7  C   UNK N   1      33.354  21.716  -4.590  0.00  0.00     0.063 C 
HETATM    8  C   UNK N   1      31.966  23.146  -6.238  0.00  0.00     0.011 C 
HETATM    9  C   UNK N   1      30.516  23.577  -6.531  0.00  0.00     0.006 C 
HETATM   10  C   UNK N   1      29.206  23.575  -2.850  0.00  0.00     0.006 C 
HETATM   11  C   UNK N   1      31.664  21.651  -2.807  0.00  0.00     0.006 C 
HETATM   12  C   UNK N   1      28.232  25.553  -6.626  0.00  0.00     0.013 C 
HETATM   13  C   UNK N   1      27.737  23.902  -3.121  0.00  0.00     0.006 C 
HETATM   14  C   UNK N   1      33.067  21.150  -3.187  0.00  0.00     0.013 C 
HETATM   15  C   UNK N   1      26.134  25.274  -4.464  0.00  0.00     0.043 C 
HETATM   16  C   UNK N   1      25.827  25.935  -5.818  0.00  0.00     0.054 C 
HETATM   17  C   UNK N   1      31.240  20.823  -5.618  0.00  0.00     0.016 C 
HETATM   18  C   UNK N   1      27.564  23.204  -6.112  0.00  0.00     0.016 C 
HETATM   19  C   UNK N   1      27.074  26.555  -6.450  0.00  0.00     0.038 C 
HETATM   20  C   UNK N   1      24.794  27.021  -5.599  0.00  0.00     0.045 C 
ENDROOT
BRANCH   7  21
HETATM   21  C   UNK N   1      34.165  20.803  -5.486  0.00  0.00     0.128 C 
HETATM   22  O   UNK N   1      34.327  19.637  -5.173  0.00  0.00    -0.298 OA
HETATM   23  C   UNK N   1      34.784  21.311  -6.750  0.00  0.00     0.091 C 
ENDBRANCH   7  21
BRANCH  16  24
HETATM   24  O   UNK N   1      25.290  24.986  -6.688  0.00  0.00    -0.390 OA
HETATM   25  H   UNK N   1      24.908  24.095  -6.704  0.00  0.00     0.210 HD
ENDBRANCH  16  24
TORSDOF 2
ENDMDL
MODEL 9
REMARK VINA RESULT:      -6.9     11.595     13.408
REMARK  2 active torsions:
REMARK  status: ('A' for Active; 'I' for Inactive)
REMARK    1  A    between atoms: O_1  and  C_18 
REMARK    2  A    between atoms: C_9  and  C_21 
ROOT
HETATM    1  C   UNK N   1      31.552  16.877   6.539  0.00  0.00    -0.030 C 
HETATM    2  C   UNK N   1      28.192  15.350   4.167  0.00  0.00    -0.036 C 
HETATM    3  C   UNK N   1      29.209  16.342   4.801  0.00  0.00    -0.002 C 
HETATM    4  C   UNK N   1      30.138  17.291   6.934  0.00  0.00    -0.001 C 
HETATM    5  C   UNK N   1      29.099  16.317   6.356  0.00  0.00    -0.005 C 
HETATM    6  C   UNK N   1      26.760  15.699   4.666  0.00  0.00    -0.003 C 
HETATM    7  C   UNK N   1      32.364  17.890   7.342  0.00  0.00     0.063 C 
HETATM    8  C   UNK N   1      31.689  16.976   5.018  0.00  0.00     0.011 C 
HETATM    9  C   UNK N   1      30.660  16.050   4.341  0.00  0.00     0.006 C 
HETATM   10  C   UNK N   1      27.679  16.693   6.784  0.00  0.00     0.006 C 
HETATM   11  C   UNK N   1      30.222  17.411   8.447  0.00  0.00     0.006 C 
HETATM   12  C   UNK N   1      28.243  15.463   2.626  0.00  0.00     0.013 C 
HETATM   13  C   UNK N   1      26.672  15.705   6.194  0.00  0.00     0.006 C 
HETATM   14  C   UNK N   1      31.630  17.976   8.693  0.00  0.00     0.013 C 
HETATM   15  C   UNK N   1      25.703  14.736   4.101  0.00  0.00     0.043 C 
HETATM   16  C   UNK N   1      25.956  14.300   2.649  0.00  0.00     0.054 C 
HETATM   17  C   UNK N   1      31.894  15.444   6.997  0.00  0.00     0.016 C 
HETATM   18  C   UNK N   1      28.560  13.912   4.556  0.00  0.00     0.016 C 
HETATM   19  C   UNK N   1      26.891  15.262   1.914  0.00  0.00     0.038 C 
HETATM   20  C   UNK N   1      24.628  14.252   1.923  0.00  0.00     0.045 C 
ENDROOT
BRANCH   7  21
HETATM   21  C   UNK N   1      33.843  17.583   7.444  0.00  0.00     0.128 C 
HETATM   22  O   UNK N   1      34.544  17.652   6.450  0.00  0.00    -0.298 OA
HETATM   23  C   UNK N   1      34.463  17.185   8.746  0.00  0.00     0.091 C 
ENDBRANCH   7  21
BRANCH  16  24
HETATM   24  O   UNK N   1      26.510  13.018   2.639  0.00  0.00    -0.390 OA
HETATM   25  H   UNK N   1      26.278  12.085   2.765  0.00  0.00     0.210 HD
ENDBRANCH  16  24
TORSDOF 2
ENDMDL
