MODEL 1
REMARK VINA RESULT:      -7.3      0.000      0.000
REMARK  9 active torsions:
REMARK  status: ('A' for Active; 'I' for Inactive)
REMARK    1  A    between atoms: O_32  and  C_5 
REMARK    2  A    between atoms: C_17  and  C_12 
REMARK    3  A    between atoms: S_33  and  C_12 
REMARK    4  A    between atoms: O_26  and  C_13 
REMARK    5  A    between atoms: C_17  and  C_14 
REMARK    6  A    between atoms: N_23  and  C_16 
REMARK    7  A    between atoms: C_17  and  N_25 
REMARK    8  A    between atoms: O_31  and  C_18 
REMARK    9  A    between atoms: O_32  and  C_19 
ROOT
HETATM    1  C   UNK N   1      21.367  20.104   2.160  0.00  0.00     0.003 A 
HETATM    2  C   UNK N   1      21.654  19.856   3.509  0.00  0.00     0.018 A 
HETATM    3  C   UNK N   1      20.569  19.202   1.426  0.00  0.00     0.030 A 
HETATM    4  C   UNK N   1      21.108  18.718   4.091  0.00  0.00     0.050 A 
HETATM    5  C   UNK N   1      20.027  18.046   2.037  0.00  0.00     0.050 A 
HETATM    6  C   UNK N   1      20.305  17.843   3.395  0.00  0.00     0.075 A 
HETATM    7  C   UNK N   1      21.252  18.178   5.430  0.00  0.00     0.262 A 
HETATM    8  C   UNK N   1      19.935  16.784   4.351  0.00  0.00     0.264 A 
HETATM    9  N   UNK N   1      20.527  17.032   5.556  0.00  0.00    -0.270 N 
HETATM   10  O   UNK N   1      21.943  18.661   6.315  0.00  0.00    -0.267 OA
HETATM   11  O   UNK N   1      19.224  15.821   4.110  0.00  0.00    -0.267 OA
ENDROOT
BRANCH   9  12
HETATM   12  C   UNK N   1      20.492  16.228   6.792  0.00  0.00     0.143 C 
BRANCH  12  13
HETATM   13  C   UNK N   1      20.124  17.025   8.065  0.00  0.00     0.170 C 
BRANCH  13  14
HETATM   14  S   UNK N   1      18.510  16.774   8.893  0.00  0.00     0.143 S 
HETATM   15  C   UNK N   1      17.754  17.945  10.055  0.00  0.00     0.161 C 
HETATM   16  O   UNK N   1      18.422  15.378   9.525  0.00  0.00    -0.228 OA
HETATM   17  O   UNK N   1      17.484  16.591   7.764  0.00  0.00    -0.228 OA
ENDBRANCH  13  14
ENDBRANCH  12  13
BRANCH  12  18
HETATM   18  C   UNK N   1      21.687  15.283   6.898  0.00  0.00    -0.031 A 
HETATM   19  C   UNK N   1      22.592  15.167   5.833  0.00  0.00     0.012 A 
HETATM   20  C   UNK N   1      23.545  14.156   5.810  0.00  0.00     0.040 A 
HETATM   21  C   UNK N   1      23.629  13.231   6.848  0.00  0.00     0.101 A 
HETATM   22  C   UNK N   1      22.777  13.375   7.974  0.00  0.00     0.102 A 
HETATM   23  C   UNK N   1      21.806  14.401   7.984  0.00  0.00     0.049 A 
BRANCH  21  24
HETATM   24  O   UNK N   1      24.538  12.228   6.720  0.00  0.00    -0.353 OA
HETATM   25  C   UNK N   1      24.378  11.103   5.942  0.00  0.00     0.210 C 
ENDBRANCH  21  24
BRANCH  22  26
HETATM   26  O   UNK N   1      22.900  12.522   9.017  0.00  0.00    -0.349 OA
BRANCH  26  27
HETATM   27  C   UNK N   1      23.454  12.856  10.228  0.00  0.00     0.171 C 
HETATM   28  C   UNK N   1      22.861  11.948  11.288  0.00  0.00     0.034 C 
ENDBRANCH  26  27
ENDBRANCH  22  26
ENDBRANCH  12  18
ENDBRANCH   9  12
BRANCH   5  29
HETATM   29  N   UNK N   1      19.252  17.088   1.316  0.00  0.00    -0.340 N 
HETATM   30  C   UNK N   1      19.719  16.059   0.685  0.00  0.00     0.111 C 
HETATM   31  C   UNK N   1      18.775  15.146  -0.013  0.00  0.00     0.097 C 
ATOM     32  HN  UNK N   1      18.242  17.227   1.296  1.00  0.00     0.167 HD
BRANCH  30  33
HETATM   33  O   UNK N   1      21.037  15.772   0.668  0.00  0.00    -0.350 OA
HETATM   34  H   UNK N   1      21.672  16.458   0.723  0.00  0.00     0.219 HD
ENDBRANCH  30  33
ENDBRANCH   5  29
TORSDOF 9
ENDMDL
MODEL 2
REMARK VINA RESULT:      -7.2      3.673      6.445
REMARK  9 active torsions:
REMARK  status: ('A' for Active; 'I' for Inactive)
REMARK    1  A    between atoms: O_32  and  C_5 
REMARK    2  A    between atoms: C_17  and  C_12 
REMARK    3  A    between atoms: S_33  and  C_12 
REMARK    4  A    between atoms: O_26  and  C_13 
REMARK    5  A    between atoms: C_17  and  C_14 
REMARK    6  A    between atoms: N_23  and  C_16 
REMARK    7  A    between atoms: C_17  and  N_25 
REMARK    8  A    between atoms: O_31  and  C_18 
REMARK    9  A    between atoms: O_32  and  C_19 
ROOT
HETATM    1  C   UNK N   1      20.026  15.235   9.329  0.00  0.00     0.003 A 
HETATM    2  C   UNK N   1      20.280  16.490   8.757  0.00  0.00     0.018 A 
HETATM    3  C   UNK N   1      20.409  14.056   8.655  0.00  0.00     0.030 A 
HETATM    4  C   UNK N   1      20.939  16.523   7.533  0.00  0.00     0.050 A 
HETATM    5  C   UNK N   1      21.074  14.114   7.407  0.00  0.00     0.050 A 
HETATM    6  C   UNK N   1      21.343  15.383   6.878  0.00  0.00     0.075 A 
HETATM    7  C   UNK N   1      21.302  17.644   6.686  0.00  0.00     0.262 A 
HETATM    8  C   UNK N   1      21.994  15.839   5.636  0.00  0.00     0.264 A 
HETATM    9  N   UNK N   1      21.944  17.201   5.569  0.00  0.00    -0.270 N 
HETATM   10  O   UNK N   1      21.050  18.817   6.920  0.00  0.00    -0.267 OA
HETATM   11  O   UNK N   1      22.488  15.118   4.783  0.00  0.00    -0.267 OA
ENDROOT
BRANCH   9  12
HETATM   12  C   UNK N   1      22.413  18.098   4.497  0.00  0.00     0.143 C 
BRANCH  12  13
HETATM   13  C   UNK N   1      21.542  18.078   3.218  0.00  0.00     0.170 C 
BRANCH  13  14
HETATM   14  S   UNK N   1      20.558  19.545   2.733  0.00  0.00     0.143 S 
HETATM   15  C   UNK N   1      20.836  20.519   1.228  0.00  0.00     0.161 C 
HETATM   16  O   UNK N   1      20.420  20.531   3.900  0.00  0.00    -0.228 OA
HETATM   17  O   UNK N   1      19.101  19.064   2.652  0.00  0.00    -0.228 OA
ENDBRANCH  13  14
ENDBRANCH  12  13
BRANCH  12  18
HETATM   18  C   UNK N   1      23.924  18.015   4.296  0.00  0.00    -0.031 A 
HETATM   19  C   UNK N   1      24.478  16.984   3.522  0.00  0.00     0.012 A 
HETATM   20  C   UNK N   1      25.848  16.753   3.514  0.00  0.00     0.040 A 
HETATM   21  C   UNK N   1      26.710  17.541   4.274  0.00  0.00     0.101 A 
HETATM   22  C   UNK N   1      26.182  18.639   5.002  0.00  0.00     0.102 A 
HETATM   23  C   UNK N   1      24.787  18.861   5.011  0.00  0.00     0.049 A 
BRANCH  21  24
HETATM   24  O   UNK N   1      28.027  17.208   4.272  0.00  0.00    -0.353 OA
HETATM   25  C   UNK N   1      28.530  15.945   4.496  0.00  0.00     0.210 C 
ENDBRANCH  21  24
BRANCH  22  26
HETATM   26  O   UNK N   1      27.021  19.452   5.686  0.00  0.00    -0.349 OA
BRANCH  26  27
HETATM   27  C   UNK N   1      27.327  20.737   5.314  0.00  0.00     0.171 C 
HETATM   28  C   UNK N   1      26.789  21.678   6.374  0.00  0.00     0.034 C 
ENDBRANCH  26  27
ENDBRANCH  22  26
ENDBRANCH  12  18
ENDBRANCH   9  12
BRANCH   5  29
HETATM   29  N   UNK N   1      21.438  12.943   6.676  0.00  0.00    -0.340 N 
HETATM   30  C   UNK N   1      20.651  12.253   5.915  0.00  0.00     0.111 C 
HETATM   31  C   UNK N   1      21.187  11.058   5.211  0.00  0.00     0.097 C 
ATOM     32  HN  UNK N   1      22.402  12.623   6.761  1.00  0.00     0.167 HD
BRANCH  30  33
HETATM   33  O   UNK N   1      19.363  12.604   5.718  0.00  0.00    -0.350 OA
HETATM   34  H   UNK N   1      18.837  12.898   6.434  0.00  0.00     0.219 HD
ENDBRANCH  30  33
ENDBRANCH   5  29
TORSDOF 9
ENDMDL
MODEL 3
REMARK VINA RESULT:      -7.0      3.745      6.931
REMARK  9 active torsions:
REMARK  status: ('A' for Active; 'I' for Inactive)
REMARK    1  A    between atoms: O_32  and  C_5 
REMARK    2  A    between atoms: C_17  and  C_12 
REMARK    3  A    between atoms: S_33  and  C_12 
REMARK    4  A    between atoms: O_26  and  C_13 
REMARK    5  A    between atoms: C_17  and  C_14 
REMARK    6  A    between atoms: N_23  and  C_16 
REMARK    7  A    between atoms: C_17  and  N_25 
REMARK    8  A    between atoms: O_31  and  C_18 
REMARK    9  A    between atoms: O_32  and  C_19 
ROOT
HETATM    1  C   UNK N   1      21.531  13.745   8.118  0.00  0.00     0.003 A 
HETATM    2  C   UNK N   1      22.205  14.129   6.950  0.00  0.00     0.018 A 
HETATM    3  C   UNK N   1      20.788  14.691   8.854  0.00  0.00     0.030 A 
HETATM    4  C   UNK N   1      22.090  15.452   6.540  0.00  0.00     0.050 A 
HETATM    5  C   UNK N   1      20.688  16.035   8.419  0.00  0.00     0.050 A 
HETATM    6  C   UNK N   1      21.346  16.380   7.232  0.00  0.00     0.075 A 
HETATM    7  C   UNK N   1      22.690  16.149   5.418  0.00  0.00     0.262 A 
HETATM    8  C   UNK N   1      21.476  17.644   6.483  0.00  0.00     0.264 A 
HETATM    9  N   UNK N   1      22.291  17.452   5.405  0.00  0.00    -0.270 N 
HETATM   10  O   UNK N   1      23.464  15.655   4.611  0.00  0.00    -0.267 OA
HETATM   11  O   UNK N   1      20.955  18.707   6.782  0.00  0.00    -0.267 OA
ENDROOT
BRANCH   9  12
HETATM   12  C   UNK N   1      22.754  18.430   4.404  0.00  0.00     0.143 C 
BRANCH  12  13
HETATM   13  C   UNK N   1      21.964  18.410   3.075  0.00  0.00     0.170 C 
BRANCH  13  14
HETATM   14  S   UNK N   1      20.686  19.676   2.726  0.00  0.00     0.143 S 
HETATM   15  C   UNK N   1      20.676  20.754   1.267  0.00  0.00     0.161 C 
HETATM   16  O   UNK N   1      20.432  20.560   3.953  0.00  0.00    -0.228 OA
HETATM   17  O   UNK N   1      19.348  18.921   2.692  0.00  0.00    -0.228 OA
ENDBRANCH  13  14
ENDBRANCH  12  13
BRANCH  12  18
HETATM   18  C   UNK N   1      24.277  18.465   4.294  0.00  0.00    -0.031 A 
HETATM   19  C   UNK N   1      24.923  17.811   3.235  0.00  0.00     0.012 A 
HETATM   20  C   UNK N   1      26.301  17.632   3.238  0.00  0.00     0.040 A 
HETATM   21  C   UNK N   1      27.079  18.101   4.294  0.00  0.00     0.101 A 
HETATM   22  C   UNK N   1      26.458  18.836   5.338  0.00  0.00     0.102 A 
HETATM   23  C   UNK N   1      25.055  19.005   5.330  0.00  0.00     0.049 A 
BRANCH  21  24
HETATM   24  O   UNK N   1      28.410  17.825   4.261  0.00  0.00    -0.353 OA
HETATM   25  C   UNK N   1      28.984  16.753   3.616  0.00  0.00     0.210 C 
ENDBRANCH  21  24
BRANCH  22  26
HETATM   26  O   UNK N   1      27.217  19.355   6.331  0.00  0.00    -0.349 OA
BRANCH  26  27
HETATM   27  C   UNK N   1      26.939  20.532   6.980  0.00  0.00     0.171 C 
HETATM   28  C   UNK N   1      27.449  21.677   6.126  0.00  0.00     0.034 C 
ENDBRANCH  26  27
ENDBRANCH  22  26
ENDBRANCH  12  18
ENDBRANCH   9  12
BRANCH   5  29
HETATM   29  N   UNK N   1      19.982  17.030   9.160  0.00  0.00    -0.340 N 
HETATM   30  C   UNK N   1      18.706  17.242   9.115  0.00  0.00     0.111 C 
HETATM   31  C   UNK N   1      18.118  18.316   9.960  0.00  0.00     0.097 C 
ATOM     32  HN  UNK N   1      20.531  17.625   9.780  1.00  0.00     0.167 HD
BRANCH  30  33
HETATM   33  O   UNK N   1      17.887  16.496   8.346  0.00  0.00    -0.350 OA
HETATM   34  H   UNK N   1      18.042  15.578   8.241  0.00  0.00     0.219 HD
ENDBRANCH  30  33
ENDBRANCH   5  29
TORSDOF 9
ENDMDL
MODEL 4
REMARK VINA RESULT:      -7.0     12.529     17.026
REMARK  9 active torsions:
REMARK  status: ('A' for Active; 'I' for Inactive)
REMARK    1  A    between atoms: O_32  and  C_5 
REMARK    2  A    between atoms: C_17  and  C_12 
REMARK    3  A    between atoms: S_33  and  C_12 
REMARK    4  A    between atoms: O_26  and  C_13 
REMARK    5  A    between atoms: C_17  and  C_14 
REMARK    6  A    between atoms: N_23  and  C_16 
REMARK    7  A    between atoms: C_17  and  N_25 
REMARK    8  A    between atoms: O_31  and  C_18 
REMARK    9  A    between atoms: O_32  and  C_19 
ROOT
HETATM    1  C   UNK N   1      34.164  10.316  14.275  0.00  0.00     0.003 A 
HETATM    2  C   UNK N   1      34.114  10.376  12.875  0.00  0.00     0.018 A 
HETATM    3  C   UNK N   1      34.648  11.413  15.017  0.00  0.00     0.030 A 
HETATM    4  C   UNK N   1      34.530  11.552  12.261  0.00  0.00     0.050 A 
HETATM    5  C   UNK N   1      35.071  12.600  14.370  0.00  0.00     0.050 A 
HETATM    6  C   UNK N   1      34.979  12.641  12.973  0.00  0.00     0.075 A 
HETATM    7  C   UNK N   1      34.633  11.900  10.856  0.00  0.00     0.262 A 
HETATM    8  C   UNK N   1      35.318  13.668  11.971  0.00  0.00     0.264 A 
HETATM    9  N   UNK N   1      35.092  13.175  10.719  0.00  0.00    -0.270 N 
HETATM   10  O   UNK N   1      34.373  11.154   9.923  0.00  0.00    -0.267 OA
HETATM   11  O   UNK N   1      35.751  14.784  12.212  0.00  0.00    -0.267 OA
ENDROOT
BRANCH   9  12
HETATM   12  C   UNK N   1      35.334  13.811   9.411  0.00  0.00     0.143 C 
BRANCH  12  13
HETATM   13  C   UNK N   1      36.794  14.263   9.178  0.00  0.00     0.170 C 
BRANCH  13  14
HETATM   14  S   UNK N   1      38.140  13.032   9.009  0.00  0.00     0.143 S 
HETATM   15  C   UNK N   1      39.432  13.086   7.737  0.00  0.00     0.161 C 
HETATM   16  O   UNK N   1      37.589  11.600   9.044  0.00  0.00    -0.228 OA
HETATM   17  O   UNK N   1      38.883  13.036  10.354  0.00  0.00    -0.228 OA
ENDBRANCH  13  14
ENDBRANCH  12  13
BRANCH  12  18
HETATM   18  C   UNK N   1      34.242  14.814   9.047  0.00  0.00    -0.031 A 
HETATM   19  C   UNK N   1      32.970  14.716   9.632  0.00  0.00     0.012 A 
HETATM   20  C   UNK N   1      31.902  15.464   9.152  0.00  0.00     0.040 A 
HETATM   21  C   UNK N   1      32.066  16.335   8.076  0.00  0.00     0.101 A 
HETATM   22  C   UNK N   1      33.360  16.510   7.519  0.00  0.00     0.102 A 
HETATM   23  C   UNK N   1      34.438  15.739   8.009  0.00  0.00     0.049 A 
BRANCH  21  24
HETATM   24  O   UNK N   1      30.960  16.976   7.617  0.00  0.00    -0.353 OA
HETATM   25  C   UNK N   1      30.077  16.475   6.687  0.00  0.00     0.210 C 
ENDBRANCH  21  24
BRANCH  22  26
HETATM   26  O   UNK N   1      33.541  17.405   6.521  0.00  0.00    -0.349 OA
BRANCH  26  27
HETATM   27  C   UNK N   1      33.811  17.067   5.218  0.00  0.00     0.171 C 
HETATM   28  C   UNK N   1      32.704  17.626   4.344  0.00  0.00     0.034 C 
ENDBRANCH  26  27
ENDBRANCH  22  26
ENDBRANCH  12  18
ENDBRANCH   9  12
BRANCH   5  29
HETATM   29  N   UNK N   1      35.607  13.713  15.084  0.00  0.00    -0.340 N 
HETATM   30  C   UNK N   1      36.859  13.907  15.353  0.00  0.00     0.111 C 
HETATM   31  C   UNK N   1      37.260  15.128  16.101  0.00  0.00     0.097 C 
ATOM     32  HN  UNK N   1      34.946  14.418  15.410  1.00  0.00     0.167 HD
BRANCH  30  33
HETATM   33  O   UNK N   1      37.815  13.047  14.947  0.00  0.00    -0.350 OA
HETATM   34  H   UNK N   1      37.907  12.834  14.039  0.00  0.00     0.219 HD
ENDBRANCH  30  33
ENDBRANCH   5  29
TORSDOF 9
ENDMDL
MODEL 5
REMARK VINA RESULT:      -7.0      3.699      6.511
REMARK  9 active torsions:
REMARK  status: ('A' for Active; 'I' for Inactive)
REMARK    1  A    between atoms: O_32  and  C_5 
REMARK    2  A    between atoms: C_17  and  C_12 
REMARK    3  A    between atoms: S_33  and  C_12 
REMARK    4  A    between atoms: O_26  and  C_13 
REMARK    5  A    between atoms: C_17  and  C_14 
REMARK    6  A    between atoms: N_23  and  C_16 
REMARK    7  A    between atoms: C_17  and  N_25 
REMARK    8  A    between atoms: O_31  and  C_18 
REMARK    9  A    between atoms: O_32  and  C_19 
ROOT
HETATM    1  C   UNK N   1      28.270  16.387   3.205  0.00  0.00     0.003 A 
HETATM    2  C   UNK N   1      27.193  15.505   3.034  0.00  0.00     0.018 A 
HETATM    3  C   UNK N   1      28.059  17.668   3.756  0.00  0.00     0.030 A 
HETATM    4  C   UNK N   1      25.936  15.929   3.449  0.00  0.00     0.050 A 
HETATM    5  C   UNK N   1      26.768  18.080   4.168  0.00  0.00     0.050 A 
HETATM    6  C   UNK N   1      25.719  17.165   4.014  0.00  0.00     0.075 A 
HETATM    7  C   UNK N   1      24.644  15.273   3.370  0.00  0.00     0.262 A 
HETATM    8  C   UNK N   1      24.277  17.227   4.312  0.00  0.00     0.264 A 
HETATM    9  N   UNK N   1      23.678  16.069   3.907  0.00  0.00    -0.270 N 
HETATM   10  O   UNK N   1      24.438  14.176   2.871  0.00  0.00    -0.267 OA
HETATM   11  O   UNK N   1      23.694  18.170   4.824  0.00  0.00    -0.267 OA
ENDROOT
BRANCH   9  12
HETATM   12  C   UNK N   1      22.252  15.695   3.948  0.00  0.00     0.143 C 
BRANCH  12  13
HETATM   13  C   UNK N   1      21.335  16.572   3.065  0.00  0.00     0.170 C 
BRANCH  13  14
HETATM   14  S   UNK N   1      20.590  15.900   1.532  0.00  0.00     0.143 S 
HETATM   15  C   UNK N   1      19.796  16.904   0.246  0.00  0.00     0.161 C 
HETATM   16  O   UNK N   1      19.655  14.723   1.840  0.00  0.00    -0.228 OA
HETATM   17  O   UNK N   1      21.716  15.132   0.821  0.00  0.00    -0.228 OA
ENDBRANCH  13  14
ENDBRANCH  12  13
BRANCH  12  18
HETATM   18  C   UNK N   1      21.770  15.417   5.370  0.00  0.00    -0.031 A 
HETATM   19  C   UNK N   1      22.359  14.393   6.127  0.00  0.00     0.012 A 
HETATM   20  C   UNK N   1      21.791  13.970   7.322  0.00  0.00     0.040 A 
HETATM   21  C   UNK N   1      20.620  14.554   7.803  0.00  0.00     0.101 A 
HETATM   22  C   UNK N   1      20.050  15.644   7.096  0.00  0.00     0.102 A 
HETATM   23  C   UNK N   1      20.630  16.062   5.877  0.00  0.00     0.049 A 
BRANCH  21  24
HETATM   24  O   UNK N   1      20.086  14.037   8.941  0.00  0.00    -0.353 OA
HETATM   25  C   UNK N   1      20.805  13.530  10.000  0.00  0.00     0.210 C 
ENDBRANCH  21  24
BRANCH  22  26
HETATM   26  O   UNK N   1      18.954  16.262   7.592  0.00  0.00    -0.349 OA
BRANCH  26  27
HETATM   27  C   UNK N   1      18.978  17.172   8.620  0.00  0.00     0.171 C 
HETATM   28  C   UNK N   1      17.594  17.224   9.240  0.00  0.00     0.034 C 
ENDBRANCH  26  27
ENDBRANCH  22  26
ENDBRANCH  12  18
ENDBRANCH   9  12
BRANCH   5  29
HETATM   29  N   UNK N   1      26.509  19.383   4.689  0.00  0.00    -0.340 N 
HETATM   30  C   UNK N   1      26.752  19.776   5.899  0.00  0.00     0.111 C 
HETATM   31  C   UNK N   1      26.432  21.176   6.285  0.00  0.00     0.097 C 
ATOM     32  HN  UNK N   1      26.097  20.065   4.052  1.00  0.00     0.167 HD
BRANCH  30  33
HETATM   33  O   UNK N   1      27.317  18.959   6.812  0.00  0.00    -0.350 OA
HETATM   34  H   UNK N   1      26.782  18.479   7.412  0.00  0.00     0.219 HD
ENDBRANCH  30  33
ENDBRANCH   5  29
TORSDOF 9
ENDMDL
MODEL 6
REMARK VINA RESULT:      -6.8      2.794      4.824
REMARK  9 active torsions:
REMARK  status: ('A' for Active; 'I' for Inactive)
REMARK    1  A    between atoms: O_32  and  C_5 
REMARK    2  A    between atoms: C_17  and  C_12 
REMARK    3  A    between atoms: S_33  and  C_12 
REMARK    4  A    between atoms: O_26  and  C_13 
REMARK    5  A    between atoms: C_17  and  C_14 
REMARK    6  A    between atoms: N_23  and  C_16 
REMARK    7  A    between atoms: C_17  and  N_25 
REMARK    8  A    between atoms: O_31  and  C_18 
REMARK    9  A    between atoms: O_32  and  C_19 
ROOT
HETATM    1  C   UNK N   1      19.979  18.095   1.230  0.00  0.00     0.003 A 
HETATM    2  C   UNK N   1      20.683  18.449   2.389  0.00  0.00     0.018 A 
HETATM    3  C   UNK N   1      19.949  16.753   0.798  0.00  0.00     0.030 A 
HETATM    4  C   UNK N   1      21.318  17.435   3.097  0.00  0.00     0.050 A 
HETATM    5  C   UNK N   1      20.606  15.737   1.533  0.00  0.00     0.050 A 
HETATM    6  C   UNK N   1      21.275  16.118   2.704  0.00  0.00     0.075 A 
HETATM    7  C   UNK N   1      22.142  17.489   4.290  0.00  0.00     0.262 A 
HETATM    8  C   UNK N   1      22.057  15.370   3.705  0.00  0.00     0.264 A 
HETATM    9  N   UNK N   1      22.555  16.237   4.634  0.00  0.00    -0.270 N 
HETATM   10  O   UNK N   1      22.450  18.508   4.890  0.00  0.00    -0.267 OA
HETATM   11  O   UNK N   1      22.251  14.164   3.704  0.00  0.00    -0.267 OA
ENDROOT
BRANCH   9  12
HETATM   12  C   UNK N   1      23.434  15.963   5.786  0.00  0.00     0.143 C 
BRANCH  12  13
HETATM   13  C   UNK N   1      24.790  15.317   5.418  0.00  0.00     0.170 C 
BRANCH  13  14
HETATM   14  S   UNK N   1      26.117  16.306   4.635  0.00  0.00     0.143 S 
HETATM   15  C   UNK N   1      26.966  17.701   5.427  0.00  0.00     0.161 C 
HETATM   16  O   UNK N   1      25.716  16.754   3.223  0.00  0.00    -0.228 OA
HETATM   17  O   UNK N   1      27.223  15.305   4.264  0.00  0.00    -0.228 OA
ENDBRANCH  13  14
ENDBRANCH  12  13
BRANCH  12  18
HETATM   18  C   UNK N   1      22.675  15.341   6.955  0.00  0.00    -0.031 A 
HETATM   19  C   UNK N   1      23.133  14.152   7.542  0.00  0.00     0.012 A 
HETATM   20  C   UNK N   1      22.345  13.448   8.443  0.00  0.00     0.040 A 
HETATM   21  C   UNK N   1      21.076  13.907   8.792  0.00  0.00     0.101 A 
HETATM   22  C   UNK N   1      20.622  15.147   8.273  0.00  0.00     0.102 A 
HETATM   23  C   UNK N   1      21.428  15.852   7.350  0.00  0.00     0.049 A 
BRANCH  21  24
HETATM   24  O   UNK N   1      20.336  13.126   9.623  0.00  0.00    -0.353 OA
HETATM   25  C   UNK N   1      20.797  12.529  10.775  0.00  0.00     0.210 C 
ENDBRANCH  21  24
BRANCH  22  26
HETATM   26  O   UNK N   1      19.421  15.634   8.661  0.00  0.00    -0.349 OA
BRANCH  26  27
HETATM   27  C   UNK N   1      19.084  16.965   8.646  0.00  0.00     0.171 C 
HETATM   28  C   UNK N   1      17.687  17.107   9.220  0.00  0.00     0.034 C 
ENDBRANCH  26  27
ENDBRANCH  22  26
ENDBRANCH  12  18
ENDBRANCH   9  12
BRANCH   5  29
HETATM   29  N   UNK N   1      20.635  14.376   1.105  0.00  0.00    -0.340 N 
HETATM   30  C   UNK N   1      19.670  13.522   1.235  0.00  0.00     0.111 C 
HETATM   31  C   UNK N   1      19.853  12.137   0.724  0.00  0.00     0.097 C 
ATOM     32  HN  UNK N   1      21.490  14.048   0.656  1.00  0.00     0.167 HD
BRANCH  30  33
HETATM   33  O   UNK N   1      18.490  13.861   1.793  0.00  0.00    -0.350 OA
HETATM   34  H   UNK N   1      18.162  13.386   2.531  0.00  0.00     0.219 HD
ENDBRANCH  30  33
ENDBRANCH   5  29
TORSDOF 9
ENDMDL
MODEL 7
REMARK VINA RESULT:      -6.7      3.425      6.370
REMARK  9 active torsions:
REMARK  status: ('A' for Active; 'I' for Inactive)
REMARK    1  A    between atoms: O_32  and  C_5 
REMARK    2  A    between atoms: C_17  and  C_12 
REMARK    3  A    between atoms: S_33  and  C_12 
REMARK    4  A    between atoms: O_26  and  C_13 
REMARK    5  A    between atoms: C_17  and  C_14 
REMARK    6  A    between atoms: N_23  and  C_16 
REMARK    7  A    between atoms: C_17  and  N_25 
REMARK    8  A    between atoms: O_31  and  C_18 
REMARK    9  A    between atoms: O_32  and  C_19 
ROOT
HETATM    1  C   UNK N   1      26.182  20.753   3.124  0.00  0.00     0.003 A 
HETATM    2  C   UNK N   1      24.802  20.506   3.138  0.00  0.00     0.018 A 
HETATM    3  C   UNK N   1      27.071  19.854   3.747  0.00  0.00     0.030 A 
HETATM    4  C   UNK N   1      24.357  19.343   3.757  0.00  0.00     0.050 A 
HETATM    5  C   UNK N   1      26.596  18.678   4.376  0.00  0.00     0.050 A 
HETATM    6  C   UNK N   1      25.215  18.442   4.345  0.00  0.00     0.075 A 
HETATM    7  C   UNK N   1      23.013  18.838   3.966  0.00  0.00     0.262 A 
HETATM    8  C   UNK N   1      24.366  17.362   4.880  0.00  0.00     0.264 A 
HETATM    9  N   UNK N   1      23.055  17.647   4.626  0.00  0.00    -0.270 N 
HETATM   10  O   UNK N   1      21.985  19.405   3.627  0.00  0.00    -0.267 OA
HETATM   11  O   UNK N   1      24.761  16.371   5.474  0.00  0.00    -0.267 OA
ENDROOT
BRANCH   9  12
HETATM   12  C   UNK N   1      21.848  16.894   5.014  0.00  0.00     0.143 C 
BRANCH  12  13
HETATM   13  C   UNK N   1      21.803  16.479   6.503  0.00  0.00     0.170 C 
BRANCH  13  14
HETATM   14  S   UNK N   1      20.202  16.202   7.349  0.00  0.00     0.143 S 
HETATM   15  C   UNK N   1      19.578  17.203   8.728  0.00  0.00     0.161 C 
HETATM   16  O   UNK N   1      20.027  14.727   7.736  0.00  0.00    -0.228 OA
HETATM   17  O   UNK N   1      19.128  16.291   6.254  0.00  0.00    -0.228 OA
ENDBRANCH  13  14
ENDBRANCH  12  13
BRANCH  12  18
HETATM   18  C   UNK N   1      21.487  15.818   3.993  0.00  0.00    -0.031 A 
HETATM   19  C   UNK N   1      21.711  14.464   4.285  0.00  0.00     0.012 A 
HETATM   20  C   UNK N   1      21.609  13.492   3.298  0.00  0.00     0.040 A 
HETATM   21  C   UNK N   1      21.278  13.837   1.989  0.00  0.00     0.101 A 
HETATM   22  C   UNK N   1      20.969  15.188   1.686  0.00  0.00     0.102 A 
HETATM   23  C   UNK N   1      21.084  16.170   2.696  0.00  0.00     0.049 A 
BRANCH  21  24
HETATM   24  O   UNK N   1      21.269  12.841   1.064  0.00  0.00    -0.353 OA
HETATM   25  C   UNK N   1      20.176  12.072   0.732  0.00  0.00     0.210 C 
ENDBRANCH  21  24
BRANCH  22  26
HETATM   26  O   UNK N   1      20.578  15.519   0.434  0.00  0.00    -0.349 OA
BRANCH  26  27
HETATM   27  C   UNK N   1      19.430  16.210   0.139  0.00  0.00     0.171 C 
HETATM   28  C   UNK N   1      18.351  15.206  -0.221  0.00  0.00     0.034 C 
ENDBRANCH  26  27
ENDBRANCH  22  26
ENDBRANCH  12  18
ENDBRANCH   9  12
BRANCH   5  29
HETATM   29  N   UNK N   1      27.461  17.767   5.054  0.00  0.00    -0.340 N 
HETATM   30  C   UNK N   1      27.834  17.857   6.291  0.00  0.00     0.111 C 
HETATM   31  C   UNK N   1      28.735  16.817   6.854  0.00  0.00     0.097 C 
ATOM     32  HN  UNK N   1      27.816  16.976   4.517  1.00  0.00     0.167 HD
BRANCH  30  33
HETATM   33  O   UNK N   1      27.404  18.852   7.093  0.00  0.00    -0.350 OA
HETATM   34  H   UNK N   1      27.679  18.892   7.987  0.00  0.00     0.219 HD
ENDBRANCH  30  33
ENDBRANCH   5  29
TORSDOF 9
ENDMDL
MODEL 8
REMARK VINA RESULT:      -6.7      2.810      7.671
REMARK  9 active torsions:
REMARK  status: ('A' for Active; 'I' for Inactive)
REMARK    1  A    between atoms: O_32  and  C_5 
REMARK    2  A    between atoms: C_17  and  C_12 
REMARK    3  A    between atoms: S_33  and  C_12 
REMARK    4  A    between atoms: O_26  and  C_13 
REMARK    5  A    between atoms: C_17  and  C_14 
REMARK    6  A    between atoms: N_23  and  C_16 
REMARK    7  A    between atoms: C_17  and  N_25 
REMARK    8  A    between atoms: O_31  and  C_18 
REMARK    9  A    between atoms: O_32  and  C_19 
ROOT
HETATM    1  C   UNK N   1      22.098  13.045   9.775  0.00  0.00     0.003 A 
HETATM    2  C   UNK N   1      22.633  12.978   8.480  0.00  0.00     0.018 A 
HETATM    3  C   UNK N   1      20.946  13.818  10.029  0.00  0.00     0.030 A 
HETATM    4  C   UNK N   1      21.976  13.671   7.470  0.00  0.00     0.050 A 
HETATM    5  C   UNK N   1      20.295  14.519   8.985  0.00  0.00     0.050 A 
HETATM    6  C   UNK N   1      20.835  14.406   7.697  0.00  0.00     0.075 A 
HETATM    7  C   UNK N   1      22.300  13.826   6.065  0.00  0.00     0.262 A 
HETATM    8  C   UNK N   1      20.453  14.976   6.392  0.00  0.00     0.264 A 
HETATM    9  N   UNK N   1      21.363  14.598   5.447  0.00  0.00    -0.270 N 
HETATM   10  O   UNK N   1      23.284  13.357   5.511  0.00  0.00    -0.267 OA
HETATM   11  O   UNK N   1      19.486  15.691   6.181  0.00  0.00    -0.267 OA
ENDROOT
BRANCH   9  12
HETATM   12  C   UNK N   1      21.429  14.965   4.021  0.00  0.00     0.143 C 
BRANCH  12  13
HETATM   13  C   UNK N   1      21.797  13.798   3.075  0.00  0.00     0.170 C 
BRANCH  13  14
HETATM   14  S   UNK N   1      22.171  14.107   1.309  0.00  0.00     0.143 S 
HETATM   15  C   UNK N   1      23.843  14.235   0.616  0.00  0.00     0.161 C 
HETATM   16  O   UNK N   1      21.357  15.290   0.768  0.00  0.00    -0.228 OA
HETATM   17  O   UNK N   1      21.487  12.971   0.531  0.00  0.00    -0.228 OA
ENDBRANCH  13  14
ENDBRANCH  12  13
BRANCH  12  18
HETATM   18  C   UNK N   1      22.165  16.284   3.798  0.00  0.00    -0.031 A 
HETATM   19  C   UNK N   1      23.567  16.313   3.764  0.00  0.00     0.012 A 
HETATM   20  C   UNK N   1      24.259  17.517   3.795  0.00  0.00     0.040 A 
HETATM   21  C   UNK N   1      23.577  18.731   3.858  0.00  0.00     0.101 A 
HETATM   22  C   UNK N   1      22.159  18.731   3.813  0.00  0.00     0.102 A 
HETATM   23  C   UNK N   1      21.464  17.500   3.790  0.00  0.00     0.049 A 
BRANCH  21  24
HETATM   24  O   UNK N   1      24.324  19.862   3.959  0.00  0.00    -0.353 OA
HETATM   25  C   UNK N   1      25.624  19.921   4.407  0.00  0.00     0.210 C 
ENDBRANCH  21  24
BRANCH  22  26
HETATM   26  O   UNK N   1      21.491  19.908   3.803  0.00  0.00    -0.349 OA
BRANCH  26  27
HETATM   27  C   UNK N   1      20.485  20.218   2.923  0.00  0.00     0.171 C 
HETATM   28  C   UNK N   1      21.094  20.369   1.542  0.00  0.00     0.034 C 
ENDBRANCH  26  27
ENDBRANCH  22  26
ENDBRANCH  12  18
ENDBRANCH   9  12
BRANCH   5  29
HETATM   29  N   UNK N   1      19.153  15.345   9.211  0.00  0.00    -0.340 N 
HETATM   30  C   UNK N   1      19.138  16.639   9.183  0.00  0.00     0.111 C 
HETATM   31  C   UNK N   1      17.859  17.356   9.431  0.00  0.00     0.097 C 
ATOM     32  HN  UNK N   1      18.271  14.873   9.412  1.00  0.00     0.167 HD
BRANCH  30  33
HETATM   33  O   UNK N   1      20.245  17.357   8.904  0.00  0.00    -0.350 OA
HETATM   34  H   UNK N   1      21.060  16.926   8.736  0.00  0.00     0.219 HD
ENDBRANCH  30  33
ENDBRANCH   5  29
TORSDOF 9
ENDMDL
MODEL 9
REMARK VINA RESULT:      -6.7      3.676      7.006
REMARK  9 active torsions:
REMARK  status: ('A' for Active; 'I' for Inactive)
REMARK    1  A    between atoms: O_32  and  C_5 
REMARK    2  A    between atoms: C_17  and  C_12 
REMARK    3  A    between atoms: S_33  and  C_12 
REMARK    4  A    between atoms: O_26  and  C_13 
REMARK    5  A    between atoms: C_17  and  C_14 
REMARK    6  A    between atoms: N_23  and  C_16 
REMARK    7  A    between atoms: C_17  and  N_25 
REMARK    8  A    between atoms: O_31  and  C_18 
REMARK    9  A    between atoms: O_32  and  C_19 
ROOT
HETATM    1  C   UNK N   1      19.953  16.066   9.062  0.00  0.00     0.003 A 
HETATM    2  C   UNK N   1      20.269  16.927   8.002  0.00  0.00     0.018 A 
HETATM    3  C   UNK N   1      20.560  14.796   9.151  0.00  0.00     0.030 A 
HETATM    4  C   UNK N   1      21.210  16.496   7.074  0.00  0.00     0.050 A 
HETATM    5  C   UNK N   1      21.513  14.376   8.192  0.00  0.00     0.050 A 
HETATM    6  C   UNK N   1      21.831  15.272   7.163  0.00  0.00     0.075 A 
HETATM    7  C   UNK N   1      21.708  17.131   5.868  0.00  0.00     0.262 A 
HETATM    8  C   UNK N   1      22.745  15.195   6.008  0.00  0.00     0.264 A 
HETATM    9  N   UNK N   1      22.634  16.334   5.265  0.00  0.00    -0.270 N 
HETATM   10  O   UNK N   1      21.338  18.212   5.434  0.00  0.00    -0.267 OA
HETATM   11  O   UNK N   1      23.479  14.257   5.740  0.00  0.00    -0.267 OA
ENDROOT
BRANCH   9  12
HETATM   12  C   UNK N   1      23.304  16.688   3.999  0.00  0.00     0.143 C 
BRANCH  12  13
HETATM   13  C   UNK N   1      22.930  15.784   2.802  0.00  0.00     0.170 C 
BRANCH  13  14
HETATM   14  S   UNK N   1      21.195  15.663   2.226  0.00  0.00     0.143 S 
HETATM   15  C   UNK N   1      19.901  14.694   3.050  0.00  0.00     0.161 C 
HETATM   16  O   UNK N   1      21.129  15.338   0.728  0.00  0.00    -0.228 OA
HETATM   17  O   UNK N   1      20.667  17.105   2.182  0.00  0.00    -0.228 OA
ENDBRANCH  13  14
ENDBRANCH  12  13
BRANCH  12  18
HETATM   18  C   UNK N   1      24.789  16.982   4.196  0.00  0.00    -0.031 A 
HETATM   19  C   UNK N   1      25.753  16.044   3.798  0.00  0.00     0.012 A 
HETATM   20  C   UNK N   1      27.084  16.183   4.172  0.00  0.00     0.040 A 
HETATM   21  C   UNK N   1      27.498  17.261   4.952  0.00  0.00     0.101 A 
HETATM   22  C   UNK N   1      26.557  18.264   5.300  0.00  0.00     0.102 A 
HETATM   23  C   UNK N   1      25.204  18.110   4.922  0.00  0.00     0.049 A 
BRANCH  21  24
HETATM   24  O   UNK N   1      28.801  17.289   5.338  0.00  0.00    -0.353 OA
HETATM   25  C   UNK N   1      29.296  16.757   6.507  0.00  0.00     0.210 C 
ENDBRANCH  21  24
BRANCH  22  26
HETATM   26  O   UNK N   1      26.965  19.349   5.998  0.00  0.00    -0.349 OA
BRANCH  26  27
HETATM   27  C   UNK N   1      27.541  20.460   5.433  0.00  0.00     0.171 C 
HETATM   28  C   UNK N   1      27.041  21.684   6.177  0.00  0.00     0.034 C 
ENDBRANCH  26  27
ENDBRANCH  22  26
ENDBRANCH  12  18
ENDBRANCH   9  12
BRANCH   5  29
HETATM   29  N   UNK N   1      22.116  13.082   8.225  0.00  0.00    -0.340 N 
HETATM   30  C   UNK N   1      22.957  12.663   9.115  0.00  0.00     0.111 C 
HETATM   31  C   UNK N   1      23.489  11.277   9.015  0.00  0.00     0.097 C 
ATOM     32  HN  UNK N   1      21.859  12.431   7.483  1.00  0.00     0.167 HD
BRANCH  30  33
HETATM   33  O   UNK N   1      23.344  13.437  10.149  0.00  0.00    -0.350 OA
HETATM   34  H   UNK N   1      22.792  13.535  10.900  0.00  0.00     0.219 HD
ENDBRANCH  30  33
ENDBRANCH   5  29
TORSDOF 9
ENDMDL
