MODEL 1
REMARK VINA RESULT:      -8.3      0.000      0.000
REMARK  13 active torsions:
REMARK  status: ('A' for Active; 'I' for Inactive)
REMARK    1  A    between atoms: C_2  and  C_3 
REMARK    2  A    between atoms: C_2  and  N_25 
REMARK       I    between atoms: C_3  and  N_5 
REMARK    3  A    between atoms: C_6  and  N_5 
REMARK    4  A    between atoms: C_6  and  C_7 
REMARK    5  A    between atoms: C_6  and  C_11 
REMARK    6  A    between atoms: C_7  and  C_8 
REMARK    7  A    between atoms: C_8  and  O_10 
REMARK    8  A    between atoms: C_11  and  C_13 
REMARK    9  A    between atoms: C_13  and  O_14 
REMARK   10  A    between atoms: O_14  and  C_15 
REMARK       I    between atoms: N_25  and  C_26 
REMARK   11  A    between atoms: C_26  and  C_28 
REMARK       I    between atoms: C_28  and  N_30 
REMARK   12  A    between atoms: N_30  and  C_31 
REMARK   13  A    between atoms: C_36  and  C_37 
ROOT
HETATM    1  C   UNK N   1      22.060  17.318   5.907  0.00  0.00     0.240 C 
HETATM    2  O   UNK N   1      21.443  17.715   6.881  0.00  0.00    -0.271 OA
HETATM    3  N   UNK N   1      21.770  16.114   5.345  0.00  0.00    -0.347 N 
HETATM    4  H   UNK N   1      22.417  15.721   4.715  0.00  0.00     0.163 HD
ENDROOT
BRANCH   1   5
HETATM    5  C   UNK N   1      22.944  18.295   5.182  0.00  0.00     0.173 C 
HETATM    6  C   UNK N   1      22.190  18.839   3.982  0.00  0.00     0.042 C 
BRANCH   5   7
HETATM    7  N   UNK N   1      24.273  17.898   4.763  0.00  0.00    -0.340 N 
HETATM    8  C   UNK N   1      24.658  16.996   3.832  0.00  0.00     0.310 C 
HETATM    9  O   UNK N   1      23.826  16.320   3.249  0.00  0.00    -0.262 OA
HETATM   10  H   UNK N   1      25.011  18.357   5.227  0.00  0.00     0.163 HD
BRANCH   8  11
HETATM   11  C   UNK N   1      26.115  16.729   3.601  0.00  0.00     0.314 C 
HETATM   12  O   UNK N   1      26.394  15.822   2.830  0.00  0.00    -0.262 OA
HETATM   13  N   UNK N   1      27.159  17.406   4.181  0.00  0.00    -0.318 N 
HETATM   14  H   UNK N   1      28.032  16.976   4.036  0.00  0.00     0.169 HD
BRANCH  13  15
HETATM   15  C   UNK N   1      27.240  18.614   4.956  0.00  0.00     0.042 A 
HETATM   16  C   UNK N   1      27.010  19.873   4.391  0.00  0.00     0.030 A 
HETATM   17  C   UNK N   1      27.135  21.044   5.135  0.00  0.00     0.002 A 
HETATM   18  C   UNK N   1      27.526  20.980   6.466  0.00  0.00     0.001 A 
HETATM   19  C   UNK N   1      27.799  19.745   7.047  0.00  0.00     0.010 A 
HETATM   20  C   UNK N   1      27.666  18.548   6.315  0.00  0.00    -0.024 A 
BRANCH  20  21
HETATM   21  C   UNK N   1      28.003  17.219   6.985  0.00  0.00    -0.022 C 
HETATM   22  C   UNK N   1      29.233  16.607   6.340  0.00  0.00     0.019 C 
HETATM   23  C   UNK N   1      28.268  17.428   8.467  0.00  0.00     0.019 C 
HETATM   24  C   UNK N   1      26.875  16.199   6.876  0.00  0.00     0.019 C 
ENDBRANCH  20  21
ENDBRANCH  13  15
ENDBRANCH   8  11
ENDBRANCH   5   7
ENDBRANCH   1   5
BRANCH   3  25
HETATM   25  C   UNK N   1      20.547  15.378   5.632  0.00  0.00     0.166 C 
BRANCH  25  26
HETATM   26  C   UNK N   1      19.352  15.551   4.679  0.00  0.00     0.143 C 
BRANCH  26  27
HETATM   27  C   UNK N   1      19.609  16.365   3.449  0.00  0.00     0.141 C 
HETATM   28  O   UNK N   1      20.391  15.975   2.596  0.00  0.00    -0.650 OA
BRANCH  27  29
HETATM   29  O   UNK N   1      18.943  17.519   3.266  0.00  0.00    -0.776 OA
HETATM   30  H   UNK N   1      18.804  18.103   3.987  0.00  0.00     0.167 HD
ENDBRANCH  27  29
ENDBRANCH  26  27
ENDBRANCH  25  26
BRANCH  25  31
HETATM   31  C   UNK N   1      20.824  14.091   6.402  0.00  0.00     0.173 C 
HETATM   32  O   UNK N   1      19.936  13.254   6.444  0.00  0.00    -0.293 OA
BRANCH  31  33
HETATM   33  C   UNK N   1      22.119  13.732   7.077  0.00  0.00     0.256 C 
BRANCH  33  34
HETATM   34  O   UNK N   1      22.250  14.233   8.346  0.00  0.00    -0.338 OA
BRANCH  34  35
HETATM   35  C   UNK N   1      22.410  13.465   9.455  0.00  0.00     0.152 A 
HETATM   36  C   UNK N   1      21.266  13.113  10.183  0.00  0.00     0.191 A 
HETATM   37  C   UNK N   1      21.366  12.303  11.316  0.00  0.00     0.160 A 
HETATM   38  F   UNK N   1      20.048  13.550   9.780  0.00  0.00    -0.200 F 
HETATM   39  C   UNK N   1      22.611  11.845  11.743  0.00  0.00     0.091 A 
HETATM   40  F   UNK N   1      20.249  11.956  12.000  0.00  0.00    -0.203 F 
HETATM   41  C   UNK N   1      23.765  12.194  11.040  0.00  0.00     0.160 A 
HETATM   42  C   UNK N   1      23.678  12.999   9.897  0.00  0.00     0.191 A 
HETATM   43  F   UNK N   1      24.970  11.747  11.469  0.00  0.00    -0.203 F 
HETATM   44  F   UNK N   1      24.821  13.318   9.239  0.00  0.00    -0.200 F 
ENDBRANCH  34  35
ENDBRANCH  33  34
ENDBRANCH  31  33
ENDBRANCH  25  31
ENDBRANCH   3  25
TORSDOF 13
ENDMDL
MODEL 2
REMARK VINA RESULT:      -8.3      1.654      2.343
REMARK  13 active torsions:
REMARK  status: ('A' for Active; 'I' for Inactive)
REMARK    1  A    between atoms: C_2  and  C_3 
REMARK    2  A    between atoms: C_2  and  N_25 
REMARK       I    between atoms: C_3  and  N_5 
REMARK    3  A    between atoms: C_6  and  N_5 
REMARK    4  A    between atoms: C_6  and  C_7 
REMARK    5  A    between atoms: C_6  and  C_11 
REMARK    6  A    between atoms: C_7  and  C_8 
REMARK    7  A    between atoms: C_8  and  O_10 
REMARK    8  A    between atoms: C_11  and  C_13 
REMARK    9  A    between atoms: C_13  and  O_14 
REMARK   10  A    between atoms: O_14  and  C_15 
REMARK       I    between atoms: N_25  and  C_26 
REMARK   11  A    between atoms: C_26  and  C_28 
REMARK       I    between atoms: C_28  and  N_30 
REMARK   12  A    between atoms: N_30  and  C_31 
REMARK   13  A    between atoms: C_36  and  C_37 
ROOT
HETATM    1  C   UNK N   1      22.158  17.503   6.178  0.00  0.00     0.240 C 
HETATM    2  O   UNK N   1      21.477  18.345   6.737  0.00  0.00    -0.271 OA
HETATM    3  N   UNK N   1      21.738  16.212   6.097  0.00  0.00    -0.347 N 
HETATM    4  H   UNK N   1      22.392  15.520   5.847  0.00  0.00     0.163 HD
ENDROOT
BRANCH   1   5
HETATM    5  C   UNK N   1      23.322  17.970   5.349  0.00  0.00     0.173 C 
HETATM    6  C   UNK N   1      22.820  18.338   3.965  0.00  0.00     0.042 C 
BRANCH   5   7
HETATM    7  N   UNK N   1      24.499  17.136   5.216  0.00  0.00    -0.340 N 
HETATM    8  C   UNK N   1      25.808  17.476   5.190  0.00  0.00     0.310 C 
HETATM    9  O   UNK N   1      26.139  18.651   5.215  0.00  0.00    -0.262 OA
HETATM   10  H   UNK N   1      24.319  16.171   5.131  0.00  0.00     0.163 HD
BRANCH   8  11
HETATM   11  C   UNK N   1      26.856  16.420   5.001  0.00  0.00     0.314 C 
HETATM   12  O   UNK N   1      26.779  15.743   3.986  0.00  0.00    -0.262 OA
HETATM   13  N   UNK N   1      27.885  16.145   5.866  0.00  0.00    -0.318 N 
HETATM   14  H   UNK N   1      28.363  15.312   5.653  0.00  0.00     0.169 HD
BRANCH  13  15
HETATM   15  C   UNK N   1      28.409  16.823   7.021  0.00  0.00     0.042 A 
HETATM   16  C   UNK N   1      27.585  17.248   8.068  0.00  0.00     0.030 A 
HETATM   17  C   UNK N   1      28.091  17.946   9.163  0.00  0.00     0.002 A 
HETATM   18  C   UNK N   1      29.442  18.261   9.218  0.00  0.00     0.001 A 
HETATM   19  C   UNK N   1      30.282  17.885   8.173  0.00  0.00     0.010 A 
HETATM   20  C   UNK N   1      29.792  17.168   7.064  0.00  0.00    -0.024 A 
BRANCH  20  21
HETATM   21  C   UNK N   1      30.744  16.802   5.929  0.00  0.00    -0.022 C 
HETATM   22  C   UNK N   1      30.344  17.527   4.657  0.00  0.00     0.019 C 
HETATM   23  C   UNK N   1      32.169  17.182   6.292  0.00  0.00     0.019 C 
HETATM   24  C   UNK N   1      30.749  15.308   5.620  0.00  0.00     0.019 C 
ENDBRANCH  20  21
ENDBRANCH  13  15
ENDBRANCH   8  11
ENDBRANCH   5   7
ENDBRANCH   1   5
BRANCH   3  25
HETATM   25  C   UNK N   1      20.365  15.806   6.363  0.00  0.00     0.166 C 
BRANCH  25  26
HETATM   26  C   UNK N   1      19.289  16.152   5.320  0.00  0.00     0.143 C 
BRANCH  26  27
HETATM   27  C   UNK N   1      19.772  16.324   3.914  0.00  0.00     0.141 C 
HETATM   28  O   UNK N   1      20.589  15.552   3.437  0.00  0.00    -0.650 OA
BRANCH  27  29
HETATM   29  O   UNK N   1      19.270  17.316   3.156  0.00  0.00    -0.776 OA
HETATM   30  H   UNK N   1      18.585  17.139   2.541  0.00  0.00     0.167 HD
ENDBRANCH  27  29
ENDBRANCH  26  27
ENDBRANCH  25  26
BRANCH  25  31
HETATM   31  C   UNK N   1      20.299  14.572   7.256  0.00  0.00     0.173 C 
HETATM   32  O   UNK N   1      20.139  13.489   6.715  0.00  0.00    -0.293 OA
BRANCH  31  33
HETATM   33  C   UNK N   1      20.466  14.559   8.751  0.00  0.00     0.256 C 
BRANCH  33  34
HETATM   34  O   UNK N   1      20.676  13.313   9.282  0.00  0.00    -0.338 OA
BRANCH  34  35
HETATM   35  C   UNK N   1      21.806  12.948   9.943  0.00  0.00     0.152 A 
HETATM   36  C   UNK N   1      21.668  12.371  11.212  0.00  0.00     0.191 A 
HETATM   37  C   UNK N   1      22.791  11.951  11.927  0.00  0.00     0.160 A 
HETATM   38  F   UNK N   1      20.434  12.205  11.749  0.00  0.00    -0.200 F 
HETATM   39  C   UNK N   1      24.067  12.115  11.389  0.00  0.00     0.091 A 
HETATM   40  F   UNK N   1      22.643  11.378  13.146  0.00  0.00    -0.203 F 
HETATM   41  C   UNK N   1      24.228  12.699  10.132  0.00  0.00     0.160 A 
HETATM   42  C   UNK N   1      23.109  13.117   9.401  0.00  0.00     0.191 A 
HETATM   43  F   UNK N   1      25.474  12.859   9.623  0.00  0.00    -0.203 F 
HETATM   44  F   UNK N   1      23.303  13.681   8.181  0.00  0.00    -0.200 F 
ENDBRANCH  34  35
ENDBRANCH  33  34
ENDBRANCH  31  33
ENDBRANCH  25  31
ENDBRANCH   3  25
TORSDOF 13
ENDMDL
MODEL 3
REMARK VINA RESULT:      -8.3      1.229      2.422
REMARK  13 active torsions:
REMARK  status: ('A' for Active; 'I' for Inactive)
REMARK    1  A    between atoms: C_2  and  C_3 
REMARK    2  A    between atoms: C_2  and  N_25 
REMARK       I    between atoms: C_3  and  N_5 
REMARK    3  A    between atoms: C_6  and  N_5 
REMARK    4  A    between atoms: C_6  and  C_7 
REMARK    5  A    between atoms: C_6  and  C_11 
REMARK    6  A    between atoms: C_7  and  C_8 
REMARK    7  A    between atoms: C_8  and  O_10 
REMARK    8  A    between atoms: C_11  and  C_13 
REMARK    9  A    between atoms: C_13  and  O_14 
REMARK   10  A    between atoms: O_14  and  C_15 
REMARK       I    between atoms: N_25  and  C_26 
REMARK   11  A    between atoms: C_26  and  C_28 
REMARK       I    between atoms: C_28  and  N_30 
REMARK   12  A    between atoms: N_30  and  C_31 
REMARK   13  A    between atoms: C_36  and  C_37 
ROOT
HETATM    1  C   UNK N   1      21.982  17.677   5.734  0.00  0.00     0.240 C 
HETATM    2  O   UNK N   1      21.726  18.359   6.712  0.00  0.00    -0.271 OA
HETATM    3  N   UNK N   1      21.642  16.360   5.699  0.00  0.00    -0.347 N 
HETATM    4  H   UNK N   1      22.051  15.788   5.010  0.00  0.00     0.163 HD
ENDROOT
BRANCH   1   5
HETATM    5  C   UNK N   1      22.421  18.377   4.478  0.00  0.00     0.173 C 
HETATM    6  C   UNK N   1      21.416  18.085   3.379  0.00  0.00     0.042 C 
BRANCH   5   7
HETATM    7  N   UNK N   1      23.759  18.166   3.961  0.00  0.00    -0.340 N 
HETATM    8  C   UNK N   1      24.491  17.033   3.880  0.00  0.00     0.310 C 
HETATM    9  O   UNK N   1      24.064  15.989   4.346  0.00  0.00    -0.262 OA
HETATM   10  H   UNK N   1      24.203  18.975   3.614  0.00  0.00     0.163 HD
BRANCH   8  11
HETATM   11  C   UNK N   1      25.886  17.077   3.331  0.00  0.00     0.314 C 
HETATM   12  O   UNK N   1      26.116  16.378   2.355  0.00  0.00    -0.262 OA
HETATM   13  N   UNK N   1      26.924  17.824   3.829  0.00  0.00    -0.318 N 
HETATM   14  H   UNK N   1      27.796  17.590   3.440  0.00  0.00     0.169 HD
BRANCH  13  15
HETATM   15  C   UNK N   1      26.998  18.880   4.803  0.00  0.00     0.042 A 
HETATM   16  C   UNK N   1      26.560  20.179   4.522  0.00  0.00     0.030 A 
HETATM   17  C   UNK N   1      26.678  21.209   5.452  0.00  0.00     0.002 A 
HETATM   18  C   UNK N   1      27.269  20.965   6.684  0.00  0.00     0.001 A 
HETATM   19  C   UNK N   1      27.749  19.692   6.980  0.00  0.00     0.010 A 
HETATM   20  C   UNK N   1      27.628  18.634   6.058  0.00  0.00    -0.024 A 
BRANCH  20  21
HETATM   21  C   UNK N   1      28.194  17.262   6.413  0.00  0.00    -0.022 C 
HETATM   22  C   UNK N   1      29.177  16.811   5.349  0.00  0.00     0.019 C 
HETATM   23  C   UNK N   1      28.903  17.316   7.756  0.00  0.00     0.019 C 
HETATM   24  C   UNK N   1      27.117  16.188   6.525  0.00  0.00     0.019 C 
ENDBRANCH  20  21
ENDBRANCH  13  15
ENDBRANCH   8  11
ENDBRANCH   5   7
ENDBRANCH   1   5
BRANCH   3  25
HETATM   25  C   UNK N   1      20.701  15.758   6.632  0.00  0.00     0.166 C 
BRANCH  25  26
HETATM   26  C   UNK N   1      19.338  16.441   6.834  0.00  0.00     0.143 C 
BRANCH  26  27
HETATM   27  C   UNK N   1      19.019  16.863   8.234  0.00  0.00     0.141 C 
HETATM   28  O   UNK N   1      17.916  16.653   8.712  0.00  0.00    -0.650 OA
BRANCH  27  29
HETATM   29  O   UNK N   1      19.971  17.446   8.984  0.00  0.00    -0.776 OA
HETATM   30  H   UNK N   1      20.750  17.781   8.582  0.00  0.00     0.167 HD
ENDBRANCH  27  29
ENDBRANCH  26  27
ENDBRANCH  25  26
BRANCH  25  31
HETATM   31  C   UNK N   1      20.911  14.252   6.760  0.00  0.00     0.173 C 
HETATM   32  O   UNK N   1      19.971  13.524   6.480  0.00  0.00    -0.293 OA
BRANCH  31  33
HETATM   33  C   UNK N   1      22.194  13.574   7.153  0.00  0.00     0.256 C 
BRANCH  33  34
HETATM   34  O   UNK N   1      22.721  14.012   8.339  0.00  0.00    -0.338 OA
BRANCH  34  35
HETATM   35  C   UNK N   1      22.717  13.287   9.488  0.00  0.00     0.152 A 
HETATM   36  C   UNK N   1      23.942  12.802   9.965  0.00  0.00     0.191 A 
HETATM   37  C   UNK N   1      24.003  12.074  11.155  0.00  0.00     0.160 A 
HETATM   38  F   UNK N   1      25.082  13.051   9.275  0.00  0.00    -0.200 F 
HETATM   39  C   UNK N   1      22.840  11.810  11.876  0.00  0.00     0.091 A 
HETATM   40  F   UNK N   1      25.197  11.626  11.613  0.00  0.00    -0.203 F 
HETATM   41  C   UNK N   1      21.608  12.272  11.413  0.00  0.00     0.160 A 
HETATM   42  C   UNK N   1      21.533  13.011  10.225  0.00  0.00     0.191 A 
HETATM   43  F   UNK N   1      20.483  12.003  12.120  0.00  0.00    -0.203 F 
HETATM   44  F   UNK N   1      20.317  13.445   9.805  0.00  0.00    -0.200 F 
ENDBRANCH  34  35
ENDBRANCH  33  34
ENDBRANCH  31  33
ENDBRANCH  25  31
ENDBRANCH   3  25
TORSDOF 13
ENDMDL
MODEL 4
REMARK VINA RESULT:      -8.2      9.089     13.078
REMARK  13 active torsions:
REMARK  status: ('A' for Active; 'I' for Inactive)
REMARK    1  A    between atoms: C_2  and  C_3 
REMARK    2  A    between atoms: C_2  and  N_25 
REMARK       I    between atoms: C_3  and  N_5 
REMARK    3  A    between atoms: C_6  and  N_5 
REMARK    4  A    between atoms: C_6  and  C_7 
REMARK    5  A    between atoms: C_6  and  C_11 
REMARK    6  A    between atoms: C_7  and  C_8 
REMARK    7  A    between atoms: C_8  and  O_10 
REMARK    8  A    between atoms: C_11  and  C_13 
REMARK    9  A    between atoms: C_13  and  O_14 
REMARK   10  A    between atoms: O_14  and  C_15 
REMARK       I    between atoms: N_25  and  C_26 
REMARK   11  A    between atoms: C_26  and  C_28 
REMARK       I    between atoms: C_28  and  N_30 
REMARK   12  A    between atoms: N_30  and  C_31 
REMARK   13  A    between atoms: C_36  and  C_37 
ROOT
HETATM    1  C   UNK N   1      34.419  15.093   8.996  0.00  0.00     0.240 C 
HETATM    2  O   UNK N   1      33.236  14.905   8.767  0.00  0.00    -0.271 OA
HETATM    3  N   UNK N   1      35.298  15.301   7.979  0.00  0.00    -0.347 N 
HETATM    4  H   UNK N   1      36.261  15.225   8.168  0.00  0.00     0.163 HD
ENDROOT
BRANCH   1   5
HETATM    5  C   UNK N   1      34.832  15.364  10.416  0.00  0.00     0.173 C 
HETATM    6  C   UNK N   1      35.332  16.793  10.515  0.00  0.00     0.042 C 
BRANCH   5   7
HETATM    7  N   UNK N   1      35.778  14.487  11.077  0.00  0.00    -0.340 N 
HETATM    8  C   UNK N   1      35.636  13.741  12.195  0.00  0.00     0.310 C 
HETATM    9  O   UNK N   1      34.607  13.799  12.849  0.00  0.00    -0.262 OA
HETATM   10  H   UNK N   1      36.661  14.425  10.644  0.00  0.00     0.163 HD
BRANCH   8  11
HETATM   11  C   UNK N   1      36.789  12.932  12.710  0.00  0.00     0.314 C 
HETATM   12  O   UNK N   1      37.554  12.469  11.876  0.00  0.00    -0.262 OA
HETATM   13  N   UNK N   1      37.058  12.663  14.029  0.00  0.00    -0.318 N 
HETATM   14  H   UNK N   1      37.755  11.980  14.154  0.00  0.00     0.169 HD
BRANCH  13  15
HETATM   15  C   UNK N   1      36.530  13.172  15.266  0.00  0.00     0.042 A 
HETATM   16  C   UNK N   1      36.873  14.439  15.751  0.00  0.00     0.030 A 
HETATM   17  C   UNK N   1      36.397  14.909  16.973  0.00  0.00     0.002 A 
HETATM   18  C   UNK N   1      35.581  14.102  17.755  0.00  0.00     0.001 A 
HETATM   19  C   UNK N   1      35.252  12.822  17.317  0.00  0.00     0.010 A 
HETATM   20  C   UNK N   1      35.714  12.332  16.079  0.00  0.00    -0.024 A 
BRANCH  20  21
HETATM   21  C   UNK N   1      35.352  10.913  15.652  0.00  0.00    -0.022 C 
HETATM   22  C   UNK N   1      34.290  10.948  14.569  0.00  0.00     0.019 C 
HETATM   23  C   UNK N   1      36.580  10.191  15.123  0.00  0.00     0.019 C 
HETATM   24  C   UNK N   1      34.805  10.071  16.801  0.00  0.00     0.019 C 
ENDBRANCH  20  21
ENDBRANCH  13  15
ENDBRANCH   8  11
ENDBRANCH   5   7
ENDBRANCH   1   5
BRANCH   3  25
HETATM   25  C   UNK N   1      34.880  15.631   6.624  0.00  0.00     0.166 C 
BRANCH  25  26
HETATM   26  C   UNK N   1      34.683  14.480   5.622  0.00  0.00     0.143 C 
BRANCH  26  27
HETATM   27  C   UNK N   1      33.569  13.528   5.930  0.00  0.00     0.141 C 
HETATM   28  O   UNK N   1      32.526  13.566   5.298  0.00  0.00    -0.650 OA
BRANCH  27  29
HETATM   29  O   UNK N   1      33.737  12.598   6.887  0.00  0.00    -0.776 OA
HETATM   30  H   UNK N   1      34.383  12.722   7.557  0.00  0.00     0.167 HD
ENDBRANCH  27  29
ENDBRANCH  26  27
ENDBRANCH  25  26
BRANCH  25  31
HETATM   31  C   UNK N   1      34.083  16.930   6.574  0.00  0.00     0.173 C 
HETATM   32  O   UNK N   1      34.568  17.913   7.112  0.00  0.00    -0.293 OA
BRANCH  31  33
HETATM   33  C   UNK N   1      32.767  17.127   5.872  0.00  0.00     0.256 C 
BRANCH  33  34
HETATM   34  O   UNK N   1      31.699  16.548   6.507  0.00  0.00    -0.338 OA
BRANCH  34  35
HETATM   35  C   UNK N   1      30.708  17.248   7.120  0.00  0.00     0.152 A 
HETATM   36  C   UNK N   1      29.481  17.370   6.455  0.00  0.00     0.191 A 
HETATM   37  C   UNK N   1      28.417  18.053   7.047  0.00  0.00     0.160 A 
HETATM   38  F   UNK N   1      29.317  16.810   5.231  0.00  0.00    -0.200 F 
HETATM   39  C   UNK N   1      28.570  18.634   8.305  0.00  0.00     0.091 A 
HETATM   40  F   UNK N   1      27.230  18.149   6.400  0.00  0.00    -0.203 F 
HETATM   41  C   UNK N   1      29.787  18.535   8.979  0.00  0.00     0.160 A 
HETATM   42  C   UNK N   1      30.860  17.845   8.401  0.00  0.00     0.191 A 
HETATM   43  F   UNK N   1      29.925  19.110  10.199  0.00  0.00    -0.203 F 
HETATM   44  F   UNK N   1      32.029  17.769   9.086  0.00  0.00    -0.200 F 
ENDBRANCH  34  35
ENDBRANCH  33  34
ENDBRANCH  31  33
ENDBRANCH  25  31
ENDBRANCH   3  25
TORSDOF 13
ENDMDL
MODEL 5
REMARK VINA RESULT:      -8.2      3.651      7.227
REMARK  13 active torsions:
REMARK  status: ('A' for Active; 'I' for Inactive)
REMARK    1  A    between atoms: C_2  and  C_3 
REMARK    2  A    between atoms: C_2  and  N_25 
REMARK       I    between atoms: C_3  and  N_5 
REMARK    3  A    between atoms: C_6  and  N_5 
REMARK    4  A    between atoms: C_6  and  C_7 
REMARK    5  A    between atoms: C_6  and  C_11 
REMARK    6  A    between atoms: C_7  and  C_8 
REMARK    7  A    between atoms: C_8  and  O_10 
REMARK    8  A    between atoms: C_11  and  C_13 
REMARK    9  A    between atoms: C_13  and  O_14 
REMARK   10  A    between atoms: O_14  and  C_15 
REMARK       I    between atoms: N_25  and  C_26 
REMARK   11  A    between atoms: C_26  and  C_28 
REMARK       I    between atoms: C_28  and  N_30 
REMARK   12  A    between atoms: N_30  and  C_31 
REMARK   13  A    between atoms: C_36  and  C_37 
ROOT
HETATM    1  C   UNK N   1      21.246  17.766   3.940  0.00  0.00     0.240 C 
HETATM    2  O   UNK N   1      20.780  17.396   2.876  0.00  0.00    -0.271 OA
HETATM    3  N   UNK N   1      22.009  18.891   4.010  0.00  0.00    -0.347 N 
HETATM    4  H   UNK N   1      22.550  19.042   4.818  0.00  0.00     0.163 HD
ENDROOT
BRANCH   1   5
HETATM    5  C   UNK N   1      20.738  17.121   5.199  0.00  0.00     0.173 C 
HETATM    6  C   UNK N   1      21.257  17.902   6.393  0.00  0.00     0.042 C 
BRANCH   5   7
HETATM    7  N   UNK N   1      20.959  15.707   5.430  0.00  0.00    -0.340 N 
HETATM    8  C   UNK N   1      20.399  14.877   6.339  0.00  0.00     0.310 C 
HETATM    9  O   UNK N   1      19.623  15.312   7.174  0.00  0.00    -0.262 OA
HETATM   10  H   UNK N   1      21.619  15.285   4.833  0.00  0.00     0.163 HD
BRANCH   8  11
HETATM   11  C   UNK N   1      20.826  13.441   6.408  0.00  0.00     0.314 C 
HETATM   12  O   UNK N   1      19.955  12.599   6.240  0.00  0.00    -0.262 OA
HETATM   13  N   UNK N   1      22.099  12.990   6.648  0.00  0.00    -0.318 N 
HETATM   14  H   UNK N   1      22.145  12.023   6.823  0.00  0.00     0.169 HD
BRANCH  13  15
HETATM   15  C   UNK N   1      23.381  13.640   6.697  0.00  0.00     0.042 A 
HETATM   16  C   UNK N   1      23.921  14.298   5.587  0.00  0.00     0.030 A 
HETATM   17  C   UNK N   1      25.183  14.885   5.625  0.00  0.00     0.002 A 
HETATM   18  C   UNK N   1      25.951  14.801   6.778  0.00  0.00     0.001 A 
HETATM   19  C   UNK N   1      25.458  14.120   7.888  0.00  0.00     0.010 A 
HETATM   20  C   UNK N   1      24.178  13.530   7.874  0.00  0.00    -0.024 A 
BRANCH  20  21
HETATM   21  C   UNK N   1      23.690  12.770   9.103  0.00  0.00    -0.022 C 
HETATM   22  C   UNK N   1      23.332  11.344   8.728  0.00  0.00     0.019 C 
HETATM   23  C   UNK N   1      24.771  12.747  10.172  0.00  0.00     0.019 C 
HETATM   24  C   UNK N   1      22.454  13.400   9.737  0.00  0.00     0.019 C 
ENDBRANCH  20  21
ENDBRANCH  13  15
ENDBRANCH   8  11
ENDBRANCH   5   7
ENDBRANCH   1   5
BRANCH   3  25
HETATM   25  C   UNK N   1      22.061  19.881   2.944  0.00  0.00     0.166 C 
BRANCH  25  26
HETATM   26  C   UNK N   1      20.738  20.498   2.458  0.00  0.00     0.143 C 
BRANCH  26  27
HETATM   27  C   UNK N   1      20.721  20.977   1.040  0.00  0.00     0.141 C 
HETATM   28  O   UNK N   1      20.889  20.195   0.117  0.00  0.00    -0.650 OA
BRANCH  27  29
HETATM   29  O   UNK N   1      20.480  22.274   0.781  0.00  0.00    -0.776 OA
HETATM   30  H   UNK N   1      19.640  22.544   0.463  0.00  0.00     0.167 HD
ENDBRANCH  27  29
ENDBRANCH  26  27
ENDBRANCH  25  26
BRANCH  25  31
HETATM   31  C   UNK N   1      23.389  20.630   2.926  0.00  0.00     0.173 C 
HETATM   32  O   UNK N   1      23.354  21.849   2.997  0.00  0.00    -0.293 OA
BRANCH  31  33
HETATM   33  C   UNK N   1      24.754  19.998   2.883  0.00  0.00     0.256 C 
BRANCH  33  34
HETATM   34  O   UNK N   1      24.927  18.973   3.776  0.00  0.00    -0.338 OA
BRANCH  34  35
HETATM   35  C   UNK N   1      26.097  18.708   4.414  0.00  0.00     0.152 A 
HETATM   36  C   UNK N   1      26.866  17.631   3.957  0.00  0.00     0.191 A 
HETATM   37  C   UNK N   1      28.091  17.327   4.555  0.00  0.00     0.160 A 
HETATM   38  F   UNK N   1      26.428  16.880   2.917  0.00  0.00    -0.200 F 
HETATM   39  C   UNK N   1      28.556  18.090   5.625  0.00  0.00     0.091 A 
HETATM   40  F   UNK N   1      28.833  16.293   4.092  0.00  0.00    -0.203 F 
HETATM   41  C   UNK N   1      27.800  19.160   6.104  0.00  0.00     0.160 A 
HETATM   42  C   UNK N   1      26.574  19.480   5.508  0.00  0.00     0.191 A 
HETATM   43  F   UNK N   1      28.261  19.890   7.150  0.00  0.00    -0.203 F 
HETATM   44  F   UNK N   1      25.865  20.528   6.000  0.00  0.00    -0.200 F 
ENDBRANCH  34  35
ENDBRANCH  33  34
ENDBRANCH  31  33
ENDBRANCH  25  31
ENDBRANCH   3  25
TORSDOF 13
ENDMDL
MODEL 6
REMARK VINA RESULT:      -8.2      1.446      2.241
REMARK  13 active torsions:
REMARK  status: ('A' for Active; 'I' for Inactive)
REMARK    1  A    between atoms: C_2  and  C_3 
REMARK    2  A    between atoms: C_2  and  N_25 
REMARK       I    between atoms: C_3  and  N_5 
REMARK    3  A    between atoms: C_6  and  N_5 
REMARK    4  A    between atoms: C_6  and  C_7 
REMARK    5  A    between atoms: C_6  and  C_11 
REMARK    6  A    between atoms: C_7  and  C_8 
REMARK    7  A    between atoms: C_8  and  O_10 
REMARK    8  A    between atoms: C_11  and  C_13 
REMARK    9  A    between atoms: C_13  and  O_14 
REMARK   10  A    between atoms: O_14  and  C_15 
REMARK       I    between atoms: N_25  and  C_26 
REMARK   11  A    between atoms: C_26  and  C_28 
REMARK       I    between atoms: C_28  and  N_30 
REMARK   12  A    between atoms: N_30  and  C_31 
REMARK   13  A    between atoms: C_36  and  C_37 
ROOT
HETATM    1  C   UNK N   1      23.518  17.023   4.879  0.00  0.00     0.240 C 
HETATM    2  O   UNK N   1      23.596  18.223   4.678  0.00  0.00    -0.271 OA
HETATM    3  N   UNK N   1      22.425  16.492   5.490  0.00  0.00    -0.347 N 
HETATM    4  H   UNK N   1      22.482  15.573   5.840  0.00  0.00     0.163 HD
ENDROOT
BRANCH   1   5
HETATM    5  C   UNK N   1      24.513  16.124   4.200  0.00  0.00     0.173 C 
HETATM    6  C   UNK N   1      24.236  14.690   4.611  0.00  0.00     0.042 C 
BRANCH   5   7
HETATM    7  N   UNK N   1      25.932  16.385   4.327  0.00  0.00    -0.340 N 
HETATM    8  C   UNK N   1      26.919  16.298   3.406  0.00  0.00     0.310 C 
HETATM    9  O   UNK N   1      26.678  15.885   2.284  0.00  0.00    -0.262 OA
HETATM   10  H   UNK N   1      26.225  16.671   5.224  0.00  0.00     0.163 HD
BRANCH   8  11
HETATM   11  C   UNK N   1      28.338  16.588   3.795  0.00  0.00     0.314 C 
HETATM   12  O   UNK N   1      29.195  15.837   3.350  0.00  0.00    -0.262 OA
HETATM   13  N   UNK N   1      28.757  17.612   4.607  0.00  0.00    -0.318 N 
HETATM   14  H   UNK N   1      29.699  17.534   4.878  0.00  0.00     0.169 HD
BRANCH  13  15
HETATM   15  C   UNK N   1      28.103  18.775   5.142  0.00  0.00     0.042 A 
HETATM   16  C   UNK N   1      27.661  19.819   4.321  0.00  0.00     0.030 A 
HETATM   17  C   UNK N   1      27.070  20.965   4.848  0.00  0.00     0.002 A 
HETATM   18  C   UNK N   1      26.934  21.105   6.223  0.00  0.00     0.001 A 
HETATM   19  C   UNK N   1      27.399  20.101   7.068  0.00  0.00     0.010 A 
HETATM   20  C   UNK N   1      27.988  18.928   6.554  0.00  0.00    -0.024 A 
BRANCH  20  21
HETATM   21  C   UNK N   1      28.508  17.867   7.519  0.00  0.00    -0.022 C 
HETATM   22  C   UNK N   1      27.651  16.618   7.434  0.00  0.00     0.019 C 
HETATM   23  C   UNK N   1      29.946  17.507   7.182  0.00  0.00     0.019 C 
HETATM   24  C   UNK N   1      28.497  18.331   8.971  0.00  0.00     0.019 C 
ENDBRANCH  20  21
ENDBRANCH  13  15
ENDBRANCH   8  11
ENDBRANCH   5   7
ENDBRANCH   1   5
BRANCH   3  25
HETATM   25  C   UNK N   1      21.173  17.219   5.651  0.00  0.00     0.166 C 
BRANCH  25  26
HETATM   26  C   UNK N   1      20.082  17.034   4.583  0.00  0.00     0.143 C 
BRANCH  26  27
HETATM   27  C   UNK N   1      20.151  17.963   3.410  0.00  0.00     0.141 C 
HETATM   28  O   UNK N   1      19.519  17.728   2.393  0.00  0.00    -0.650 OA
BRANCH  27  29
HETATM   29  O   UNK N   1      20.886  19.085   3.495  0.00  0.00    -0.776 OA
HETATM   30  H   UNK N   1      21.049  19.480   4.330  0.00  0.00     0.167 HD
ENDBRANCH  27  29
ENDBRANCH  26  27
ENDBRANCH  25  26
BRANCH  25  31
HETATM   31  C   UNK N   1      20.870  17.513   7.116  0.00  0.00     0.173 C 
HETATM   32  O   UNK N   1      20.762  18.683   7.448  0.00  0.00    -0.293 OA
BRANCH  31  33
HETATM   33  C   UNK N   1      20.636  16.485   8.189  0.00  0.00     0.256 C 
BRANCH  33  34
HETATM   34  O   UNK N   1      21.016  15.215   7.842  0.00  0.00    -0.338 OA
BRANCH  34  35
HETATM   35  C   UNK N   1      21.497  14.297   8.722  0.00  0.00     0.152 A 
HETATM   36  C   UNK N   1      20.634  13.828   9.720  0.00  0.00     0.191 A 
HETATM   37  C   UNK N   1      21.063  12.865  10.636  0.00  0.00     0.160 A 
HETATM   38  F   UNK N   1      19.366  14.301   9.795  0.00  0.00    -0.200 F 
HETATM   39  C   UNK N   1      22.364  12.368  10.572  0.00  0.00     0.091 A 
HETATM   40  F   UNK N   1      20.213  12.407  11.586  0.00  0.00    -0.203 F 
HETATM   41  C   UNK N   1      23.244  12.831   9.593  0.00  0.00     0.160 A 
HETATM   42  C   UNK N   1      22.824  13.791   8.664  0.00  0.00     0.191 A 
HETATM   43  F   UNK N   1      24.509  12.345   9.547  0.00  0.00    -0.203 F 
HETATM   44  F   UNK N   1      23.707  14.217   7.726  0.00  0.00    -0.200 F 
ENDBRANCH  34  35
ENDBRANCH  33  34
ENDBRANCH  31  33
ENDBRANCH  25  31
ENDBRANCH   3  25
TORSDOF 13
ENDMDL
MODEL 7
REMARK VINA RESULT:      -8.1      1.328      2.323
REMARK  13 active torsions:
REMARK  status: ('A' for Active; 'I' for Inactive)
REMARK    1  A    between atoms: C_2  and  C_3 
REMARK    2  A    between atoms: C_2  and  N_25 
REMARK       I    between atoms: C_3  and  N_5 
REMARK    3  A    between atoms: C_6  and  N_5 
REMARK    4  A    between atoms: C_6  and  C_7 
REMARK    5  A    between atoms: C_6  and  C_11 
REMARK    6  A    between atoms: C_7  and  C_8 
REMARK    7  A    between atoms: C_8  and  O_10 
REMARK    8  A    between atoms: C_11  and  C_13 
REMARK    9  A    between atoms: C_13  and  O_14 
REMARK   10  A    between atoms: O_14  and  C_15 
REMARK       I    between atoms: N_25  and  C_26 
REMARK   11  A    between atoms: C_26  and  C_28 
REMARK       I    between atoms: C_28  and  N_30 
REMARK   12  A    between atoms: N_30  and  C_31 
REMARK   13  A    between atoms: C_36  and  C_37 
ROOT
HETATM    1  C   UNK N   1      23.141  15.556   4.459  0.00  0.00     0.240 C 
HETATM    2  O   UNK N   1      23.383  16.431   5.274  0.00  0.00    -0.271 OA
HETATM    3  N   UNK N   1      21.912  14.976   4.407  0.00  0.00    -0.347 N 
HETATM    4  H   UNK N   1      21.810  14.135   3.907  0.00  0.00     0.163 HD
ENDROOT
BRANCH   1   5
HETATM    5  C   UNK N   1      24.128  15.332   3.347  0.00  0.00     0.173 C 
HETATM    6  C   UNK N   1      24.023  13.891   2.884  0.00  0.00     0.042 C 
BRANCH   5   7
HETATM    7  N   UNK N   1      25.526  15.664   3.539  0.00  0.00    -0.340 N 
HETATM    8  C   UNK N   1      26.171  16.840   3.371  0.00  0.00     0.310 C 
HETATM    9  O   UNK N   1      25.576  17.812   2.934  0.00  0.00    -0.262 OA
HETATM   10  H   UNK N   1      26.094  14.917   3.839  0.00  0.00     0.163 HD
BRANCH   8  11
HETATM   11  C   UNK N   1      27.651  16.925   3.600  0.00  0.00     0.314 C 
HETATM   12  O   UNK N   1      28.352  16.157   2.958  0.00  0.00    -0.262 OA
HETATM   13  N   UNK N   1      28.283  17.781   4.467  0.00  0.00    -0.318 N 
HETATM   14  H   UNK N   1      29.235  17.570   4.600  0.00  0.00     0.169 HD
BRANCH  13  15
HETATM   15  C   UNK N   1      27.841  18.923   5.221  0.00  0.00     0.042 A 
HETATM   16  C   UNK N   1      27.499  20.131   4.603  0.00  0.00     0.030 A 
HETATM   17  C   UNK N   1      27.117  21.249   5.340  0.00  0.00     0.002 A 
HETATM   18  C   UNK N   1      27.097  21.190   6.727  0.00  0.00     0.001 A 
HETATM   19  C   UNK N   1      27.469  20.014   7.374  0.00  0.00     0.010 A 
HETATM   20  C   UNK N   1      27.846  18.868   6.645  0.00  0.00    -0.024 A 
BRANCH  20  21
HETATM   21  C   UNK N   1      28.274  17.610   7.396  0.00  0.00    -0.022 C 
HETATM   22  C   UNK N   1      29.691  17.228   7.012  0.00  0.00     0.019 C 
HETATM   23  C   UNK N   1      28.210  17.845   8.896  0.00  0.00     0.019 C 
HETATM   24  C   UNK N   1      27.380  16.411   7.097  0.00  0.00     0.019 C 
ENDBRANCH  20  21
ENDBRANCH  13  15
ENDBRANCH   8  11
ENDBRANCH   5   7
ENDBRANCH   1   5
BRANCH   3  25
HETATM   25  C   UNK N   1      20.739  15.543   5.058  0.00  0.00     0.166 C 
BRANCH  25  26
HETATM   26  C   UNK N   1      19.598  16.071   4.171  0.00  0.00     0.143 C 
BRANCH  26  27
HETATM   27  C   UNK N   1      19.823  17.411   3.544  0.00  0.00     0.141 C 
HETATM   28  O   UNK N   1      20.927  17.931   3.567  0.00  0.00    -0.650 OA
BRANCH  27  29
HETATM   29  O   UNK N   1      18.807  18.028   2.916  0.00  0.00    -0.776 OA
HETATM   30  H   UNK N   1      18.756  18.018   1.979  0.00  0.00     0.167 HD
ENDBRANCH  27  29
ENDBRANCH  26  27
ENDBRANCH  25  26
BRANCH  25  31
HETATM   31  C   UNK N   1      20.516  14.951   6.446  0.00  0.00     0.173 C 
HETATM   32  O   UNK N   1      19.543  15.336   7.076  0.00  0.00    -0.293 OA
BRANCH  31  33
HETATM   33  C   UNK N   1      21.361  13.890   7.095  0.00  0.00     0.256 C 
BRANCH  33  34
HETATM   34  O   UNK N   1      22.000  14.300   8.236  0.00  0.00    -0.338 OA
BRANCH  34  35
HETATM   35  C   UNK N   1      22.188  13.513   9.328  0.00  0.00     0.152 A 
HETATM   36  C   UNK N   1      23.490  13.081   9.610  0.00  0.00     0.191 A 
HETATM   37  C   UNK N   1      23.750  12.293  10.733  0.00  0.00     0.160 A 
HETATM   38  F   UNK N   1      24.513  13.438   8.795  0.00  0.00    -0.200 F 
HETATM   39  C   UNK N   1      22.709  11.917  11.581  0.00  0.00     0.091 A 
HETATM   40  F   UNK N   1      25.016  11.895  11.004  0.00  0.00    -0.203 F 
HETATM   41  C   UNK N   1      21.402  12.326  11.312  0.00  0.00     0.160 A 
HETATM   42  C   UNK N   1      21.130  13.123  10.193  0.00  0.00     0.191 A 
HETATM   43  F   UNK N   1      20.399  11.948  12.141  0.00  0.00    -0.203 F 
HETATM   44  F   UNK N   1      19.847  13.503   9.962  0.00  0.00    -0.200 F 
ENDBRANCH  34  35
ENDBRANCH  33  34
ENDBRANCH  31  33
ENDBRANCH  25  31
ENDBRANCH   3  25
TORSDOF 13
ENDMDL
MODEL 8
REMARK VINA RESULT:      -8.1     14.382     16.685
REMARK  13 active torsions:
REMARK  status: ('A' for Active; 'I' for Inactive)
REMARK    1  A    between atoms: C_2  and  C_3 
REMARK    2  A    between atoms: C_2  and  N_25 
REMARK       I    between atoms: C_3  and  N_5 
REMARK    3  A    between atoms: C_6  and  N_5 
REMARK    4  A    between atoms: C_6  and  C_7 
REMARK    5  A    between atoms: C_6  and  C_11 
REMARK    6  A    between atoms: C_7  and  C_8 
REMARK    7  A    between atoms: C_8  and  O_10 
REMARK    8  A    between atoms: C_11  and  C_13 
REMARK    9  A    between atoms: C_13  and  O_14 
REMARK   10  A    between atoms: O_14  and  C_15 
REMARK       I    between atoms: N_25  and  C_26 
REMARK   11  A    between atoms: C_26  and  C_28 
REMARK       I    between atoms: C_28  and  N_30 
REMARK   12  A    between atoms: N_30  and  C_31 
REMARK   13  A    between atoms: C_36  and  C_37 
ROOT
HETATM    1  C   UNK N   1      28.488  25.102  -3.895  0.00  0.00     0.240 C 
HETATM    2  O   UNK N   1      27.751  24.214  -3.500  0.00  0.00    -0.271 OA
HETATM    3  N   UNK N   1      27.989  26.164  -4.583  0.00  0.00    -0.347 N 
HETATM    4  H   UNK N   1      28.616  26.740  -5.078  0.00  0.00     0.163 HD
ENDROOT
BRANCH   1   5
HETATM    5  C   UNK N   1      29.897  25.137  -3.372  0.00  0.00     0.173 C 
HETATM    6  C   UNK N   1      30.610  26.337  -3.968  0.00  0.00     0.042 C 
BRANCH   5   7
HETATM    7  N   UNK N   1      30.748  23.972  -3.500  0.00  0.00    -0.340 N 
HETATM    8  C   UNK N   1      30.972  22.958  -2.634  0.00  0.00     0.310 C 
HETATM    9  O   UNK N   1      30.468  22.976  -1.522  0.00  0.00    -0.262 OA
HETATM   10  H   UNK N   1      31.241  23.908  -4.351  0.00  0.00     0.163 HD
BRANCH   8  11
HETATM   11  C   UNK N   1      31.941  21.869  -2.984  0.00  0.00     0.314 C 
HETATM   12  O   UNK N   1      32.609  21.410  -2.069  0.00  0.00    -0.262 OA
HETATM   13  N   UNK N   1      32.148  21.349  -4.237  0.00  0.00    -0.318 N 
HETATM   14  H   UNK N   1      32.939  20.766  -4.293  0.00  0.00     0.169 HD
BRANCH  13  15
HETATM   15  C   UNK N   1      31.447  21.479  -5.486  0.00  0.00     0.042 A 
HETATM   16  C   UNK N   1      30.151  20.982  -5.663  0.00  0.00     0.030 A 
HETATM   17  C   UNK N   1      29.494  21.069  -6.888  0.00  0.00     0.002 A 
HETATM   18  C   UNK N   1      30.138  21.635  -7.980  0.00  0.00     0.001 A 
HETATM   19  C   UNK N   1      31.442  22.105  -7.847  0.00  0.00     0.010 A 
HETATM   20  C   UNK N   1      32.119  22.037  -6.612  0.00  0.00    -0.024 A 
BRANCH  20  21
HETATM   21  C   UNK N   1      33.557  22.538  -6.519  0.00  0.00    -0.022 C 
HETATM   22  C   UNK N   1      34.082  22.878  -7.901  0.00  0.00     0.019 C 
HETATM   23  C   UNK N   1      33.629  23.776  -5.640  0.00  0.00     0.019 C 
HETATM   24  C   UNK N   1      34.504  21.509  -5.912  0.00  0.00     0.019 C 
ENDBRANCH  20  21
ENDBRANCH  13  15
ENDBRANCH   8  11
ENDBRANCH   5   7
ENDBRANCH   1   5
BRANCH   3  25
HETATM   25  C   UNK N   1      26.570  26.489  -4.622  0.00  0.00     0.166 C 
BRANCH  25  26
HETATM   26  C   UNK N   1      25.989  27.349  -3.487  0.00  0.00     0.143 C 
BRANCH  26  27
HETATM   27  C   UNK N   1      26.628  28.688  -3.288  0.00  0.00     0.141 C 
HETATM   28  O   UNK N   1      27.718  28.783  -2.746  0.00  0.00    -0.650 OA
BRANCH  27  29
HETATM   29  O   UNK N   1      26.011  29.792  -3.746  0.00  0.00    -0.776 OA
HETATM   30  H   UNK N   1      26.018  30.581  -3.239  0.00  0.00     0.167 HD
ENDBRANCH  27  29
ENDBRANCH  26  27
ENDBRANCH  25  26
BRANCH  25  31
HETATM   31  C   UNK N   1      26.029  26.507  -6.048  0.00  0.00     0.173 C 
HETATM   32  O   UNK N   1      24.928  27.005  -6.229  0.00  0.00    -0.293 OA
BRANCH  31  33
HETATM   33  C   UNK N   1      26.753  26.011  -7.269  0.00  0.00     0.256 C 
BRANCH  33  34
HETATM   34  O   UNK N   1      27.280  24.753  -7.138  0.00  0.00    -0.338 OA
BRANCH  34  35
HETATM   35  C   UNK N   1      26.652  23.619  -7.548  0.00  0.00     0.152 A 
HETATM   36  C   UNK N   1      26.948  23.130  -8.827  0.00  0.00     0.191 A 
HETATM   37  C   UNK N   1      26.355  21.954  -9.293  0.00  0.00     0.160 A 
HETATM   38  F   UNK N   1      27.825  23.794  -9.619  0.00  0.00    -0.200 F 
HETATM   39  C   UNK N   1      25.451  21.260  -8.491  0.00  0.00     0.091 A 
HETATM   40  F   UNK N   1      26.663  21.484 -10.526  0.00  0.00    -0.203 F 
HETATM   41  C   UNK N   1      25.133  21.736  -7.219  0.00  0.00     0.160 A 
HETATM   42  C   UNK N   1      25.726  22.909  -6.736  0.00  0.00     0.191 A 
HETATM   43  F   UNK N   1      24.247  21.055  -6.452  0.00  0.00    -0.203 F 
HETATM   44  F   UNK N   1      25.394  23.343  -5.494  0.00  0.00    -0.200 F 
ENDBRANCH  34  35
ENDBRANCH  33  34
ENDBRANCH  31  33
ENDBRANCH  25  31
ENDBRANCH   3  25
TORSDOF 13
ENDMDL
MODEL 9
REMARK VINA RESULT:      -8.1      1.971      3.194
REMARK  13 active torsions:
REMARK  status: ('A' for Active; 'I' for Inactive)
REMARK    1  A    between atoms: C_2  and  C_3 
REMARK    2  A    between atoms: C_2  and  N_25 
REMARK       I    between atoms: C_3  and  N_5 
REMARK    3  A    between atoms: C_6  and  N_5 
REMARK    4  A    between atoms: C_6  and  C_7 
REMARK    5  A    between atoms: C_6  and  C_11 
REMARK    6  A    between atoms: C_7  and  C_8 
REMARK    7  A    between atoms: C_8  and  O_10 
REMARK    8  A    between atoms: C_11  and  C_13 
REMARK    9  A    between atoms: C_13  and  O_14 
REMARK   10  A    between atoms: O_14  and  C_15 
REMARK       I    between atoms: N_25  and  C_26 
REMARK   11  A    between atoms: C_26  and  C_28 
REMARK       I    between atoms: C_28  and  N_30 
REMARK   12  A    between atoms: N_30  and  C_31 
REMARK   13  A    between atoms: C_36  and  C_37 
ROOT
HETATM    1  C   UNK N   1      24.087  14.840   5.708  0.00  0.00     0.240 C 
HETATM    2  O   UNK N   1      24.529  14.982   6.836  0.00  0.00    -0.271 OA
HETATM    3  N   UNK N   1      22.917  15.427   5.342  0.00  0.00    -0.347 N 
HETATM    4  H   UNK N   1      22.474  15.120   4.518  0.00  0.00     0.163 HD
ENDROOT
BRANCH   1   5
HETATM    5  C   UNK N   1      24.989  14.241   4.665  0.00  0.00     0.173 C 
HETATM    6  C   UNK N   1      25.271  12.796   5.035  0.00  0.00     0.042 C 
BRANCH   5   7
HETATM    7  N   UNK N   1      26.238  14.892   4.325  0.00  0.00    -0.340 N 
HETATM    8  C   UNK N   1      26.473  15.957   3.526  0.00  0.00     0.310 C 
HETATM    9  O   UNK N   1      25.559  16.476   2.906  0.00  0.00    -0.262 OA
HETATM   10  H   UNK N   1      27.040  14.499   4.740  0.00  0.00     0.163 HD
BRANCH   8  11
HETATM   11  C   UNK N   1      27.878  16.429   3.297  0.00  0.00     0.314 C 
HETATM   12  O   UNK N   1      28.582  15.735   2.577  0.00  0.00    -0.262 OA
HETATM   13  N   UNK N   1      28.443  17.563   3.825  0.00  0.00    -0.318 N 
HETATM   14  H   UNK N   1      29.417  17.611   3.697  0.00  0.00     0.169 HD
BRANCH  13  15
HETATM   15  C   UNK N   1      27.904  18.696   4.527  0.00  0.00     0.042 A 
HETATM   16  C   UNK N   1      27.257  19.742   3.859  0.00  0.00     0.030 A 
HETATM   17  C   UNK N   1      26.778  20.860   4.538  0.00  0.00     0.002 A 
HETATM   18  C   UNK N   1      26.964  20.969   5.909  0.00  0.00     0.001 A 
HETATM   19  C   UNK N   1      27.637  19.963   6.598  0.00  0.00     0.010 A 
HETATM   20  C   UNK N   1      28.118  18.818   5.931  0.00  0.00    -0.024 A 
BRANCH  20  21
HETATM   21  C   UNK N   1      28.874  17.754   6.721  0.00  0.00    -0.022 C 
HETATM   22  C   UNK N   1      27.997  16.534   6.925  0.00  0.00     0.019 C 
HETATM   23  C   UNK N   1      30.135  17.344   5.978  0.00  0.00     0.019 C 
HETATM   24  C   UNK N   1      29.311  18.240   8.099  0.00  0.00     0.019 C 
ENDBRANCH  20  21
ENDBRANCH  13  15
ENDBRANCH   8  11
ENDBRANCH   5   7
ENDBRANCH   1   5
BRANCH   3  25
HETATM   25  C   UNK N   1      22.287  16.491   6.112  0.00  0.00     0.166 C 
BRANCH  25  26
HETATM   26  C   UNK N   1      22.264  17.907   5.514  0.00  0.00     0.143 C 
BRANCH  26  27
HETATM   27  C   UNK N   1      23.564  18.408   4.966  0.00  0.00     0.141 C 
HETATM   28  O   UNK N   1      23.585  19.209   4.046  0.00  0.00    -0.650 OA
BRANCH  27  29
HETATM   29  O   UNK N   1      24.719  17.998   5.521  0.00  0.00    -0.776 OA
HETATM   30  H   UNK N   1      25.448  17.771   4.977  0.00  0.00     0.167 HD
ENDBRANCH  27  29
ENDBRANCH  26  27
ENDBRANCH  25  26
BRANCH  25  31
HETATM   31  C   UNK N   1      21.202  15.956   7.041  0.00  0.00     0.173 C 
HETATM   32  O   UNK N   1      21.004  16.556   8.086  0.00  0.00    -0.293 OA
BRANCH  31  33
HETATM   33  C   UNK N   1      20.309  14.778   6.762  0.00  0.00     0.256 C 
BRANCH  33  34
HETATM   34  O   UNK N   1      20.328  13.815   7.737  0.00  0.00    -0.338 OA
BRANCH  34  35
HETATM   35  C   UNK N   1      21.416  13.058   8.037  0.00  0.00     0.152 A 
HETATM   36  C   UNK N   1      21.787  12.052   7.135  0.00  0.00     0.191 A 
HETATM   37  C   UNK N   1      22.911  11.260   7.377  0.00  0.00     0.160 A 
HETATM   38  F   UNK N   1      21.057  11.850   6.011  0.00  0.00    -0.200 F 
HETATM   39  C   UNK N   1      23.672  11.456   8.528  0.00  0.00     0.091 A 
HETATM   40  F   UNK N   1      23.268  10.302   6.488  0.00  0.00    -0.203 F 
HETATM   41  C   UNK N   1      23.314  12.444   9.446  0.00  0.00     0.160 A 
HETATM   42  C   UNK N   1      22.193  13.250   9.212  0.00  0.00     0.191 A 
HETATM   43  F   UNK N   1      24.058  12.619  10.565  0.00  0.00    -0.203 F 
HETATM   44  F   UNK N   1      21.874  14.202  10.126  0.00  0.00    -0.200 F 
ENDBRANCH  34  35
ENDBRANCH  33  34
ENDBRANCH  31  33
ENDBRANCH  25  31
ENDBRANCH   3  25
TORSDOF 13
ENDMDL
