MODEL 1
REMARK VINA RESULT:      -7.4      0.000      0.000
REMARK  5 active torsions:
REMARK  status: ('A' for Active; 'I' for Inactive)
REMARK    1  A    between atoms: N_21  and  C_22 
REMARK    2  A    between atoms: C_22  and  C_23 
REMARK       I    between atoms: C_23  and  N_25 
REMARK    3  A    between atoms: N_25  and  C_26 
REMARK    4  A    between atoms: C_26  and  C_27 
REMARK    5  A    between atoms: C_27  and  N_28 
ROOT
HETATM    1  C   UNK N   1      36.170  10.111  17.888  0.00  0.00     0.049 C 
HETATM    2  C   UNK N   1      36.127  11.164  16.831  0.00  0.00    -0.054 A 
HETATM    3  C   UNK N   1      36.654  10.873  15.567  0.00  0.00     0.039 A 
HETATM    4  C   UNK N   1      36.620  11.832  14.554  0.00  0.00     0.060 A 
HETATM    5  C   UNK N   1      36.038  13.112  14.811  0.00  0.00     0.061 A 
HETATM    6  C   UNK N   1      35.523  13.397  16.076  0.00  0.00     0.039 A 
HETATM    7  C   UNK N   1      35.567  12.433  17.089  0.00  0.00    -0.054 A 
HETATM    8  C   UNK N   1      35.009  12.772  18.431  0.00  0.00     0.049 C 
HETATM    9  N   UNK N   1      35.983  14.050  13.818  0.00  0.00    -0.339 N 
ATOM     10  HN  UNK N   1      35.570  14.965  13.988  1.00  0.00     0.167 HD
HETATM   11  C   UNK N   1      36.494  13.732  12.602  0.00  0.00     0.137 A 
HETATM   12  C   UNK N   1      37.062  12.511  12.366  0.00  0.00     0.090 A 
HETATM   13  N   UNK N   1      37.136  11.551  13.320  0.00  0.00    -0.351 N 
ATOM     14  HN  UNK N   1      37.563  10.646  13.122  1.00  0.00     0.166 HD
HETATM   15  C   UNK N   1      37.488  12.509  11.062  0.00  0.00     0.023 A 
HETATM   16  C   UNK N   1      38.141  11.547  10.301  0.00  0.00     0.040 A 
HETATM   17  C   UNK N   1      38.451  11.872   8.966  0.00  0.00     0.035 A 
HETATM   18  C   UNK N   1      38.102  13.136   8.434  0.00  0.00     0.026 A 
HETATM   19  C   UNK N   1      37.440  14.090   9.228  0.00  0.00     0.032 A 
HETATM   20  C   UNK N   1      37.145  13.746  10.546  0.00  0.00     0.049 A 
HETATM   21  N   UNK N   1      36.530  14.508  11.484  0.00  0.00    -0.322 N 
HETATM   22 Cl   UNK N   1      39.276  10.705   7.958  0.00  0.00    -0.084 Cl
ENDROOT
BRANCH  21  23
HETATM   23  C   UNK N   1      36.053  15.880  11.256  0.00  0.00     0.233 C 
BRANCH  23  24
HETATM   24  C   UNK N   1      34.777  15.938  10.485  0.00  0.00     0.235 C 
HETATM   25  O   UNK N   1      33.944  15.053  10.615  0.00  0.00    -0.272 OA
HETATM   26  N   UNK N   1      34.540  17.014   9.697  0.00  0.00    -0.358 N 
HETATM   27  H   UNK N   1      35.262  17.674   9.582  0.00  0.00     0.162 HD
BRANCH  26  28
HETATM   28  C   UNK N   1      33.288  17.248   9.016  0.00  0.00     0.152 C 
BRANCH  28  29
HETATM   29  C   UNK N   1      33.451  18.128   7.780  0.00  0.00     0.290 C 
BRANCH  29  30
HETATM   30  N   UNK N   1      32.836  17.525   6.603  0.00  0.00     0.081 N 
HETATM   31  C   UNK N   1      31.989  16.448   7.080  0.00  0.00     0.309 C 
HETATM   32  C   UNK N   1      33.872  16.907   5.788  0.00  0.00     0.309 C 
ENDBRANCH  29  30
ENDBRANCH  28  29
ENDBRANCH  26  28
ENDBRANCH  23  24
ENDBRANCH  21  23
TORSDOF 5
ENDMDL
MODEL 2
REMARK VINA RESULT:      -7.4      1.906      7.973
REMARK  5 active torsions:
REMARK  status: ('A' for Active; 'I' for Inactive)
REMARK    1  A    between atoms: N_21  and  C_22 
REMARK    2  A    between atoms: C_22  and  C_23 
REMARK       I    between atoms: C_23  and  N_25 
REMARK    3  A    between atoms: N_25  and  C_26 
REMARK    4  A    between atoms: C_26  and  C_27 
REMARK    5  A    between atoms: C_27  and  N_28 
ROOT
HETATM    1  C   UNK N   1      29.125  17.138   5.612  0.00  0.00     0.049 C 
HETATM    2  C   UNK N   1      30.209  16.948   6.621  0.00  0.00    -0.054 A 
HETATM    3  C   UNK N   1      31.309  16.150   6.286  0.00  0.00     0.039 A 
HETATM    4  C   UNK N   1      32.344  15.959   7.203  0.00  0.00     0.060 A 
HETATM    5  C   UNK N   1      32.278  16.589   8.484  0.00  0.00     0.061 A 
HETATM    6  C   UNK N   1      31.174  17.375   8.813  0.00  0.00     0.039 A 
HETATM    7  C   UNK N   1      30.137  17.556   7.891  0.00  0.00    -0.054 A 
HETATM    8  C   UNK N   1      28.969  18.401   8.277  0.00  0.00     0.049 C 
HETATM    9  N   UNK N   1      33.297  16.424   9.380  0.00  0.00    -0.339 N 
ATOM     10  HN  UNK N   1      33.263  16.869  10.296  1.00  0.00     0.167 HD
HETATM   11  C   UNK N   1      34.354  15.653   9.021  0.00  0.00     0.137 A 
HETATM   12  C   UNK N   1      34.405  15.041   7.798  0.00  0.00     0.090 A 
HETATM   13  N   UNK N   1      33.419  15.179   6.878  0.00  0.00    -0.351 N 
ATOM     14  HN  UNK N   1      33.477  14.715   5.972  1.00  0.00     0.166 HD
HETATM   15  C   UNK N   1      35.579  14.334   7.750  0.00  0.00     0.023 A 
HETATM   16  C   UNK N   1      36.134  13.524   6.766  0.00  0.00     0.040 A 
HETATM   17  C   UNK N   1      37.378  12.924   7.041  0.00  0.00     0.035 A 
HETATM   18  C   UNK N   1      38.028  13.150   8.277  0.00  0.00     0.026 A 
HETATM   19  C   UNK N   1      37.443  13.976   9.254  0.00  0.00     0.032 A 
HETATM   20  C   UNK N   1      36.210  14.558   8.959  0.00  0.00     0.049 A 
HETATM   21  N   UNK N   1      35.467  15.370   9.751  0.00  0.00    -0.322 N 
HETATM   22 Cl   UNK N   1      38.126  11.889   5.846  0.00  0.00    -0.084 Cl
ENDROOT
BRANCH  21  23
HETATM   23  C   UNK N   1      35.854  15.790  11.106  0.00  0.00     0.233 C 
BRANCH  23  24
HETATM   24  C   UNK N   1      35.609  14.742  12.139  0.00  0.00     0.235 C 
HETATM   25  O   UNK N   1      34.535  14.161  12.176  0.00  0.00    -0.272 OA
HETATM   26  N   UNK N   1      36.615  14.411  12.983  0.00  0.00    -0.358 N 
HETATM   27  H   UNK N   1      37.443  14.943  12.951  0.00  0.00     0.162 HD
BRANCH  26  28
HETATM   28  C   UNK N   1      36.543  13.320  13.927  0.00  0.00     0.152 C 
BRANCH  28  29
HETATM   29  C   UNK N   1      36.183  13.788  15.334  0.00  0.00     0.290 C 
BRANCH  29  30
HETATM   30  N   UNK N   1      34.965  13.150  15.820  0.00  0.00     0.081 N 
HETATM   31  C   UNK N   1      35.286  12.559  17.105  0.00  0.00     0.309 C 
HETATM   32  C   UNK N   1      34.617  12.049  14.933  0.00  0.00     0.309 C 
ENDBRANCH  29  30
ENDBRANCH  28  29
ENDBRANCH  26  28
ENDBRANCH  23  24
ENDBRANCH  21  23
TORSDOF 5
ENDMDL
MODEL 3
REMARK VINA RESULT:      -7.3      9.936     14.249
REMARK  5 active torsions:
REMARK  status: ('A' for Active; 'I' for Inactive)
REMARK    1  A    between atoms: N_21  and  C_22 
REMARK    2  A    between atoms: C_22  and  C_23 
REMARK       I    between atoms: C_23  and  N_25 
REMARK    3  A    between atoms: N_25  and  C_26 
REMARK    4  A    between atoms: C_26  and  C_27 
REMARK    5  A    between atoms: C_27  and  N_28 
ROOT
HETATM    1  C   UNK N   1      20.312  12.750  10.908  0.00  0.00     0.049 C 
HETATM    2  C   UNK N   1      21.281  13.220   9.875  0.00  0.00    -0.054 A 
HETATM    3  C   UNK N   1      20.928  14.305   9.063  0.00  0.00     0.039 A 
HETATM    4  C   UNK N   1      21.816  14.775   8.094  0.00  0.00     0.060 A 
HETATM    5  C   UNK N   1      23.090  14.148   7.939  0.00  0.00     0.061 A 
HETATM    6  C   UNK N   1      23.431  13.062   8.746  0.00  0.00     0.039 A 
HETATM    7  C   UNK N   1      22.533  12.591   9.711  0.00  0.00    -0.054 A 
HETATM    8  C   UNK N   1      22.928  11.426  10.555  0.00  0.00     0.049 C 
HETATM    9  N   UNK N   1      23.973  14.615   7.006  0.00  0.00    -0.339 N 
ATOM     10  HN  UNK N   1      24.886  14.178   6.886  1.00  0.00     0.167 HD
HETATM   11  C   UNK N   1      23.604  15.675   6.243  0.00  0.00     0.137 A 
HETATM   12  C   UNK N   1      22.377  16.262   6.386  0.00  0.00     0.090 A 
HETATM   13  N   UNK N   1      21.472  15.833   7.299  0.00  0.00    -0.351 N 
ATOM     14  HN  UNK N   1      20.563  16.286   7.390  1.00  0.00     0.166 HD
HETATM   15  C   UNK N   1      22.309  17.281   5.472  0.00  0.00     0.023 A 
HETATM   16  C   UNK N   1      21.302  18.190   5.168  0.00  0.00     0.040 A 
HETATM   17  C   UNK N   1      21.552  19.124   4.145  0.00  0.00     0.035 A 
HETATM   18  C   UNK N   1      22.791  19.128   3.462  0.00  0.00     0.026 A 
HETATM   19  C   UNK N   1      23.794  18.197   3.791  0.00  0.00     0.032 A 
HETATM   20  C   UNK N   1      23.521  17.280   4.806  0.00  0.00     0.049 A 
HETATM   21  N   UNK N   1      24.329  16.297   5.273  0.00  0.00    -0.322 N 
HETATM   22 Cl   UNK N   1      20.323  20.291   3.715  0.00  0.00    -0.084 Cl
ENDROOT
BRANCH  21  23
HETATM   23  C   UNK N   1      25.682  16.023   4.766  0.00  0.00     0.233 C 
BRANCH  23  24
HETATM   24  C   UNK N   1      26.760  16.481   5.689  0.00  0.00     0.235 C 
HETATM   25  O   UNK N   1      27.033  15.824   6.683  0.00  0.00    -0.272 OA
HETATM   26  N   UNK N   1      27.463  17.594   5.369  0.00  0.00    -0.358 N 
HETATM   27  H   UNK N   1      27.172  18.119   4.589  0.00  0.00     0.162 HD
BRANCH  26  28
HETATM   28  C   UNK N   1      28.616  18.053   6.108  0.00  0.00     0.152 C 
BRANCH  28  29
HETATM   29  C   UNK N   1      28.237  18.938   7.293  0.00  0.00     0.290 C 
BRANCH  29  30
HETATM   30  N   UNK N   1      28.973  18.573   8.496  0.00  0.00     0.081 N 
HETATM   31  C   UNK N   1      30.060  17.709   8.076  0.00  0.00     0.309 C 
HETATM   32  C   UNK N   1      28.114  17.770   9.356  0.00  0.00     0.309 C 
ENDBRANCH  29  30
ENDBRANCH  28  29
ENDBRANCH  26  28
ENDBRANCH  23  24
ENDBRANCH  21  23
TORSDOF 5
ENDMDL
MODEL 4
REMARK VINA RESULT:      -7.1      2.832      3.380
REMARK  5 active torsions:
REMARK  status: ('A' for Active; 'I' for Inactive)
REMARK    1  A    between atoms: N_21  and  C_22 
REMARK    2  A    between atoms: C_22  and  C_23 
REMARK       I    between atoms: C_23  and  N_25 
REMARK    3  A    between atoms: N_25  and  C_26 
REMARK    4  A    between atoms: C_26  and  C_27 
REMARK    5  A    between atoms: C_27  and  N_28 
ROOT
HETATM    1  C   UNK N   1      35.253  13.717  18.405  0.00  0.00     0.049 C 
HETATM    2  C   UNK N   1      35.582  13.706  16.949  0.00  0.00    -0.054 A 
HETATM    3  C   UNK N   1      34.953  12.766  16.123  0.00  0.00     0.039 A 
HETATM    4  C   UNK N   1      35.231  12.735  14.756  0.00  0.00     0.060 A 
HETATM    5  C   UNK N   1      36.157  13.672  14.201  0.00  0.00     0.061 A 
HETATM    6  C   UNK N   1      36.787  14.598  15.032  0.00  0.00     0.039 A 
HETATM    7  C   UNK N   1      36.508  14.620  16.404  0.00  0.00    -0.054 A 
HETATM    8  C   UNK N   1      37.201  15.622  17.264  0.00  0.00     0.049 C 
HETATM    9  N   UNK N   1      36.420  13.660  12.860  0.00  0.00    -0.339 N 
ATOM     10  HN  UNK N   1      37.077  14.324  12.451  1.00  0.00     0.167 HD
HETATM   11  C   UNK N   1      35.786  12.744  12.086  0.00  0.00     0.137 A 
HETATM   12  C   UNK N   1      34.911  11.841  12.625  0.00  0.00     0.090 A 
HETATM   13  N   UNK N   1      34.619  11.817  13.948  0.00  0.00    -0.351 N 
ATOM     14  HN  UNK N   1      33.963  11.136  14.329  1.00  0.00     0.166 HD
HETATM   15  C   UNK N   1      34.457  11.057  11.596  0.00  0.00     0.023 A 
HETATM   16  C   UNK N   1      33.574   9.983  11.567  0.00  0.00     0.040 A 
HETATM   17  C   UNK N   1      33.324   9.378  10.321  0.00  0.00     0.035 A 
HETATM   18  C   UNK N   1      33.953   9.859   9.148  0.00  0.00     0.026 A 
HETATM   19  C   UNK N   1      34.841  10.948   9.207  0.00  0.00     0.032 A 
HETATM   20  C   UNK N   1      35.075  11.529  10.452  0.00  0.00     0.049 A 
HETATM   21  N   UNK N   1      35.895  12.570  10.741  0.00  0.00    -0.322 N 
HETATM   22 Cl   UNK N   1      32.226   8.020  10.220  0.00  0.00    -0.084 Cl
ENDROOT
BRANCH  21  23
HETATM   23  C   UNK N   1      36.706  13.288   9.746  0.00  0.00     0.233 C 
BRANCH  23  24
HETATM   24  C   UNK N   1      36.059  14.538   9.251  0.00  0.00     0.235 C 
HETATM   25  O   UNK N   1      36.166  15.575   9.890  0.00  0.00    -0.272 OA
HETATM   26  N   UNK N   1      35.413  14.512   8.061  0.00  0.00    -0.358 N 
HETATM   27  H   UNK N   1      35.306  13.643   7.610  0.00  0.00     0.162 HD
BRANCH  26  28
HETATM   28  C   UNK N   1      34.873  15.686   7.417  0.00  0.00     0.152 C 
BRANCH  28  29
HETATM   29  C   UNK N   1      33.393  15.535   7.074  0.00  0.00     0.290 C 
BRANCH  29  30
HETATM   30  N   UNK N   1      32.548  16.298   7.985  0.00  0.00     0.081 N 
HETATM   31  C   UNK N   1      33.332  17.435   8.430  0.00  0.00     0.309 C 
HETATM   32  C   UNK N   1      32.275  15.495   9.168  0.00  0.00     0.309 C 
ENDBRANCH  29  30
ENDBRANCH  28  29
ENDBRANCH  26  28
ENDBRANCH  23  24
ENDBRANCH  21  23
TORSDOF 5
ENDMDL
MODEL 5
REMARK VINA RESULT:      -7.1     13.565     16.796
REMARK  5 active torsions:
REMARK  status: ('A' for Active; 'I' for Inactive)
REMARK    1  A    between atoms: N_21  and  C_22 
REMARK    2  A    between atoms: C_22  and  C_23 
REMARK       I    between atoms: C_23  and  N_25 
REMARK    3  A    between atoms: N_25  and  C_26 
REMARK    4  A    between atoms: C_26  and  C_27 
REMARK    5  A    between atoms: C_27  and  N_28 
ROOT
HETATM    1  C   UNK N   1      38.064  25.595  -2.761  0.00  0.00     0.049 C 
HETATM    2  C   UNK N   1      38.921  25.218  -1.599  0.00  0.00    -0.054 A 
HETATM    3  C   UNK N   1      39.275  23.874  -1.430  0.00  0.00     0.039 A 
HETATM    4  C   UNK N   1      40.083  23.489  -0.359  0.00  0.00     0.060 A 
HETATM    5  C   UNK N   1      40.553  24.476   0.562  0.00  0.00     0.061 A 
HETATM    6  C   UNK N   1      40.188  25.811   0.392  0.00  0.00     0.039 A 
HETATM    7  C   UNK N   1      39.372  26.189  -0.680  0.00  0.00    -0.054 A 
HETATM    8  C   UNK N   1      38.999  27.626  -0.830  0.00  0.00     0.049 C 
HETATM    9  N   UNK N   1      41.361  24.110   1.602  0.00  0.00    -0.339 N 
ATOM     10  HN  UNK N   1      41.704  24.803   2.265  1.00  0.00     0.167 HD
HETATM   11  C   UNK N   1      41.694  22.801   1.731  0.00  0.00     0.137 A 
HETATM   12  C   UNK N   1      41.229  21.859   0.854  0.00  0.00     0.090 A 
HETATM   13  N   UNK N   1      40.428  22.177  -0.192  0.00  0.00    -0.351 N 
ATOM     14  HN  UNK N   1      40.094  21.459  -0.834  1.00  0.00     0.166 HD
HETATM   15  C   UNK N   1      41.729  20.649   1.261  0.00  0.00     0.023 A 
HETATM   16  C   UNK N   1      41.571  19.363   0.757  0.00  0.00     0.040 A 
HETATM   17  C   UNK N   1      42.226  18.314   1.430  0.00  0.00     0.035 A 
HETATM   18  C   UNK N   1      43.015  18.575   2.574  0.00  0.00     0.026 A 
HETATM   19  C   UNK N   1      43.158  19.887   3.062  0.00  0.00     0.032 A 
HETATM   20  C   UNK N   1      42.498  20.908   2.380  0.00  0.00     0.049 A 
HETATM   21  N   UNK N   1      42.487  22.231   2.679  0.00  0.00    -0.322 N 
HETATM   22 Cl   UNK N   1      42.062  16.673   0.846  0.00  0.00    -0.084 Cl
ENDROOT
BRANCH  21  23
HETATM   23  C   UNK N   1      43.198  22.831   3.818  0.00  0.00     0.233 C 
BRANCH  23  24
HETATM   24  C   UNK N   1      44.563  23.320   3.468  0.00  0.00     0.235 C 
HETATM   25  O   UNK N   1      45.540  22.629   3.713  0.00  0.00    -0.272 OA
HETATM   26  N   UNK N   1      44.686  24.505   2.824  0.00  0.00    -0.358 N 
HETATM   27  H   UNK N   1      43.877  25.052   2.697  0.00  0.00     0.162 HD
BRANCH  26  28
HETATM   28  C   UNK N   1      45.938  25.013   2.313  0.00  0.00     0.152 C 
BRANCH  28  29
HETATM   29  C   UNK N   1      45.911  25.217   0.800  0.00  0.00     0.290 C 
BRANCH  29  30
HETATM   30  N   UNK N   1      44.704  25.913   0.371  0.00  0.00     0.081 N 
HETATM   31  C   UNK N   1      44.072  25.076  -0.631  0.00  0.00     0.309 C 
HETATM   32  C   UNK N   1      45.079  27.151  -0.298  0.00  0.00     0.309 C 
ENDBRANCH  29  30
ENDBRANCH  28  29
ENDBRANCH  26  28
ENDBRANCH  23  24
ENDBRANCH  21  23
TORSDOF 5
ENDMDL
MODEL 6
REMARK VINA RESULT:      -6.8      3.155      5.957
REMARK  5 active torsions:
REMARK  status: ('A' for Active; 'I' for Inactive)
REMARK    1  A    between atoms: N_21  and  C_22 
REMARK    2  A    between atoms: C_22  and  C_23 
REMARK       I    between atoms: C_23  and  N_25 
REMARK    3  A    between atoms: N_25  and  C_26 
REMARK    4  A    between atoms: C_26  and  C_27 
REMARK    5  A    between atoms: C_27  and  N_28 
ROOT
HETATM    1  C   UNK N   1      38.719   6.325  11.478  0.00  0.00     0.049 C 
HETATM    2  C   UNK N   1      38.342   7.726  11.824  0.00  0.00    -0.054 A 
HETATM    3  C   UNK N   1      37.841   7.994  13.104  0.00  0.00     0.039 A 
HETATM    4  C   UNK N   1      37.488   9.296  13.463  0.00  0.00     0.060 A 
HETATM    5  C   UNK N   1      37.646  10.356  12.518  0.00  0.00     0.061 A 
HETATM    6  C   UNK N   1      38.137  10.080  11.242  0.00  0.00     0.039 A 
HETATM    7  C   UNK N   1      38.483   8.772  10.887  0.00  0.00    -0.054 A 
HETATM    8  C   UNK N   1      39.003   8.511   9.513  0.00  0.00     0.049 C 
HETATM    9  N   UNK N   1      37.321  11.637  12.869  0.00  0.00    -0.339 N 
ATOM     10  HN  UNK N   1      37.431  12.403  12.205  1.00  0.00     0.167 HD
HETATM   11  C   UNK N   1      36.849  11.864  14.120  0.00  0.00     0.137 A 
HETATM   12  C   UNK N   1      36.686  10.842  15.015  0.00  0.00     0.090 A 
HETATM   13  N   UNK N   1      36.997   9.558  14.711  0.00  0.00    -0.351 N 
ATOM     14  HN  UNK N   1      36.869   8.811  15.394  1.00  0.00     0.166 HD
HETATM   15  C   UNK N   1      36.185  11.391  16.167  0.00  0.00     0.023 A 
HETATM   16  C   UNK N   1      35.820  10.824  17.382  0.00  0.00     0.040 A 
HETATM   17  C   UNK N   1      35.320  11.684  18.379  0.00  0.00     0.035 A 
HETATM   18  C   UNK N   1      35.204  13.074  18.138  0.00  0.00     0.026 A 
HETATM   19  C   UNK N   1      35.583  13.620  16.898  0.00  0.00     0.032 A 
HETATM   20  C   UNK N   1      36.072  12.748  15.927  0.00  0.00     0.049 A 
HETATM   21  N   UNK N   1      36.480  13.053  14.670  0.00  0.00    -0.322 N 
HETATM   22 Cl   UNK N   1      34.840  11.031  19.928  0.00  0.00    -0.084 Cl
ENDROOT
BRANCH  21  23
HETATM   23  C   UNK N   1      36.473  14.408  14.100  0.00  0.00     0.233 C 
BRANCH  23  24
HETATM   24  C   UNK N   1      35.842  14.477  12.750  0.00  0.00     0.235 C 
HETATM   25  O   UNK N   1      34.761  13.942  12.554  0.00  0.00    -0.272 OA
HETATM   26  N   UNK N   1      36.458  15.189  11.778  0.00  0.00    -0.358 N 
HETATM   27  H   UNK N   1      37.353  15.556  11.966  0.00  0.00     0.162 HD
BRANCH  26  28
HETATM   28  C   UNK N   1      35.877  15.443  10.480  0.00  0.00     0.152 C 
BRANCH  28  29
HETATM   29  C   UNK N   1      35.091  16.751  10.437  0.00  0.00     0.290 C 
BRANCH  29  30
HETATM   30  N   UNK N   1      34.111  16.756   9.358  0.00  0.00     0.081 N 
HETATM   31  C   UNK N   1      34.131  15.431   8.768  0.00  0.00     0.309 C 
HETATM   32  C   UNK N   1      34.547  17.679   8.320  0.00  0.00     0.309 C 
ENDBRANCH  29  30
ENDBRANCH  28  29
ENDBRANCH  26  28
ENDBRANCH  23  24
ENDBRANCH  21  23
TORSDOF 5
ENDMDL
MODEL 7
REMARK VINA RESULT:      -6.8      4.049      5.870
REMARK  5 active torsions:
REMARK  status: ('A' for Active; 'I' for Inactive)
REMARK    1  A    between atoms: N_21  and  C_22 
REMARK    2  A    between atoms: C_22  and  C_23 
REMARK       I    between atoms: C_23  and  N_25 
REMARK    3  A    between atoms: N_25  and  C_26 
REMARK    4  A    between atoms: C_26  and  C_27 
REMARK    5  A    between atoms: C_27  and  N_28 
ROOT
HETATM    1  C   UNK N   1      31.417   7.352   9.081  0.00  0.00     0.049 C 
HETATM    2  C   UNK N   1      32.348   8.502   9.273  0.00  0.00    -0.054 A 
HETATM    3  C   UNK N   1      32.601   8.955  10.573  0.00  0.00     0.039 A 
HETATM    4  C   UNK N   1      33.474  10.023  10.787  0.00  0.00     0.060 A 
HETATM    5  C   UNK N   1      34.114  10.648   9.673  0.00  0.00     0.061 A 
HETATM    6  C   UNK N   1      33.849  10.196   8.380  0.00  0.00     0.039 A 
HETATM    7  C   UNK N   1      32.968   9.130   8.172  0.00  0.00    -0.054 A 
HETATM    8  C   UNK N   1      32.705   8.674   6.775  0.00  0.00     0.049 C 
HETATM    9  N   UNK N   1      34.986  11.680   9.876  0.00  0.00    -0.339 N 
ATOM     10  HN  UNK N   1      35.450  12.134   9.090  1.00  0.00     0.167 HD
HETATM   11  C   UNK N   1      35.217  12.089  11.149  0.00  0.00     0.137 A 
HETATM   12  C   UNK N   1      34.591  11.496  12.211  0.00  0.00     0.090 A 
HETATM   13  N   UNK N   1      33.721  10.468  12.056  0.00  0.00    -0.351 N 
ATOM     14  HN  UNK N   1      33.266  10.039  12.862  1.00  0.00     0.166 HD
HETATM   15  C   UNK N   1      35.023  12.138  13.343  0.00  0.00     0.023 A 
HETATM   16  C   UNK N   1      34.707  11.964  14.686  0.00  0.00     0.040 A 
HETATM   17  C   UNK N   1      35.333  12.813  15.618  0.00  0.00     0.035 A 
HETATM   18  C   UNK N   1      36.250  13.801  15.188  0.00  0.00     0.026 A 
HETATM   19  C   UNK N   1      36.551  13.954  13.823  0.00  0.00     0.032 A 
HETATM   20  C   UNK N   1      35.917  13.103  12.919  0.00  0.00     0.049 A 
HETATM   21  N   UNK N   1      36.048  13.081  11.569  0.00  0.00    -0.322 N 
HETATM   22 Cl   UNK N   1      34.975  12.647  17.322  0.00  0.00    -0.084 Cl
ENDROOT
BRANCH  21  23
HETATM   23  C   UNK N   1      36.915  13.990  10.805  0.00  0.00     0.233 C 
BRANCH  23  24
HETATM   24  C   UNK N   1      36.240  15.265  10.423  0.00  0.00     0.235 C 
HETATM   25  O   UNK N   1      36.699  16.334  10.797  0.00  0.00    -0.272 OA
HETATM   26  N   UNK N   1      35.158  15.212   9.610  0.00  0.00    -0.358 N 
HETATM   27  H   UNK N   1      34.793  14.327   9.380  0.00  0.00     0.162 HD
BRANCH  26  28
HETATM   28  C   UNK N   1      34.509  16.380   9.063  0.00  0.00     0.152 C 
BRANCH  28  29
HETATM   29  C   UNK N   1      33.017  16.163   8.824  0.00  0.00     0.290 C 
BRANCH  29  30
HETATM   30  N   UNK N   1      32.366  17.373   8.339  0.00  0.00     0.081 N 
HETATM   31  C   UNK N   1      31.653  17.010   7.130  0.00  0.00     0.309 C 
HETATM   32  C   UNK N   1      33.384  18.338   7.946  0.00  0.00     0.309 C 
ENDBRANCH  29  30
ENDBRANCH  28  29
ENDBRANCH  26  28
ENDBRANCH  23  24
ENDBRANCH  21  23
TORSDOF 5
ENDMDL
MODEL 8
REMARK VINA RESULT:      -6.7     14.499     16.477
REMARK  5 active torsions:
REMARK  status: ('A' for Active; 'I' for Inactive)
REMARK    1  A    between atoms: N_21  and  C_22 
REMARK    2  A    between atoms: C_22  and  C_23 
REMARK       I    between atoms: C_23  and  N_25 
REMARK    3  A    between atoms: N_25  and  C_26 
REMARK    4  A    between atoms: C_26  and  C_27 
REMARK    5  A    between atoms: C_27  and  N_28 
ROOT
HETATM    1  C   UNK N   1      25.124  10.851   1.079  0.00  0.00     0.049 C 
HETATM    2  C   UNK N   1      24.217  11.743   1.860  0.00  0.00    -0.054 A 
HETATM    3  C   UNK N   1      24.134  11.572   3.247  0.00  0.00     0.039 A 
HETATM    4  C   UNK N   1      23.303  12.396   4.008  0.00  0.00     0.060 A 
HETATM    5  C   UNK N   1      22.541  13.420   3.364  0.00  0.00     0.061 A 
HETATM    6  C   UNK N   1      22.623  13.577   1.980  0.00  0.00     0.039 A 
HETATM    7  C   UNK N   1      23.454  12.743   1.223  0.00  0.00    -0.054 A 
HETATM    8  C   UNK N   1      23.515  12.938  -0.255  0.00  0.00     0.049 C 
HETATM    9  N   UNK N   1      21.741  14.244   4.104  0.00  0.00    -0.339 N 
ATOM     10  HN  UNK N   1      21.194  14.979   3.658  1.00  0.00     0.167 HD
HETATM   11  C   UNK N   1      21.690  14.059   5.447  0.00  0.00     0.137 A 
HETATM   12  C   UNK N   1      22.410  13.067   6.057  0.00  0.00     0.090 A 
HETATM   13  N   UNK N   1      23.218  12.230   5.362  0.00  0.00    -0.351 N 
ATOM     14  HN  UNK N   1      23.748  11.498   5.836  1.00  0.00     0.166 HD
HETATM   15  C   UNK N   1      22.135  13.135   7.398  0.00  0.00     0.023 A 
HETATM   16  C   UNK N   1      22.571  12.371   8.474  0.00  0.00     0.040 A 
HETATM   17  C   UNK N   1      22.080  12.704   9.751  0.00  0.00     0.035 A 
HETATM   18  C   UNK N   1      21.178  13.782   9.917  0.00  0.00     0.026 A 
HETATM   19  C   UNK N   1      20.754  14.539   8.809  0.00  0.00     0.032 A 
HETATM   20  C   UNK N   1      21.253  14.189   7.555  0.00  0.00     0.049 A 
HETATM   21  N   UNK N   1      20.973  14.767   6.361  0.00  0.00    -0.322 N 
HETATM   22 Cl   UNK N   1      22.587  11.777  11.145  0.00  0.00    -0.084 Cl
ENDROOT
BRANCH  21  23
HETATM   23  C   UNK N   1      20.060  15.906   6.185  0.00  0.00     0.233 C 
BRANCH  23  24
HETATM   24  C   UNK N   1      20.767  17.190   5.905  0.00  0.00     0.235 C 
HETATM   25  O   UNK N   1      21.365  17.765   6.802  0.00  0.00    -0.272 OA
HETATM   26  N   UNK N   1      20.782  17.663   4.636  0.00  0.00    -0.358 N 
HETATM   27  H   UNK N   1      20.241  17.195   3.959  0.00  0.00     0.162 HD
BRANCH  26  28
HETATM   28  C   UNK N   1      21.548  18.815   4.220  0.00  0.00     0.152 C 
BRANCH  28  29
HETATM   29  C   UNK N   1      20.667  19.933   3.669  0.00  0.00     0.290 C 
BRANCH  29  30
HETATM   30  N   UNK N   1      21.367  20.726   2.666  0.00  0.00     0.081 N 
HETATM   31  C   UNK N   1      20.952  20.223   1.370  0.00  0.00     0.309 C 
HETATM   32  C   UNK N   1      22.798  20.473   2.770  0.00  0.00     0.309 C 
ENDBRANCH  29  30
ENDBRANCH  28  29
ENDBRANCH  26  28
ENDBRANCH  23  24
ENDBRANCH  21  23
TORSDOF 5
ENDMDL
MODEL 9
REMARK VINA RESULT:      -6.6     18.445     22.330
REMARK  5 active torsions:
REMARK  status: ('A' for Active; 'I' for Inactive)
REMARK    1  A    between atoms: N_21  and  C_22 
REMARK    2  A    between atoms: C_22  and  C_23 
REMARK       I    between atoms: C_23  and  N_25 
REMARK    3  A    between atoms: N_25  and  C_26 
REMARK    4  A    between atoms: C_26  and  C_27 
REMARK    5  A    between atoms: C_27  and  N_28 
ROOT
HETATM    1  C   UNK N   1      32.737  21.373  -2.937  0.00  0.00     0.049 C 
HETATM    2  C   UNK N   1      31.577  21.985  -3.648  0.00  0.00    -0.054 A 
HETATM    3  C   UNK N   1      31.180  23.282  -3.300  0.00  0.00     0.039 A 
HETATM    4  C   UNK N   1      30.104  23.886  -3.953  0.00  0.00     0.060 A 
HETATM    5  C   UNK N   1      29.413  23.177  -4.983  0.00  0.00     0.061 A 
HETATM    6  C   UNK N   1      29.809  21.882  -5.318  0.00  0.00     0.039 A 
HETATM    7  C   UNK N   1      30.884  21.280  -4.655  0.00  0.00    -0.054 A 
HETATM    8  C   UNK N   1      31.279  19.892  -5.036  0.00  0.00     0.049 C 
HETATM    9  N   UNK N   1      28.372  23.771  -5.641  0.00  0.00    -0.339 N 
ATOM     10  HN  UNK N   1      27.872  23.277  -6.378  1.00  0.00     0.167 HD
HETATM   11  C   UNK N   1      28.019  25.032  -5.286  0.00  0.00     0.137 A 
HETATM   12  C   UNK N   1      28.675  25.700  -4.289  0.00  0.00     0.090 A 
HETATM   13  N   UNK N   1      29.714  25.152  -3.613  0.00  0.00    -0.351 N 
ATOM     14  HN  UNK N   1      30.190  25.668  -2.873  1.00  0.00     0.166 HD
HETATM   15  C   UNK N   1      28.078  26.928  -4.166  0.00  0.00     0.023 A 
HETATM   16  C   UNK N   1      28.322  27.997  -3.312  0.00  0.00     0.040 A 
HETATM   17  C   UNK N   1      27.504  29.136  -3.442  0.00  0.00     0.035 A 
HETATM   18  C   UNK N   1      26.477  29.176  -4.414  0.00  0.00     0.026 A 
HETATM   19  C   UNK N   1      26.253  28.079  -5.266  0.00  0.00     0.032 A 
HETATM   20  C   UNK N   1      27.075  26.963  -5.117  0.00  0.00     0.049 A 
HETATM   21  N   UNK N   1      27.029  25.801  -5.815  0.00  0.00    -0.322 N 
HETATM   22 Cl   UNK N   1      27.759  30.512  -2.394  0.00  0.00    -0.084 Cl
ENDROOT
BRANCH  21  23
HETATM   23  C   UNK N   1      26.066  25.515  -6.889  0.00  0.00     0.233 C 
BRANCH  23  24
HETATM   24  C   UNK N   1      25.621  24.091  -6.916  0.00  0.00     0.235 C 
HETATM   25  O   UNK N   1      25.189  23.567  -5.900  0.00  0.00    -0.272 OA
HETATM   26  N   UNK N   1      25.648  23.422  -8.093  0.00  0.00    -0.358 N 
HETATM   27  H   UNK N   1      26.055  23.867  -8.872  0.00  0.00     0.162 HD
BRANCH  26  28
HETATM   28  C   UNK N   1      25.113  22.092  -8.271  0.00  0.00     0.152 C 
BRANCH  28  29
HETATM   29  C   UNK N   1      25.927  21.263  -9.262  0.00  0.00     0.290 C 
BRANCH  29  30
HETATM   30  N   UNK N   1      27.356  21.516  -9.130  0.00  0.00     0.081 N 
HETATM   31  C   UNK N   1      27.953  21.227 -10.421  0.00  0.00     0.309 C 
HETATM   32  C   UNK N   1      27.924  20.562  -8.188  0.00  0.00     0.309 C 
ENDBRANCH  29  30
ENDBRANCH  28  29
ENDBRANCH  26  28
ENDBRANCH  23  24
ENDBRANCH  21  23
TORSDOF 5
ENDMDL
