MODEL 1
REMARK VINA RESULT:      -7.5      0.000      0.000
REMARK  3 active torsions:
REMARK  status: ('A' for Active; 'I' for Inactive)
REMARK    1  A    between atoms: S_1  and  O_3 
REMARK    2  A    between atoms: S_1  and  O_4 
REMARK    3  A    between atoms: C_25  and  O_3 
ROOT
HETATM    1  O   UNK N   1      34.504  20.013  -3.574  0.00  0.00    -0.297 OA
HETATM    2  C   UNK N   1      29.971  22.494  -4.298  0.00  0.00     0.003 C 
HETATM    3  C   UNK N   1      30.641  22.071  -5.632  0.00  0.00    -0.001 C 
HETATM    4  C   UNK N   1      31.638  20.946  -5.305  0.00  0.00     0.006 C 
HETATM    5  C   UNK N   1      32.717  21.406  -4.321  0.00  0.00     0.021 C 
HETATM    6  C   UNK N   1      28.947  23.634  -4.522  0.00  0.00    -0.017 C 
HETATM    7  C   UNK N   1      31.015  22.854  -3.208  0.00  0.00     0.007 C 
HETATM    8  C   UNK N   1      32.035  21.723  -2.991  0.00  0.00     0.018 C 
HETATM    9  C   UNK N   1      32.413  20.251  -6.417  0.00  0.00     0.013 C 
HETATM   10  C   UNK N   1      29.558  21.551  -6.587  0.00  0.00     0.033 C 
HETATM   11  C   UNK N   1      28.014  23.330  -5.694  0.00  0.00    -0.072 C 
HETATM   12  C   UNK N   1      28.151  23.799  -3.210  0.00  0.00     0.016 C 
HETATM   13  C   UNK N   1      33.604  20.217  -4.373  0.00  0.00     0.135 C 
HETATM   14  C   UNK N   1      33.437  19.416  -5.626  0.00  0.00     0.079 C 
HETATM   15  C   UNK N   1      28.303  22.389  -6.610  0.00  0.00    -0.023 C 
HETATM   16  C   UNK N   1      33.528  22.612  -4.802  0.00  0.00     0.024 C 
HETATM   17  C   UNK N   1      29.667  24.945  -4.836  0.00  0.00     0.020 C 
HETATM   18  C   UNK N   1      26.720  24.097  -5.854  0.00  0.00     0.068 C 
HETATM   19  C   UNK N   1      26.689  24.245  -3.352  0.00  0.00     0.035 C 
HETATM   20  C   UNK N   1      26.400  24.993  -4.653  0.00  0.00     0.148 C 
ENDROOT
BRANCH  20  21
HETATM   21  O   UNK N   1      27.121  26.190  -4.715  0.00  0.00    -0.258 OA
BRANCH  21  22
HETATM   22  S   UNK N   1      25.967  27.460  -4.567  0.00  0.00     0.240 S 
HETATM   23  O   UNK N   1      24.741  27.179  -5.448  0.00  0.00    -0.579 OA
HETATM   24  O   UNK N   1      26.583  28.729  -5.173  0.00  0.00    -0.579 OA
BRANCH  22  25
HETATM   25  O   UNK N   1      25.470  27.837  -2.965  0.00  0.00    -0.274 OA
HETATM   26  H   UNK N   1      25.473  27.491  -2.058  0.00  0.00     0.234 HD
ENDBRANCH  22  25
ENDBRANCH  21  22
ENDBRANCH  20  21
TORSDOF 3
ENDMDL
MODEL 2
REMARK VINA RESULT:      -7.5     12.011     15.055
REMARK  3 active torsions:
REMARK  status: ('A' for Active; 'I' for Inactive)
REMARK    1  A    between atoms: S_1  and  O_3 
REMARK    2  A    between atoms: S_1  and  O_4 
REMARK    3  A    between atoms: C_25  and  O_3 
ROOT
HETATM    1  O   UNK N   1      25.171  17.054   5.307  0.00  0.00    -0.297 OA
HETATM    2  C   UNK N   1      30.237  17.338   6.520  0.00  0.00     0.003 C 
HETATM    3  C   UNK N   1      29.994  16.771   5.097  0.00  0.00    -0.001 C 
HETATM    4  C   UNK N   1      28.583  17.208   4.666  0.00  0.00     0.006 C 
HETATM    5  C   UNK N   1      27.506  16.674   5.614  0.00  0.00     0.021 C 
HETATM    6  C   UNK N   1      31.639  16.945   7.048  0.00  0.00    -0.017 C 
HETATM    7  C   UNK N   1      29.110  16.939   7.509  0.00  0.00     0.007 C 
HETATM    8  C   UNK N   1      27.717  17.326   6.980  0.00  0.00     0.018 C 
HETATM    9  C   UNK N   1      28.061  16.875   3.276  0.00  0.00     0.013 C 
HETATM   10  C   UNK N   1      31.040  17.364   4.142  0.00  0.00     0.033 C 
HETATM   11  C   UNK N   1      32.727  17.211   6.007  0.00  0.00    -0.072 C 
HETATM   12  C   UNK N   1      31.892  17.764   8.332  0.00  0.00     0.016 C 
HETATM   13  C   UNK N   1      26.300  17.068   4.844  0.00  0.00     0.135 C 
HETATM   14  C   UNK N   1      26.574  17.264   3.386  0.00  0.00     0.079 C 
HETATM   15  C   UNK N   1      32.439  17.399   4.707  0.00  0.00    -0.023 C 
HETATM   16  C   UNK N   1      27.492  15.149   5.750  0.00  0.00     0.024 C 
HETATM   17  C   UNK N   1      31.684  15.456   7.390  0.00  0.00     0.020 C 
HETATM   18  C   UNK N   1      34.180  17.266   6.423  0.00  0.00     0.068 C 
HETATM   19  C   UNK N   1      33.348  18.157   8.614  0.00  0.00     0.035 C 
HETATM   20  C   UNK N   1      34.372  17.240   7.943  0.00  0.00     0.148 C 
ENDROOT
BRANCH  20  21
HETATM   21  O   UNK N   1      34.276  15.934   8.438  0.00  0.00    -0.258 OA
BRANCH  21  22
HETATM   22  S   UNK N   1      35.027  15.947   9.988  0.00  0.00     0.240 S 
HETATM   23  O   UNK N   1      35.664  17.316  10.265  0.00  0.00    -0.579 OA
HETATM   24  O   UNK N   1      36.218  14.981   9.941  0.00  0.00    -0.579 OA
BRANCH  22  25
HETATM   25  O   UNK N   1      34.029  15.481  11.306  0.00  0.00    -0.274 OA
HETATM   26  H   UNK N   1      34.064  15.136  12.213  0.00  0.00     0.234 HD
ENDBRANCH  22  25
ENDBRANCH  21  22
ENDBRANCH  20  21
TORSDOF 3
ENDMDL
MODEL 3
REMARK VINA RESULT:      -7.4     23.119     25.962
REMARK  3 active torsions:
REMARK  status: ('A' for Active; 'I' for Inactive)
REMARK    1  A    between atoms: S_1  and  O_3 
REMARK    2  A    between atoms: S_1  and  O_4 
REMARK    3  A    between atoms: C_25  and  O_3 
ROOT
HETATM    1  O   UNK N   1      35.107   7.276  21.523  0.00  0.00    -0.297 OA
HETATM    2  C   UNK N   1      35.937  10.521  17.523  0.00  0.00     0.003 C 
HETATM    3  C   UNK N   1      34.907  11.079  18.541  0.00  0.00    -0.001 C 
HETATM    4  C   UNK N   1      35.128  10.332  19.868  0.00  0.00     0.006 C 
HETATM    5  C   UNK N   1      34.923   8.823  19.716  0.00  0.00     0.021 C 
HETATM    6  C   UNK N   1      35.790  11.211  16.144  0.00  0.00    -0.017 C 
HETATM    7  C   UNK N   1      35.871   8.975  17.411  0.00  0.00     0.007 C 
HETATM    8  C   UNK N   1      36.011   8.293  18.783  0.00  0.00     0.018 C 
HETATM    9  C   UNK N   1      34.322  10.700  21.106  0.00  0.00     0.013 C 
HETATM   10  C   UNK N   1      35.164  12.579  18.735  0.00  0.00     0.033 C 
HETATM   11  C   UNK N   1      35.712  12.731  16.280  0.00  0.00    -0.072 C 
HETATM   12  C   UNK N   1      37.009  10.794  15.292  0.00  0.00     0.016 C 
HETATM   13  C   UNK N   1      34.992   8.432  21.146  0.00  0.00     0.135 C 
HETATM   14  C   UNK N   1      34.681   9.560  22.078  0.00  0.00     0.079 C 
HETATM   15  C   UNK N   1      35.432  13.328  17.452  0.00  0.00    -0.023 C 
HETATM   16  C   UNK N   1      33.538   8.430  19.194  0.00  0.00     0.024 C 
HETATM   17  C   UNK N   1      34.513  10.745  15.446  0.00  0.00     0.020 C 
HETATM   18  C   UNK N   1      35.949  13.615  15.076  0.00  0.00     0.068 C 
HETATM   19  C   UNK N   1      37.516  11.828  14.278  0.00  0.00     0.035 C 
HETATM   20  C   UNK N   1      36.454  12.843  13.853  0.00  0.00     0.148 C 
ENDROOT
BRANCH  20  21
HETATM   21  O   UNK N   1      35.397  12.214  13.186  0.00  0.00    -0.258 OA
BRANCH  21  22
HETATM   22  S   UNK N   1      35.208  13.040  11.687  0.00  0.00     0.240 S 
HETATM   23  O   UNK N   1      34.914  12.042  10.557  0.00  0.00    -0.579 OA
HETATM   24  O   UNK N   1      36.568  13.645  11.309  0.00  0.00    -0.579 OA
BRANCH  22  25
HETATM   25  O   UNK N   1      34.050  14.309  11.672  0.00  0.00    -0.274 OA
HETATM   26  H   UNK N   1      33.939  15.251  11.880  0.00  0.00     0.234 HD
ENDBRANCH  22  25
ENDBRANCH  21  22
ENDBRANCH  20  21
TORSDOF 3
ENDMDL
MODEL 4
REMARK VINA RESULT:      -7.3     23.719     26.733
REMARK  3 active torsions:
REMARK  status: ('A' for Active; 'I' for Inactive)
REMARK    1  A    between atoms: S_1  and  O_3 
REMARK    2  A    between atoms: S_1  and  O_4 
REMARK    3  A    between atoms: C_25  and  O_3 
ROOT
HETATM    1  O   UNK N   1      35.025  11.573  11.207  0.00  0.00    -0.297 OA
HETATM    2  C   UNK N   1      34.868  10.879  16.376  0.00  0.00     0.003 C 
HETATM    3  C   UNK N   1      35.640  12.161  15.968  0.00  0.00    -0.001 C 
HETATM    4  C   UNK N   1      35.192  12.531  14.543  0.00  0.00     0.006 C 
HETATM    5  C   UNK N   1      35.496  11.416  13.541  0.00  0.00     0.021 C 
HETATM    6  C   UNK N   1      35.258  10.421  17.803  0.00  0.00    -0.017 C 
HETATM    7  C   UNK N   1      35.030   9.742  15.334  0.00  0.00     0.007 C 
HETATM    8  C   UNK N   1      34.648  10.202  13.915  0.00  0.00     0.018 C 
HETATM    9  C   UNK N   1      35.710  13.795  13.872  0.00  0.00     0.013 C 
HETATM   10  C   UNK N   1      35.277  13.291  16.941  0.00  0.00     0.033 C 
HETATM   11  C   UNK N   1      35.232  11.584  18.795  0.00  0.00    -0.072 C 
HETATM   12  C   UNK N   1      34.260   9.318  18.218  0.00  0.00     0.016 C 
HETATM   13  C   UNK N   1      35.157  12.131  12.285  0.00  0.00     0.135 C 
HETATM   14  C   UNK N   1      35.217  13.619  12.424  0.00  0.00     0.079 C 
HETATM   15  C   UNK N   1      35.238  12.866  18.389  0.00  0.00    -0.023 C 
HETATM   16  C   UNK N   1      36.976  11.028  13.468  0.00  0.00     0.024 C 
HETATM   17  C   UNK N   1      36.671   9.841  17.810  0.00  0.00     0.020 C 
HETATM   18  C   UNK N   1      35.201  11.313  20.282  0.00  0.00     0.068 C 
HETATM   19  C   UNK N   1      33.919   9.236  19.712  0.00  0.00     0.035 C 
HETATM   20  C   UNK N   1      34.994   9.833  20.620  0.00  0.00     0.148 C 
ENDROOT
BRANCH  20  21
HETATM   21  O   UNK N   1      36.194   9.122  20.512  0.00  0.00    -0.258 OA
BRANCH  21  22
HETATM   22  S   UNK N   1      37.060   9.406  21.974  0.00  0.00     0.240 S 
HETATM   23  O   UNK N   1      38.231  10.369  21.727  0.00  0.00    -0.579 OA
HETATM   24  O   UNK N   1      37.736   8.090  22.384  0.00  0.00    -0.579 OA
BRANCH  22  25
HETATM   25  O   UNK N   1      36.121   9.947  23.307  0.00  0.00    -0.274 OA
HETATM   26  H   UNK N   1      36.013   9.840  24.266  0.00  0.00     0.234 HD
ENDBRANCH  22  25
ENDBRANCH  21  22
ENDBRANCH  20  21
TORSDOF 3
ENDMDL
MODEL 5
REMARK VINA RESULT:      -7.2      3.101      7.819
REMARK  3 active torsions:
REMARK  status: ('A' for Active; 'I' for Inactive)
REMARK    1  A    between atoms: S_1  and  O_3 
REMARK    2  A    between atoms: S_1  and  O_4 
REMARK    3  A    between atoms: C_25  and  O_3 
ROOT
HETATM    1  O   UNK N   1      25.290  24.528  -7.087  0.00  0.00    -0.297 OA
HETATM    2  C   UNK N   1      29.569  22.304  -5.095  0.00  0.00     0.003 C 
HETATM    3  C   UNK N   1      29.204  23.636  -4.388  0.00  0.00    -0.001 C 
HETATM    4  C   UNK N   1      27.718  23.913  -4.677  0.00  0.00     0.006 C 
HETATM    5  C   UNK N   1      27.442  24.044  -6.177  0.00  0.00     0.021 C 
HETATM    6  C   UNK N   1      31.057  21.939  -4.867  0.00  0.00    -0.017 C 
HETATM    7  C   UNK N   1      29.198  22.320  -6.601  0.00  0.00     0.007 C 
HETATM    8  C   UNK N   1      27.720  22.689  -6.825  0.00  0.00     0.018 C 
HETATM    9  C   UNK N   1      27.020  25.116  -4.058  0.00  0.00     0.013 C 
HETATM   10  C   UNK N   1      29.422  23.472  -2.878  0.00  0.00     0.033 C 
HETATM   11  C   UNK N   1      31.449  22.066  -3.394  0.00  0.00    -0.072 C 
HETATM   12  C   UNK N   1      31.256  20.493  -5.368  0.00  0.00     0.016 C 
HETATM   13  C   UNK N   1      26.031  24.500  -6.116  0.00  0.00     0.135 C 
HETATM   14  C   UNK N   1      25.675  25.133  -4.808  0.00  0.00     0.079 C 
HETATM   15  C   UNK N   1      30.700  22.756  -2.515  0.00  0.00    -0.023 C 
HETATM   16  C   UNK N   1      28.255  25.141  -6.869  0.00  0.00     0.024 C 
HETATM   17  C   UNK N   1      31.965  22.873  -5.666  0.00  0.00     0.020 C 
HETATM   18  C   UNK N   1      32.711  21.409  -2.884  0.00  0.00     0.068 C 
HETATM   19  C   UNK N   1      32.305  19.653  -4.627  0.00  0.00     0.035 C 
HETATM   20  C   UNK N   1      33.371  20.490  -3.918  0.00  0.00     0.148 C 
ENDROOT
BRANCH  20  21
HETATM   21  O   UNK N   1      34.123  21.229  -4.837  0.00  0.00    -0.258 OA
BRANCH  21  22
HETATM   22  S   UNK N   1      35.696  20.527  -4.853  0.00  0.00     0.240 S 
HETATM   23  O   UNK N   1      35.625  19.042  -4.467  0.00  0.00    -0.579 OA
HETATM   24  O   UNK N   1      36.509  21.170  -3.721  0.00  0.00    -0.579 OA
BRANCH  22  25
HETATM   25  O   UNK N   1      36.587  20.718  -6.309  0.00  0.00    -0.274 OA
HETATM   26  H   UNK N   1      36.564  20.512  -7.257  0.00  0.00     0.234 HD
ENDBRANCH  22  25
ENDBRANCH  21  22
ENDBRANCH  20  21
TORSDOF 3
ENDMDL
MODEL 6
REMARK VINA RESULT:      -6.9      3.637      4.762
REMARK  3 active torsions:
REMARK  status: ('A' for Active; 'I' for Inactive)
REMARK    1  A    between atoms: S_1  and  O_3 
REMARK    2  A    between atoms: S_1  and  O_4 
REMARK    3  A    between atoms: C_25  and  O_3 
ROOT
HETATM    1  O   UNK N   1      30.703  23.110  -1.508  0.00  0.00    -0.297 OA
HETATM    2  C   UNK N   1      28.137  22.748  -6.036  0.00  0.00     0.003 C 
HETATM    3  C   UNK N   1      29.602  22.249  -6.138  0.00  0.00    -0.001 C 
HETATM    4  C   UNK N   1      30.072  21.918  -4.711  0.00  0.00     0.006 C 
HETATM    5  C   UNK N   1      30.016  23.141  -3.792  0.00  0.00     0.021 C 
HETATM    6  C   UNK N   1      27.571  23.115  -7.430  0.00  0.00    -0.017 C 
HETATM    7  C   UNK N   1      27.984  23.911  -5.021  0.00  0.00     0.007 C 
HETATM    8  C   UNK N   1      28.551  23.546  -3.638  0.00  0.00     0.018 C 
HETATM    9  C   UNK N   1      31.453  21.326  -4.469  0.00  0.00     0.013 C 
HETATM   10  C   UNK N   1      29.636  20.986  -7.008  0.00  0.00     0.033 C 
HETATM   11  C   UNK N   1      27.855  22.021  -8.459  0.00  0.00    -0.072 C 
HETATM   12  C   UNK N   1      26.053  23.338  -7.265  0.00  0.00     0.016 C 
HETATM   13  C   UNK N   1      30.702  22.573  -2.605  0.00  0.00     0.135 C 
HETATM   14  C   UNK N   1      31.576  21.405  -2.936  0.00  0.00     0.079 C 
HETATM   15  C   UNK N   1      28.784  21.070  -8.251  0.00  0.00    -0.023 C 
HETATM   16  C   UNK N   1      30.847  24.330  -4.283  0.00  0.00     0.024 C 
HETATM   17  C   UNK N   1      28.211  24.405  -7.943  0.00  0.00     0.020 C 
HETATM   18  C   UNK N   1      27.084  21.982  -9.759  0.00  0.00     0.068 C 
HETATM   19  C   UNK N   1      25.175  22.967  -8.468  0.00  0.00     0.035 C 
HETATM   20  C   UNK N   1      25.923  22.981  -9.801  0.00  0.00     0.148 C 
ENDROOT
BRANCH  20  21
HETATM   21  O   UNK N   1      26.381  24.267 -10.106  0.00  0.00    -0.258 OA
BRANCH  21  22
HETATM   22  S   UNK N   1      25.491  24.782 -11.489  0.00  0.00     0.240 S 
HETATM   23  O   UNK N   1      24.132  25.362 -11.068  0.00  0.00    -0.579 OA
HETATM   24  O   UNK N   1      25.130  23.535 -12.307  0.00  0.00    -0.579 OA
BRANCH  22  25
HETATM   25  O   UNK N   1      26.303  25.876 -12.536  0.00  0.00    -0.274 OA
HETATM   26  H   UNK N   1      26.782  26.720 -12.545  0.00  0.00     0.234 HD
ENDBRANCH  22  25
ENDBRANCH  21  22
ENDBRANCH  20  21
TORSDOF 3
ENDMDL
MODEL 7
REMARK VINA RESULT:      -6.9      2.015      2.968
REMARK  3 active torsions:
REMARK  status: ('A' for Active; 'I' for Inactive)
REMARK    1  A    between atoms: S_1  and  O_3 
REMARK    2  A    between atoms: S_1  and  O_4 
REMARK    3  A    between atoms: C_25  and  O_3 
ROOT
HETATM    1  O   UNK N   1      32.031  19.116  -7.945  0.00  0.00    -0.297 OA
HETATM    2  C   UNK N   1      28.747  22.540  -5.774  0.00  0.00     0.003 C 
HETATM    3  C   UNK N   1      28.414  22.254  -7.262  0.00  0.00    -0.001 C 
HETATM    4  C   UNK N   1      29.072  20.911  -7.627  0.00  0.00     0.006 C 
HETATM    5  C   UNK N   1      30.591  20.952  -7.447  0.00  0.00     0.021 C 
HETATM    6  C   UNK N   1      28.129  23.883  -5.311  0.00  0.00    -0.017 C 
HETATM    7  C   UNK N   1      30.271  22.473  -5.492  0.00  0.00     0.007 C 
HETATM    8  C   UNK N   1      30.884  21.140  -5.959  0.00  0.00     0.018 C 
HETATM    9  C   UNK N   1      28.871  20.300  -9.006  0.00  0.00     0.013 C 
HETATM   10  C   UNK N   1      26.891  22.149  -7.418  0.00  0.00     0.033 C 
HETATM   11  C   UNK N   1      26.661  23.998  -5.721  0.00  0.00    -0.072 C 
HETATM   12  C   UNK N   1      28.280  23.951  -3.776  0.00  0.00     0.016 C 
HETATM   13  C   UNK N   1      30.935  19.643  -8.055  0.00  0.00     0.135 C 
HETATM   14  C   UNK N   1      29.888  19.143  -9.000  0.00  0.00     0.079 C 
HETATM   15  C   UNK N   1      26.121  23.209  -6.668  0.00  0.00    -0.023 C 
HETATM   16  C   UNK N   1      31.289  22.042  -8.267  0.00  0.00     0.024 C 
HETATM   17  C   UNK N   1      28.876  25.060  -5.937  0.00  0.00     0.020 C 
HETATM   18  C   UNK N   1      25.766  25.023  -5.062  0.00  0.00     0.068 C 
HETATM   19  C   UNK N   1      27.176  24.697  -3.015  0.00  0.00     0.035 C 
HETATM   20  C   UNK N   1      26.427  25.721  -3.869  0.00  0.00     0.148 C 
ENDROOT
BRANCH  20  21
HETATM   21  O   UNK N   1      27.285  26.741  -4.298  0.00  0.00    -0.258 OA
BRANCH  21  22
HETATM   22  S   UNK N   1      26.663  28.206  -3.639  0.00  0.00     0.240 S 
HETATM   23  O   UNK N   1      27.397  28.564  -2.338  0.00  0.00    -0.579 OA
HETATM   24  O   UNK N   1      25.218  27.945  -3.194  0.00  0.00    -0.579 OA
BRANCH  22  25
HETATM   25  O   UNK N   1      26.647  29.556  -4.700  0.00  0.00    -0.274 OA
HETATM   26  H   UNK N   1      26.188  30.394  -4.872  0.00  0.00     0.234 HD
ENDBRANCH  22  25
ENDBRANCH  21  22
ENDBRANCH  20  21
TORSDOF 3
ENDMDL
MODEL 8
REMARK VINA RESULT:      -6.8     14.052     15.168
REMARK  3 active torsions:
REMARK  status: ('A' for Active; 'I' for Inactive)
REMARK    1  A    between atoms: S_1  and  O_3 
REMARK    2  A    between atoms: S_1  and  O_4 
REMARK    3  A    between atoms: C_25  and  O_3 
ROOT
HETATM    1  O   UNK N   1      23.264  11.350   9.816  0.00  0.00    -0.297 OA
HETATM    2  C   UNK N   1      21.823  14.498   5.914  0.00  0.00     0.003 C 
HETATM    3  C   UNK N   1      22.966  13.531   5.510  0.00  0.00    -0.001 C 
HETATM    4  C   UNK N   1      22.946  12.358   6.506  0.00  0.00     0.006 C 
HETATM    5  C   UNK N   1      23.165  12.828   7.946  0.00  0.00     0.021 C 
HETATM    6  C   UNK N   1      21.765  15.723   4.967  0.00  0.00    -0.017 C 
HETATM    7  C   UNK N   1      21.911  14.918   7.404  0.00  0.00     0.007 C 
HETATM    8  C   UNK N   1      21.974  13.699   8.343  0.00  0.00     0.018 C 
HETATM    9  C   UNK N   1      23.902  11.186   6.341  0.00  0.00     0.013 C 
HETATM   10  C   UNK N   1      22.702  13.016   4.089  0.00  0.00     0.033 C 
HETATM   11  C   UNK N   1      21.824  15.303   3.499  0.00  0.00    -0.072 C 
HETATM   12  C   UNK N   1      20.453  16.477   5.274  0.00  0.00     0.016 C 
HETATM   13  C   UNK N   1      23.298  11.505   8.606  0.00  0.00     0.135 C 
HETATM   14  C   UNK N   1      23.705  10.418   7.662  0.00  0.00     0.079 C 
HETATM   15  C   UNK N   1      22.245  14.082   3.123  0.00  0.00    -0.023 C 
HETATM   16  C   UNK N   1      24.475  13.589   8.163  0.00  0.00     0.024 C 
HETATM   17  C   UNK N   1      22.948  16.655   5.227  0.00  0.00     0.020 C 
HETATM   18  C   UNK N   1      21.405  16.270   2.415  0.00  0.00     0.068 C 
HETATM   19  C   UNK N   1      19.789  17.196   4.092  0.00  0.00     0.035 C 
HETATM   20  C   UNK N   1      20.759  17.546   2.963  0.00  0.00     0.148 C 
ENDROOT
BRANCH  20  21
HETATM   21  O   UNK N   1      21.731  18.452   3.400  0.00  0.00    -0.258 OA
BRANCH  21  22
HETATM   22  S   UNK N   1      21.249  20.000   2.817  0.00  0.00     0.240 S 
HETATM   23  O   UNK N   1      22.452  20.954   2.767  0.00  0.00    -0.579 OA
HETATM   24  O   UNK N   1      20.317  20.626   3.863  0.00  0.00    -0.579 OA
BRANCH  22  25
HETATM   25  O   UNK N   1      20.424  20.008   1.310  0.00  0.00    -0.274 OA
HETATM   26  H   UNK N   1      20.499  20.321   0.394  0.00  0.00     0.234 HD
ENDBRANCH  22  25
ENDBRANCH  21  22
ENDBRANCH  20  21
TORSDOF 3
ENDMDL
MODEL 9
REMARK VINA RESULT:      -6.6     19.140     21.927
REMARK  3 active torsions:
REMARK  status: ('A' for Active; 'I' for Inactive)
REMARK    1  A    between atoms: S_1  and  O_3 
REMARK    2  A    between atoms: S_1  and  O_4 
REMARK    3  A    between atoms: C_25  and  O_3 
ROOT
HETATM    1  O   UNK N   1      37.908   7.079  15.018  0.00  0.00    -0.297 OA
HETATM    2  C   UNK N   1      37.135  11.775  12.881  0.00  0.00     0.003 C 
HETATM    3  C   UNK N   1      36.441  11.625  14.260  0.00  0.00    -0.001 C 
HETATM    4  C   UNK N   1      37.137  10.467  14.998  0.00  0.00     0.006 C 
HETATM    5  C   UNK N   1      37.025   9.149  14.228  0.00  0.00     0.021 C 
HETATM    6  C   UNK N   1      36.497  12.919  12.055  0.00  0.00    -0.017 C 
HETATM    7  C   UNK N   1      37.170  10.438  12.095  0.00  0.00     0.007 C 
HETATM    8  C   UNK N   1      37.799   9.301  12.920  0.00  0.00     0.018 C 
HETATM    9  C   UNK N   1      36.741  10.108  16.423  0.00  0.00     0.013 C 
HETATM   10  C   UNK N   1      36.617  12.929  15.049  0.00  0.00     0.033 C 
HETATM   11  C   UNK N   1      36.336  14.192  12.886  0.00  0.00    -0.072 C 
HETATM   12  C   UNK N   1      37.410  13.167  10.835  0.00  0.00     0.016 C 
HETATM   13  C   UNK N   1      37.581   8.231  15.253  0.00  0.00     0.135 C 
HETATM   14  C   UNK N   1      37.488   8.779  16.642  0.00  0.00     0.079 C 
HETATM   15  C   UNK N   1      36.396  14.178  14.229  0.00  0.00    -0.023 C 
HETATM   16  C   UNK N   1      35.585   8.711  13.945  0.00  0.00     0.024 C 
HETATM   17  C   UNK N   1      35.108  12.512  11.562  0.00  0.00     0.020 C 
HETATM   18  C   UNK N   1      36.100  15.520  12.203  0.00  0.00     0.068 C 
HETATM   19  C   UNK N   1      37.476  14.610  10.316  0.00  0.00     0.035 C 
HETATM   20  C   UNK N   1      36.251  15.450  10.680  0.00  0.00     0.148 C 
ENDROOT
BRANCH  20  21
HETATM   21  O   UNK N   1      35.094  14.934  10.085  0.00  0.00    -0.258 OA
BRANCH  21  22
HETATM   22  S   UNK N   1      34.411  16.217   9.161  0.00  0.00     0.240 S 
HETATM   23  O   UNK N   1      34.746  16.044   7.672  0.00  0.00    -0.579 OA
HETATM   24  O   UNK N   1      35.128  17.515   9.558  0.00  0.00    -0.579 OA
BRANCH  22  25
HETATM   25  O   UNK N   1      32.724  16.470   9.363  0.00  0.00    -0.274 OA
HETATM   26  H   UNK N   1      32.001  17.069   9.116  0.00  0.00     0.234 HD
ENDBRANCH  22  25
ENDBRANCH  21  22
ENDBRANCH  20  21
TORSDOF 3
ENDMDL
