MODEL 1
REMARK VINA RESULT:      -8.2      0.000      0.000
REMARK  2 active torsions:
REMARK  status: ('A' for Active; 'I' for Inactive)
REMARK    1  A    between atoms: N_8  and  C_18 
REMARK    2  A    between atoms: C_18  and  C_21 
ROOT
HETATM    1  O   UNK N   1      21.394  18.493   6.723  0.00  0.00    -0.269 OA
HETATM    2  O   UNK N   1      23.542  16.926   4.589  0.00  0.00    -0.270 OA
HETATM    3  O   UNK N   1      22.576  20.869   2.824  0.00  0.00    -0.273 OA
HETATM    4  O   UNK N   1      19.205  14.673   5.723  0.00  0.00    -0.265 OA
HETATM    5  N   UNK N   1      20.753  16.936   3.528  0.00  0.00    -0.325 N 
HETATM    6  N   UNK N   1      20.238  16.602   6.294  0.00  0.00    -0.276 N 
HETATM    7  N   UNK N   1      23.365  18.957   3.671  0.00  0.00    -0.295 N 
HETATM    8  C   UNK N   1      21.356  17.932   4.411  0.00  0.00     0.208 A 
HETATM    9  C   UNK N   1      21.029  19.360   3.891  0.00  0.00     0.155 A 
HETATM   10  C   UNK N   1      20.966  17.708   5.885  0.00  0.00     0.266 A 
HETATM   11  C   UNK N   1      22.853  17.878   4.259  0.00  0.00     0.263 A 
HETATM   12  C   UNK N   1      20.016  15.915   3.950  0.00  0.00     0.104 A 
HETATM   13  C   UNK N   1      22.381  19.816   3.408  0.00  0.00     0.227 A 
HETATM   14  C   UNK N   1      19.774  15.694   5.372  0.00  0.00     0.277 A 
HETATM   15  C   UNK N   1      20.854  16.848   2.188  0.00  0.00     0.093 A 
HETATM   16  C   UNK N   1      19.616  15.132   2.887  0.00  0.00     0.037 A 
HETATM   17  C   UNK N   1      20.149  15.735   1.755  0.00  0.00     0.020 A 
HETATM   18  H   UNK N   1      24.317  19.097   3.464  0.00  0.00     0.171 HD
ENDROOT
BRANCH   6  19
HETATM   19  C   UNK N   1      20.152  16.321   7.729  0.00  0.00     0.177 C 
BRANCH  19  20
HETATM   20  C   UNK N   1      20.816  15.100   8.335  0.00  0.00    -0.001 A 
HETATM   21  C   UNK N   1      20.203  14.493   9.448  0.00  0.00     0.125 A 
HETATM   22  F   UNK N   1      18.990  14.919   9.881  0.00  0.00    -0.205 F 
HETATM   23  C   UNK N   1      20.867  13.489  10.162  0.00  0.00     0.062 A 
HETATM   24  C   UNK N   1      22.143  13.078   9.774  0.00  0.00     0.013 A 
HETATM   25 Br   UNK N   1      23.075  11.766  10.797  0.00  0.00    -0.051 Br
HETATM   26  C   UNK N   1      22.753  13.662   8.662  0.00  0.00     0.020 A 
HETATM   27  C   UNK N   1      22.096  14.673   7.954  0.00  0.00     0.013 A 
ENDBRANCH  19  20
ENDBRANCH   6  19
TORSDOF 2
ENDMDL
MODEL 2
REMARK VINA RESULT:      -7.9      9.717     11.606
REMARK  2 active torsions:
REMARK  status: ('A' for Active; 'I' for Inactive)
REMARK    1  A    between atoms: N_8  and  C_18 
REMARK    2  A    between atoms: C_18  and  C_21 
ROOT
HETATM    1  O   UNK N   1      31.114  18.097   8.214  0.00  0.00    -0.269 OA
HETATM    2  O   UNK N   1      32.930  15.518   9.508  0.00  0.00    -0.270 OA
HETATM    3  O   UNK N   1      35.665  18.974   9.089  0.00  0.00    -0.273 OA
HETATM    4  O   UNK N   1      30.629  14.868   5.096  0.00  0.00    -0.265 OA
HETATM    5  N   UNK N   1      33.582  15.987   6.634  0.00  0.00    -0.325 N 
HETATM    6  N   UNK N   1      30.803  16.535   6.615  0.00  0.00    -0.276 N 
HETATM    7  N   UNK N   1      34.388  17.211   9.597  0.00  0.00    -0.295 N 
HETATM    8  C   UNK N   1      33.124  16.983   7.600  0.00  0.00     0.208 A 
HETATM    9  C   UNK N   1      34.005  18.260   7.495  0.00  0.00     0.155 A 
HETATM   10  C   UNK N   1      31.615  17.263   7.469  0.00  0.00     0.266 A 
HETATM   11  C   UNK N   1      33.441  16.498   8.990  0.00  0.00     0.263 A 
HETATM   12  C   UNK N   1      32.782  15.344   5.791  0.00  0.00     0.104 A 
HETATM   13  C   UNK N   1      34.771  18.201   8.790  0.00  0.00     0.227 A 
HETATM   14  C   UNK N   1      31.341  15.574   5.792  0.00  0.00     0.277 A 
HETATM   15  C   UNK N   1      34.835  15.529   6.447  0.00  0.00     0.093 A 
HETATM   16  C   UNK N   1      33.500  14.445   5.029  0.00  0.00     0.037 A 
HETATM   17  C   UNK N   1      34.819  14.569   5.447  0.00  0.00     0.020 A 
HETATM   18  H   UNK N   1      34.746  17.036  10.496  0.00  0.00     0.171 HD
ENDROOT
BRANCH   6  19
HETATM   19  C   UNK N   1      29.351  16.671   6.755  0.00  0.00     0.177 C 
BRANCH  19  20
HETATM   20  C   UNK N   1      28.556  17.605   5.864  0.00  0.00    -0.001 A 
HETATM   21  C   UNK N   1      27.968  18.743   6.449  0.00  0.00     0.125 A 
HETATM   22  F   UNK N   1      28.214  19.053   7.746  0.00  0.00    -0.205 F 
HETATM   23  C   UNK N   1      27.069  19.530   5.718  0.00  0.00     0.062 A 
HETATM   24  C   UNK N   1      26.751  19.194   4.402  0.00  0.00     0.013 A 
HETATM   25 Br   UNK N   1      25.465  20.223   3.440  0.00  0.00    -0.051 Br
HETATM   26  C   UNK N   1      27.340  18.077   3.807  0.00  0.00     0.020 A 
HETATM   27  C   UNK N   1      28.230  17.284   4.538  0.00  0.00     0.013 A 
ENDBRANCH  19  20
ENDBRANCH   6  19
TORSDOF 2
ENDMDL
MODEL 3
REMARK VINA RESULT:      -7.7      6.775      9.472
REMARK  2 active torsions:
REMARK  status: ('A' for Active; 'I' for Inactive)
REMARK    1  A    between atoms: N_8  and  C_18 
REMARK    2  A    between atoms: C_18  and  C_21 
ROOT
HETATM    1  O   UNK N   1      28.398  17.184   3.546  0.00  0.00    -0.269 OA
HETATM    2  O   UNK N   1      31.505  17.795   4.810  0.00  0.00    -0.270 OA
HETATM    3  O   UNK N   1      30.712  13.466   5.297  0.00  0.00    -0.273 OA
HETATM    4  O   UNK N   1      27.592  20.275   6.737  0.00  0.00    -0.265 OA
HETATM    5  N   UNK N   1      29.506  17.340   6.979  0.00  0.00    -0.325 N 
HETATM    6  N   UNK N   1      27.907  18.739   5.106  0.00  0.00    -0.276 N 
HETATM    7  N   UNK N   1      31.383  15.564   4.917  0.00  0.00    -0.295 N 
HETATM    8  C   UNK N   1      29.474  16.782   5.629  0.00  0.00     0.208 A 
HETATM    9  C   UNK N   1      29.155  15.262   5.698  0.00  0.00     0.155 A 
HETATM   10  C   UNK N   1      28.528  17.569   4.702  0.00  0.00     0.266 A 
HETATM   11  C   UNK N   1      30.870  16.783   5.064  0.00  0.00     0.263 A 
HETATM   12  C   UNK N   1      28.856  18.438   7.347  0.00  0.00     0.104 A 
HETATM   13  C   UNK N   1      30.475  14.663   5.289  0.00  0.00     0.227 A 
HETATM   14  C   UNK N   1      28.063  19.203   6.391  0.00  0.00     0.277 A 
HETATM   15  C   UNK N   1      30.196  16.890   8.045  0.00  0.00     0.093 A 
HETATM   16  C   UNK N   1      29.108  18.732   8.671  0.00  0.00     0.037 A 
HETATM   17  C   UNK N   1      29.964  17.733   9.121  0.00  0.00     0.020 A 
HETATM   18  H   UNK N   1      32.287  15.361   4.586  0.00  0.00     0.171 HD
ENDROOT
BRANCH   6  19
HETATM   19  C   UNK N   1      27.256  19.567   4.087  0.00  0.00     0.177 C 
BRANCH  19  20
HETATM   20  C   UNK N   1      25.771  19.451   3.807  0.00  0.00    -0.001 A 
HETATM   21  C   UNK N   1      25.181  20.393   2.943  0.00  0.00     0.125 A 
HETATM   22  F   UNK N   1      25.949  21.297   2.286  0.00  0.00    -0.205 F 
HETATM   23  C   UNK N   1      23.789  20.452   2.804  0.00  0.00     0.062 A 
HETATM   24  C   UNK N   1      22.974  19.574   3.518  0.00  0.00     0.013 A 
HETATM   25 Br   UNK N   1      21.077  19.711   3.385  0.00  0.00    -0.051 Br
HETATM   26  C   UNK N   1      23.549  18.625   4.366  0.00  0.00     0.020 A 
HETATM   27  C   UNK N   1      24.938  18.572   4.516  0.00  0.00     0.013 A 
ENDBRANCH  19  20
ENDBRANCH   6  19
TORSDOF 2
ENDMDL
MODEL 4
REMARK VINA RESULT:      -7.7     12.086     14.374
REMARK  2 active torsions:
REMARK  status: ('A' for Active; 'I' for Inactive)
REMARK    1  A    between atoms: N_8  and  C_18 
REMARK    2  A    between atoms: C_18  and  C_21 
ROOT
HETATM    1  O   UNK N   1      34.117  17.377   9.398  0.00  0.00    -0.269 OA
HETATM    2  O   UNK N   1      33.092  14.146   9.759  0.00  0.00    -0.270 OA
HETATM    3  O   UNK N   1      36.081  14.941  12.927  0.00  0.00    -0.273 OA
HETATM    4  O   UNK N   1      35.111  15.558   5.388  0.00  0.00    -0.265 OA
HETATM    5  N   UNK N   1      35.833  14.305   8.588  0.00  0.00    -0.325 N 
HETATM    6  N   UNK N   1      34.629  16.556   7.360  0.00  0.00    -0.276 N 
HETATM    7  N   UNK N   1      34.388  14.433  11.559  0.00  0.00    -0.295 N 
HETATM    8  C   UNK N   1      35.212  15.268   9.495  0.00  0.00     0.208 A 
HETATM    9  C   UNK N   1      36.212  15.644  10.625  0.00  0.00     0.155 A 
HETATM   10  C   UNK N   1      34.646  16.487   8.743  0.00  0.00     0.266 A 
HETATM   11  C   UNK N   1      34.115  14.580  10.264  0.00  0.00     0.263 A 
HETATM   12  C   UNK N   1      35.844  14.427   7.266  0.00  0.00     0.104 A 
HETATM   13  C   UNK N   1      35.573  14.984  11.819  0.00  0.00     0.227 A 
HETATM   14  C   UNK N   1      35.192  15.553   6.605  0.00  0.00     0.277 A 
HETATM   15  C   UNK N   1      36.450  13.150   8.903  0.00  0.00     0.093 A 
HETATM   16  C   UNK N   1      36.474  13.347   6.683  0.00  0.00     0.037 A 
HETATM   17  C   UNK N   1      36.868  12.530   7.736  0.00  0.00     0.020 A 
HETATM   18  H   UNK N   1      33.807  13.989  12.218  0.00  0.00     0.171 HD
ENDROOT
BRANCH   6  19
HETATM   19  C   UNK N   1      33.829  17.607   6.727  0.00  0.00     0.177 C 
BRANCH  19  20
HETATM   20  C   UNK N   1      32.413  17.345   6.254  0.00  0.00    -0.001 A 
HETATM   21  C   UNK N   1      32.138  17.460   4.878  0.00  0.00     0.125 A 
HETATM   22  F   UNK N   1      33.142  17.676   3.994  0.00  0.00    -0.205 F 
HETATM   23  C   UNK N   1      30.818  17.419   4.414  0.00  0.00     0.062 A 
HETATM   24  C   UNK N   1      29.762  17.261   5.313  0.00  0.00     0.013 A 
HETATM   25 Br   UNK N   1      27.962  17.286   4.683  0.00  0.00    -0.051 Br
HETATM   26  C   UNK N   1      30.024  17.130   6.677  0.00  0.00     0.020 A 
HETATM   27  C   UNK N   1      31.341  17.182   7.145  0.00  0.00     0.013 A 
ENDBRANCH  19  20
ENDBRANCH   6  19
TORSDOF 2
ENDMDL
MODEL 5
REMARK VINA RESULT:      -7.5     13.043     14.672
REMARK  2 active torsions:
REMARK  status: ('A' for Active; 'I' for Inactive)
REMARK    1  A    between atoms: N_8  and  C_18 
REMARK    2  A    between atoms: C_18  and  C_21 
ROOT
HETATM    1  O   UNK N   1      34.598  16.324  10.527  0.00  0.00    -0.269 OA
HETATM    2  O   UNK N   1      34.917  18.351   7.804  0.00  0.00    -0.270 OA
HETATM    3  O   UNK N   1      30.587  17.718   8.474  0.00  0.00    -0.273 OA
HETATM    4  O   UNK N   1      37.109  13.838   7.716  0.00  0.00    -0.265 OA
HETATM    5  N   UNK N   1      34.137  15.577   7.024  0.00  0.00    -0.325 N 
HETATM    6  N   UNK N   1      35.871  15.021   9.194  0.00  0.00    -0.276 N 
HETATM    7  N   UNK N   1      32.704  18.344   8.129  0.00  0.00    -0.295 N 
HETATM    8  C   UNK N   1      33.821  16.254   8.280  0.00  0.00     0.208 A 
HETATM    9  C   UNK N   1      32.318  16.048   8.622  0.00  0.00     0.155 A 
HETATM   10  C   UNK N   1      34.775  15.839   9.416  0.00  0.00     0.266 A 
HETATM   11  C   UNK N   1      33.891  17.743   8.065  0.00  0.00     0.263 A 
HETATM   12  C   UNK N   1      35.169  14.757   6.859  0.00  0.00     0.104 A 
HETATM   13  C   UNK N   1      31.771  17.434   8.408  0.00  0.00     0.227 A 
HETATM   14  C   UNK N   1      36.103  14.490   7.948  0.00  0.00     0.277 A 
HETATM   15  C   UNK N   1      33.496  15.679   5.844  0.00  0.00     0.093 A 
HETATM   16  C   UNK N   1      35.225  14.301   5.558  0.00  0.00     0.037 A 
HETATM   17  C   UNK N   1      34.146  14.889   4.908  0.00  0.00     0.020 A 
HETATM   18  H   UNK N   1      32.543  19.305   7.993  0.00  0.00     0.171 HD
ENDROOT
BRANCH   6  19
HETATM   19  C   UNK N   1      36.874  14.904  10.255  0.00  0.00     0.177 C 
BRANCH  19  20
HETATM   20  C   UNK N   1      36.857  13.747  11.234  0.00  0.00    -0.001 A 
HETATM   21  C   UNK N   1      36.482  14.006  12.566  0.00  0.00     0.125 A 
HETATM   22  F   UNK N   1      36.031  15.234  12.925  0.00  0.00    -0.205 F 
HETATM   23  C   UNK N   1      36.635  13.021  13.549  0.00  0.00     0.062 A 
HETATM   24  C   UNK N   1      37.157  11.771  13.216  0.00  0.00     0.013 A 
HETATM   25 Br   UNK N   1      37.436  10.462  14.573  0.00  0.00    -0.051 Br
HETATM   26  C   UNK N   1      37.517  11.498  11.895  0.00  0.00     0.020 A 
HETATM   27  C   UNK N   1      37.376  12.484  10.913  0.00  0.00     0.013 A 
ENDBRANCH  19  20
ENDBRANCH   6  19
TORSDOF 2
ENDMDL
MODEL 6
REMARK VINA RESULT:      -7.5      8.691     10.895
REMARK  2 active torsions:
REMARK  status: ('A' for Active; 'I' for Inactive)
REMARK    1  A    between atoms: N_8  and  C_18 
REMARK    2  A    between atoms: C_18  and  C_21 
ROOT
HETATM    1  O   UNK N   1      29.987  15.433   4.710  0.00  0.00    -0.269 OA
HETATM    2  O   UNK N   1      31.918  18.098   3.821  0.00  0.00    -0.270 OA
HETATM    3  O   UNK N   1      34.367  14.453   3.261  0.00  0.00    -0.273 OA
HETATM    4  O   UNK N   1      30.017  17.944   8.462  0.00  0.00    -0.265 OA
HETATM    5  N   UNK N   1      32.739  16.979   6.463  0.00  0.00    -0.325 N 
HETATM    6  N   UNK N   1      29.932  16.634   6.620  0.00  0.00    -0.276 N 
HETATM    7  N   UNK N   1      33.213  16.367   3.250  0.00  0.00    -0.295 N 
HETATM    8  C   UNK N   1      32.126  16.249   5.356  0.00  0.00     0.208 A 
HETATM    9  C   UNK N   1      32.898  14.921   5.114  0.00  0.00     0.155 A 
HETATM   10  C   UNK N   1      30.612  16.052   5.563  0.00  0.00     0.266 A 
HETATM   11  C   UNK N   1      32.380  16.997   4.075  0.00  0.00     0.263 A 
HETATM   12  C   UNK N   1      32.063  17.481   7.491  0.00  0.00     0.104 A 
HETATM   13  C   UNK N   1      33.567  15.204   3.795  0.00  0.00     0.227 A 
HETATM   14  C   UNK N   1      30.611  17.357   7.573  0.00  0.00     0.277 A 
HETATM   15  C   UNK N   1      34.037  17.299   6.626  0.00  0.00     0.093 A 
HETATM   16  C   UNK N   1      32.910  18.143   8.354  0.00  0.00     0.037 A 
HETATM   17  C   UNK N   1      34.180  18.021   7.802  0.00  0.00     0.020 A 
HETATM   18  H   UNK N   1      33.518  16.706   2.377  0.00  0.00     0.171 HD
ENDROOT
BRANCH   6  19
HETATM   19  C   UNK N   1      28.467  16.632   6.588  0.00  0.00     0.177 C 
BRANCH  19  20
HETATM   20  C   UNK N   1      27.694  17.664   5.792  0.00  0.00    -0.001 A 
HETATM   21  C   UNK N   1      26.386  17.345   5.381  0.00  0.00     0.125 A 
HETATM   22  F   UNK N   1      25.797  16.196   5.796  0.00  0.00    -0.205 F 
HETATM   23  C   UNK N   1      25.703  18.176   4.485  0.00  0.00     0.062 A 
HETATM   24  C   UNK N   1      26.312  19.332   3.995  0.00  0.00     0.013 A 
HETATM   25 Br   UNK N   1      25.407  20.417   2.715  0.00  0.00    -0.051 Br
HETATM   26  C   UNK N   1      27.602  19.666   4.408  0.00  0.00     0.020 A 
HETATM   27  C   UNK N   1      28.291  18.832   5.294  0.00  0.00     0.013 A 
ENDBRANCH  19  20
ENDBRANCH   6  19
TORSDOF 2
ENDMDL
MODEL 7
REMARK VINA RESULT:      -7.5      6.505      8.129
REMARK  2 active torsions:
REMARK  status: ('A' for Active; 'I' for Inactive)
REMARK    1  A    between atoms: N_8  and  C_18 
REMARK    2  A    between atoms: C_18  and  C_21 
ROOT
HETATM    1  O   UNK N   1      27.280  15.443   5.751  0.00  0.00    -0.269 OA
HETATM    2  O   UNK N   1      24.095  16.628   5.481  0.00  0.00    -0.270 OA
HETATM    3  O   UNK N   1      25.197  14.909   1.553  0.00  0.00    -0.273 OA
HETATM    4  O   UNK N   1      27.740  19.807   6.818  0.00  0.00    -0.265 OA
HETATM    5  N   UNK N   1      26.047  18.399   4.081  0.00  0.00    -0.325 N 
HETATM    6  N   UNK N   1      27.598  17.605   6.315  0.00  0.00    -0.276 N 
HETATM    7  N   UNK N   1      24.382  15.599   3.516  0.00  0.00    -0.295 N 
HETATM    8  C   UNK N   1      26.168  16.958   4.291  0.00  0.00     0.208 A 
HETATM    9  C   UNK N   1      26.599  16.269   2.966  0.00  0.00     0.155 A 
HETATM   10  C   UNK N   1      27.083  16.623   5.485  0.00  0.00     0.266 A 
HETATM   11  C   UNK N   1      24.796  16.378   4.513  0.00  0.00     0.263 A 
HETATM   12  C   UNK N   1      26.599  19.315   4.868  0.00  0.00     0.104 A 
HETATM   13  C   UNK N   1      25.343  15.524   2.596  0.00  0.00     0.227 A 
HETATM   14  C   UNK N   1      27.364  18.934   6.051  0.00  0.00     0.277 A 
HETATM   15  C   UNK N   1      25.358  19.040   3.118  0.00  0.00     0.093 A 
HETATM   16  C   UNK N   1      26.280  20.585   4.433  0.00  0.00     0.037 A 
HETATM   17  C   UNK N   1      25.488  20.407   3.305  0.00  0.00     0.020 A 
HETATM   18  H   UNK N   1      23.508  15.150   3.468  0.00  0.00     0.171 HD
ENDROOT
BRANCH   6  19
HETATM   19  C   UNK N   1      28.219  17.192   7.576  0.00  0.00     0.177 C 
BRANCH  19  20
HETATM   20  C   UNK N   1      29.721  17.250   7.773  0.00  0.00    -0.001 A 
HETATM   21  C   UNK N   1      30.233  18.144   8.733  0.00  0.00     0.125 A 
HETATM   22  F   UNK N   1      29.394  18.838   9.540  0.00  0.00    -0.205 F 
HETATM   23  C   UNK N   1      31.611  18.377   8.818  0.00  0.00     0.062 A 
HETATM   24  C   UNK N   1      32.490  17.722   7.955  0.00  0.00     0.013 A 
HETATM   25 Br   UNK N   1      34.356  18.104   8.024  0.00  0.00    -0.051 Br
HETATM   26  C   UNK N   1      31.994  16.822   7.010  0.00  0.00     0.020 A 
HETATM   27  C   UNK N   1      30.617  16.596   6.915  0.00  0.00     0.013 A 
ENDBRANCH  19  20
ENDBRANCH   6  19
TORSDOF 2
ENDMDL
MODEL 8
REMARK VINA RESULT:      -7.4     12.958     14.720
REMARK  2 active torsions:
REMARK  status: ('A' for Active; 'I' for Inactive)
REMARK    1  A    between atoms: N_8  and  C_18 
REMARK    2  A    between atoms: C_18  and  C_21 
ROOT
HETATM    1  O   UNK N   1      34.005  15.323  11.299  0.00  0.00    -0.269 OA
HETATM    2  O   UNK N   1      34.809  17.835   9.138  0.00  0.00    -0.270 OA
HETATM    3  O   UNK N   1      30.598  16.718   8.351  0.00  0.00    -0.273 OA
HETATM    4  O   UNK N   1      37.533  13.622   9.051  0.00  0.00    -0.265 OA
HETATM    5  N   UNK N   1      34.674  15.195   7.753  0.00  0.00    -0.325 N 
HETATM    6  N   UNK N   1      35.773  14.402  10.240  0.00  0.00    -0.276 N 
HETATM    7  N   UNK N   1      32.619  17.577   8.767  0.00  0.00    -0.295 N 
HETATM    8  C   UNK N   1      33.921  15.600   8.938  0.00  0.00     0.208 A 
HETATM    9  C   UNK N   1      32.427  15.205   8.770  0.00  0.00     0.155 A 
HETATM   10  C   UNK N   1      34.558  15.067  10.235  0.00  0.00     0.266 A 
HETATM   11  C   UNK N   1      33.844  17.103   8.979  0.00  0.00     0.263 A 
HETATM   12  C   UNK N   1      35.812  14.512   7.790  0.00  0.00     0.104 A 
HETATM   13  C   UNK N   1      31.779  16.555   8.609  0.00  0.00     0.227 A 
HETATM   14  C   UNK N   1      36.423  14.131   9.059  0.00  0.00     0.277 A 
HETATM   15  C   UNK N   1      34.389  15.456   6.462  0.00  0.00     0.093 A 
HETATM   16  C   UNK N   1      36.300  14.309   6.516  0.00  0.00     0.037 A 
HETATM   17  C   UNK N   1      35.382  14.910   5.663  0.00  0.00     0.020 A 
HETATM   18  H   UNK N   1      32.372  18.530   8.734  0.00  0.00     0.171 HD
ENDROOT
BRANCH   6  19
HETATM   19  C   UNK N   1      36.437  14.180  11.527  0.00  0.00     0.177 C 
BRANCH  19  20
HETATM   20  C   UNK N   1      35.832  13.274  12.581  0.00  0.00    -0.001 A 
HETATM   21  C   UNK N   1      36.035  13.601  13.936  0.00  0.00     0.125 A 
HETATM   22  F   UNK N   1      36.648  14.761  14.277  0.00  0.00    -0.205 F 
HETATM   23  C   UNK N   1      35.667  12.702  14.943  0.00  0.00     0.062 A 
HETATM   24  C   UNK N   1      35.093  11.474  14.614  0.00  0.00     0.013 A 
HETATM   25 Br   UNK N   1      34.668  10.221  15.987  0.00  0.00    -0.051 Br
HETATM   26  C   UNK N   1      34.872  11.147  13.275  0.00  0.00     0.020 A 
HETATM   27  C   UNK N   1      35.249  12.038  12.266  0.00  0.00     0.013 A 
ENDBRANCH  19  20
ENDBRANCH   6  19
TORSDOF 2
ENDMDL
MODEL 9
REMARK VINA RESULT:      -7.4     13.096     14.699
REMARK  2 active torsions:
REMARK  status: ('A' for Active; 'I' for Inactive)
REMARK    1  A    between atoms: N_8  and  C_18 
REMARK    2  A    between atoms: C_18  and  C_21 
ROOT
HETATM    1  O   UNK N   1      36.584  13.331   8.310  0.00  0.00    -0.269 OA
HETATM    2  O   UNK N   1      33.222  13.366   7.749  0.00  0.00    -0.270 OA
HETATM    3  O   UNK N   1      35.218  13.733   3.814  0.00  0.00    -0.273 OA
HETATM    4  O   UNK N   1      35.194  16.849  10.775  0.00  0.00    -0.265 OA
HETATM    5  N   UNK N   1      34.416  16.083   7.437  0.00  0.00    -0.325 N 
HETATM    6  N   UNK N   1      35.975  15.092   9.584  0.00  0.00    -0.276 N 
HETATM    7  N   UNK N   1      34.046  13.314   5.670  0.00  0.00    -0.295 N 
HETATM    8  C   UNK N   1      35.081  14.804   7.201  0.00  0.00     0.208 A 
HETATM    9  C   UNK N   1      35.851  14.854   5.851  0.00  0.00     0.155 A 
HETATM   10  C   UNK N   1      35.957  14.380   8.396  0.00  0.00     0.266 A 
HETATM   11  C   UNK N   1      34.038  13.753   6.927  0.00  0.00     0.263 A 
HETATM   12  C   UNK N   1      34.496  16.767   8.572  0.00  0.00     0.104 A 
HETATM   13  C   UNK N   1      35.026  13.922   5.004  0.00  0.00     0.227 A 
HETATM   14  C   UNK N   1      35.255  16.256   9.710  0.00  0.00     0.277 A 
HETATM   15  C   UNK N   1      33.607  16.762   6.601  0.00  0.00     0.093 A 
HETATM   16  C   UNK N   1      33.736  17.916   8.504  0.00  0.00     0.037 A 
HETATM   17  C   UNK N   1      33.170  17.915   7.234  0.00  0.00     0.020 A 
HETATM   18  H   UNK N   1      33.427  12.646   5.295  0.00  0.00     0.171 HD
ENDROOT
BRANCH   6  19
HETATM   19  C   UNK N   1      36.608  14.475  10.752  0.00  0.00     0.177 C 
BRANCH  19  20
HETATM   20  C   UNK N   1      35.817  13.612  11.715  0.00  0.00    -0.001 A 
HETATM   21  C   UNK N   1      35.747  14.011  13.063  0.00  0.00     0.125 A 
HETATM   22  F   UNK N   1      36.269  15.199  13.455  0.00  0.00    -0.205 F 
HETATM   23  C   UNK N   1      35.197  13.157  14.026  0.00  0.00     0.062 A 
HETATM   24  C   UNK N   1      34.711  11.902  13.657  0.00  0.00     0.013 A 
HETATM   25 Br   UNK N   1      34.037  10.712  14.986  0.00  0.00    -0.051 Br
HETATM   26  C   UNK N   1      34.761  11.503  12.321  0.00  0.00     0.020 A 
HETATM   27  C   UNK N   1      35.320  12.350  11.358  0.00  0.00     0.013 A 
ENDBRANCH  19  20
ENDBRANCH   6  19
TORSDOF 2
ENDMDL
