MODEL 1
REMARK VINA RESULT:      -8.0      0.000      0.000
REMARK  5 active torsions:
REMARK  status: ('A' for Active; 'I' for Inactive)
REMARK    1  A    between atoms: C_19  and  C_13 
REMARK    2  A    between atoms: C_20  and  C_18 
REMARK    3  A    between atoms: N_30  and  C_18 
REMARK    4  A    between atoms: N_29  and  C_23 
REMARK    5  A    between atoms: O_32  and  C_24 
ROOT
HETATM    1  C   UNK N   1      33.193  13.858   9.024  0.00  0.00     0.025 C 
HETATM    2  C   UNK N   1      32.406  15.093   9.343  0.00  0.00     0.046 C 
HETATM    3  C   UNK N   1      34.190  13.750  10.151  0.00  0.00     0.127 C 
HETATM    4  C   UNK N   1      33.046  17.345   8.481  0.00  0.00     0.024 C 
HETATM    5  C   UNK N   1      33.332  16.284   9.271  0.00  0.00     0.011 C 
HETATM    6  C   UNK N   1      34.627  16.163   9.957  0.00  0.00     0.250 C 
HETATM    7  N   UNK N   1      35.107  14.900  10.200  0.00  0.00    -0.340 N 
HETATM    8  O   UNK N   1      35.353  17.146  10.075  0.00  0.00    -0.268 OA
ENDROOT
BRANCH   4   9
HETATM    9  C   UNK N   1      31.913  17.258   7.547  0.00  0.00    -0.033 A 
HETATM   10  C   UNK N   1      30.623  17.412   8.065  0.00  0.00     0.014 A 
HETATM   11  C   UNK N   1      29.542  17.563   7.240  0.00  0.00     0.034 A 
HETATM   12  C   UNK N   1      29.708  17.567   5.858  0.00  0.00     0.073 A 
HETATM   13  C   UNK N   1      30.996  17.312   5.309  0.00  0.00     0.096 A 
HETATM   14  C   UNK N   1      32.097  17.141   6.175  0.00  0.00     0.050 A 
BRANCH  12  15
HETATM   15  N   UNK N   1      28.582  17.948   5.055  0.00  0.00    -0.314 N 
HETATM   16  C   UNK N   1      28.189  19.221   4.854  0.00  0.00     0.122 A 
HETATM   17  C   UNK N   1      27.192  19.190   3.918  0.00  0.00     0.022 A 
HETATM   18  C   UNK N   1      26.501  20.377   3.353  0.00  0.00     0.069 C 
HETATM   19  N   UNK N   1      26.962  17.920   3.536  0.00  0.00    -0.354 N 
HETATM   20  C   UNK N   1      27.834  17.174   4.246  0.00  0.00     0.188 A 
ATOM     21  HN  UNK N   1      26.275  17.593   2.856  1.00  0.00     0.166 HD
ENDBRANCH  12  15
BRANCH  13  22
HETATM   22  O   UNK N   1      31.177  17.307   3.967  0.00  0.00    -0.354 OA
HETATM   23  C   UNK N   1      32.407  17.128   3.376  0.00  0.00     0.210 C 
ENDBRANCH  13  22
ENDBRANCH   4   9
BRANCH   7  24
HETATM   24  C   UNK N   1      36.543  14.660  10.371  0.00  0.00     0.116 C 
HETATM   25  C   UNK N   1      37.107  13.867   9.187  0.00  0.00     0.037 C 
BRANCH  24  26
HETATM   26  C   UNK N   1      36.808  13.816  11.599  0.00  0.00    -0.035 A 
HETATM   27  C   UNK N   1      36.380  14.231  12.862  0.00  0.00     0.012 A 
HETATM   28  C   UNK N   1      36.577  13.402  13.971  0.00  0.00     0.043 A 
HETATM   29  C   UNK N   1      37.197  12.156  13.820  0.00  0.00     0.116 A 
HETATM   30  C   UNK N   1      37.639  11.741  12.564  0.00  0.00     0.043 A 
HETATM   31  F   UNK N   1      37.369  11.349  14.892  0.00  0.00    -0.206 F 
HETATM   32  C   UNK N   1      37.448  12.566  11.459  0.00  0.00     0.012 A 
ENDBRANCH  24  26
ENDBRANCH   7  24
TORSDOF 5
ENDMDL
MODEL 2
REMARK VINA RESULT:      -7.9      1.475      2.429
REMARK  5 active torsions:
REMARK  status: ('A' for Active; 'I' for Inactive)
REMARK    1  A    between atoms: C_19  and  C_13 
REMARK    2  A    between atoms: C_20  and  C_18 
REMARK    3  A    between atoms: N_30  and  C_18 
REMARK    4  A    between atoms: N_29  and  C_23 
REMARK    5  A    between atoms: O_32  and  C_24 
ROOT
HETATM    1  C   UNK N   1      33.525  13.985   8.939  0.00  0.00     0.025 C 
HETATM    2  C   UNK N   1      32.733  15.230   9.198  0.00  0.00     0.046 C 
HETATM    3  C   UNK N   1      34.350  13.802  10.188  0.00  0.00     0.127 C 
HETATM    4  C   UNK N   1      33.547  17.494   8.531  0.00  0.00     0.024 C 
HETATM    5  C   UNK N   1      33.690  16.393   9.307  0.00  0.00     0.011 C 
HETATM    6  C   UNK N   1      34.872  16.206  10.161  0.00  0.00     0.250 C 
HETATM    7  N   UNK N   1      35.280  14.919  10.416  0.00  0.00    -0.340 N 
HETATM    8  O   UNK N   1      35.600  17.159  10.423  0.00  0.00    -0.268 OA
ENDROOT
BRANCH   4   9
HETATM    9  C   UNK N   1      32.554  17.479   7.446  0.00  0.00    -0.033 A 
HETATM   10  C   UNK N   1      33.019  17.346   6.134  0.00  0.00     0.014 A 
HETATM   11  C   UNK N   1      32.157  17.104   5.098  0.00  0.00     0.034 A 
HETATM   12  C   UNK N   1      30.791  16.983   5.335  0.00  0.00     0.073 A 
HETATM   13  C   UNK N   1      30.286  17.213   6.646  0.00  0.00     0.096 A 
HETATM   14  C   UNK N   1      31.188  17.479   7.698  0.00  0.00     0.050 A 
BRANCH  12  15
HETATM   15  N   UNK N   1      29.970  16.513   4.257  0.00  0.00    -0.314 N 
HETATM   16  C   UNK N   1      30.138  15.329   3.635  0.00  0.00     0.122 A 
HETATM   17  C   UNK N   1      29.079  15.169   2.783  0.00  0.00     0.022 A 
HETATM   18  C   UNK N   1      28.828  13.979   1.932  0.00  0.00     0.069 C 
HETATM   19  N   UNK N   1      28.258  16.233   2.868  0.00  0.00    -0.354 N 
HETATM   20  C   UNK N   1      28.825  17.044   3.786  0.00  0.00     0.188 A 
ATOM     21  HN  UNK N   1      27.394  16.392   2.349  1.00  0.00     0.166 HD
ENDBRANCH  12  15
BRANCH  13  22
HETATM   22  O   UNK N   1      28.960  17.104   6.895  0.00  0.00    -0.354 OA
HETATM   23  C   UNK N   1      28.188  18.159   7.329  0.00  0.00     0.210 C 
ENDBRANCH  13  22
ENDBRANCH   4   9
BRANCH   7  24
HETATM   24  C   UNK N   1      36.672  14.628  10.775  0.00  0.00     0.116 C 
HETATM   25  C   UNK N   1      37.323  13.713   9.732  0.00  0.00     0.037 C 
BRANCH  24  26
HETATM   26  C   UNK N   1      36.745  13.878  12.087  0.00  0.00    -0.035 A 
HETATM   27  C   UNK N   1      36.257  14.445  13.267  0.00  0.00     0.012 A 
HETATM   28  C   UNK N   1      36.274  13.705  14.454  0.00  0.00     0.043 A 
HETATM   29  C   UNK N   1      36.775  12.398  14.464  0.00  0.00     0.116 A 
HETATM   30  C   UNK N   1      37.277  11.831  13.294  0.00  0.00     0.043 A 
HETATM   31  F   UNK N   1      36.773  11.680  15.610  0.00  0.00    -0.206 F 
HETATM   32  C   UNK N   1      37.265  12.566  12.111  0.00  0.00     0.012 A 
ENDBRANCH  24  26
ENDBRANCH   7  24
TORSDOF 5
ENDMDL
MODEL 3
REMARK VINA RESULT:      -7.7      4.078     10.693
REMARK  5 active torsions:
REMARK  status: ('A' for Active; 'I' for Inactive)
REMARK    1  A    between atoms: C_19  and  C_13 
REMARK    2  A    between atoms: C_20  and  C_18 
REMARK    3  A    between atoms: N_30  and  C_18 
REMARK    4  A    between atoms: N_29  and  C_23 
REMARK    5  A    between atoms: O_32  and  C_24 
ROOT
HETATM    1  C   UNK N   1      30.659  15.925   5.478  0.00  0.00     0.025 C 
HETATM    2  C   UNK N   1      31.623  16.788   6.234  0.00  0.00     0.046 C 
HETATM    3  C   UNK N   1      29.539  16.862   5.099  0.00  0.00     0.127 C 
HETATM    4  C   UNK N   1      31.519  17.053   8.714  0.00  0.00     0.024 C 
HETATM    5  C   UNK N   1      30.952  17.261   7.502  0.00  0.00     0.011 C 
HETATM    6  C   UNK N   1      29.589  17.796   7.374  0.00  0.00     0.250 C 
HETATM    7  N   UNK N   1      28.855  17.424   6.274  0.00  0.00    -0.340 N 
HETATM    8  O   UNK N   1      29.051  18.345   8.332  0.00  0.00    -0.268 OA
ENDROOT
BRANCH   4   9
HETATM    9  C   UNK N   1      32.713  16.199   8.807  0.00  0.00    -0.033 A 
HETATM   10  C   UNK N   1      33.956  16.824   8.955  0.00  0.00     0.014 A 
HETATM   11  C   UNK N   1      35.077  16.104   9.268  0.00  0.00     0.034 A 
HETATM   12  C   UNK N   1      35.000  14.726   9.447  0.00  0.00     0.073 A 
HETATM   13  C   UNK N   1      33.767  14.057   9.204  0.00  0.00     0.096 A 
HETATM   14  C   UNK N   1      32.625  14.814   8.866  0.00  0.00     0.050 A 
BRANCH  12  15
HETATM   15  N   UNK N   1      36.151  14.062   9.987  0.00  0.00    -0.314 N 
HETATM   16  C   UNK N   1      37.125  13.504   9.241  0.00  0.00     0.122 A 
HETATM   17  C   UNK N   1      38.116  13.116  10.101  0.00  0.00     0.022 A 
HETATM   18  C   UNK N   1      39.409  12.501   9.706  0.00  0.00     0.069 C 
HETATM   19  N   UNK N   1      37.774  13.426  11.365  0.00  0.00    -0.354 N 
HETATM   20  C   UNK N   1      36.562  14.012  11.269  0.00  0.00     0.188 A 
ATOM     21  HN  UNK N   1      38.314  13.253  12.213  1.00  0.00     0.166 HD
ENDBRANCH  12  15
BRANCH  13  22
HETATM   22  O   UNK N   1      33.673  12.717   9.370  0.00  0.00    -0.354 OA
HETATM   23  C   UNK N   1      33.817  11.821   8.334  0.00  0.00     0.210 C 
ENDBRANCH  13  22
ENDBRANCH   4   9
BRANCH   7  24
HETATM   24  C   UNK N   1      27.390  17.446   6.304  0.00  0.00     0.116 C 
HETATM   25  C   UNK N   1      26.819  16.048   6.039  0.00  0.00     0.037 C 
BRANCH  24  26
HETATM   26  C   UNK N   1      26.840  18.332   5.207  0.00  0.00    -0.035 A 
HETATM   27  C   UNK N   1      25.863  17.863   4.325  0.00  0.00     0.012 A 
HETATM   28  C   UNK N   1      25.324  18.722   3.363  0.00  0.00     0.043 A 
HETATM   29  C   UNK N   1      25.755  20.052   3.283  0.00  0.00     0.116 A 
HETATM   30  C   UNK N   1      26.739  20.523   4.149  0.00  0.00     0.043 A 
HETATM   31  F   UNK N   1      25.216  20.885   2.362  0.00  0.00    -0.206 F 
HETATM   32  C   UNK N   1      27.282  19.669   5.106  0.00  0.00     0.012 A 
ENDBRANCH  24  26
ENDBRANCH   7  24
TORSDOF 5
ENDMDL
MODEL 4
REMARK VINA RESULT:      -7.7      3.549      5.322
REMARK  5 active torsions:
REMARK  status: ('A' for Active; 'I' for Inactive)
REMARK    1  A    between atoms: C_19  and  C_13 
REMARK    2  A    between atoms: C_20  and  C_18 
REMARK    3  A    between atoms: N_30  and  C_18 
REMARK    4  A    between atoms: N_29  and  C_23 
REMARK    5  A    between atoms: O_32  and  C_24 
ROOT
HETATM    1  C   UNK N   1      34.992  12.251  11.655  0.00  0.00     0.025 C 
HETATM    2  C   UNK N   1      34.425  13.637  11.621  0.00  0.00     0.046 C 
HETATM    3  C   UNK N   1      35.125  11.939  13.125  0.00  0.00     0.127 C 
HETATM    4  C   UNK N   1      35.869  15.671  11.530  0.00  0.00     0.024 C 
HETATM    5  C   UNK N   1      35.438  14.586  12.216  0.00  0.00     0.011 C 
HETATM    6  C   UNK N   1      36.057  14.187  13.488  0.00  0.00     0.250 C 
HETATM    7  N   UNK N   1      36.054  12.852  13.811  0.00  0.00    -0.340 N 
HETATM    8  O   UNK N   1      36.762  14.980  14.105  0.00  0.00    -0.268 OA
ENDROOT
BRANCH   4   9
HETATM    9  C   UNK N   1      35.479  15.827  10.121  0.00  0.00    -0.033 A 
HETATM   10  C   UNK N   1      35.869  14.833   9.218  0.00  0.00     0.014 A 
HETATM   11  C   UNK N   1      35.363  14.792   7.947  0.00  0.00     0.034 A 
HETATM   12  C   UNK N   1      34.443  15.748   7.527  0.00  0.00     0.073 A 
HETATM   13  C   UNK N   1      34.109  16.826   8.394  0.00  0.00     0.096 A 
HETATM   14  C   UNK N   1      34.653  16.861   9.696  0.00  0.00     0.050 A 
BRANCH  12  15
HETATM   15  N   UNK N   1      33.785  15.529   6.271  0.00  0.00    -0.314 N 
HETATM   16  C   UNK N   1      34.085  16.183   5.132  0.00  0.00     0.122 A 
HETATM   17  C   UNK N   1      33.365  15.594   4.129  0.00  0.00     0.022 A 
HETATM   18  C   UNK N   1      33.427  15.962   2.691  0.00  0.00     0.069 C 
HETATM   19  N   UNK N   1      32.625  14.586   4.627  0.00  0.00    -0.354 N 
HETATM   20  C   UNK N   1      32.905  14.562   5.947  0.00  0.00     0.188 A 
ATOM     21  HN  UNK N   1      31.989  13.973   4.116  1.00  0.00     0.166 HD
ENDBRANCH  12  15
BRANCH  13  22
HETATM   22  O   UNK N   1      33.219  17.767   8.002  0.00  0.00    -0.354 OA
HETATM   23  C   UNK N   1      31.880  17.714   8.317  0.00  0.00     0.210 C 
ENDBRANCH  13  22
ENDBRANCH   4   9
BRANCH   7  24
HETATM   24  C   UNK N   1      37.056  12.295  14.725  0.00  0.00     0.116 C 
HETATM   25  C   UNK N   1      37.728  11.063  14.111  0.00  0.00     0.037 C 
BRANCH  24  26
HETATM   26  C   UNK N   1      36.411  11.819  16.008  0.00  0.00    -0.035 A 
HETATM   27  C   UNK N   1      36.585  10.507  16.457  0.00  0.00     0.012 A 
HETATM   28  C   UNK N   1      36.034  10.111  17.680  0.00  0.00     0.043 A 
HETATM   29  C   UNK N   1      35.312  11.024  18.458  0.00  0.00     0.116 A 
HETATM   30  C   UNK N   1      35.122  12.330  18.010  0.00  0.00     0.043 A 
HETATM   31  F   UNK N   1      34.797  10.641  19.649  0.00  0.00    -0.206 F 
HETATM   32  C   UNK N   1      35.666  12.727  16.792  0.00  0.00     0.012 A 
ENDBRANCH  24  26
ENDBRANCH   7  24
TORSDOF 5
ENDMDL
MODEL 5
REMARK VINA RESULT:      -7.6      4.072     10.868
REMARK  5 active torsions:
REMARK  status: ('A' for Active; 'I' for Inactive)
REMARK    1  A    between atoms: C_19  and  C_13 
REMARK    2  A    between atoms: C_20  and  C_18 
REMARK    3  A    between atoms: N_30  and  C_18 
REMARK    4  A    between atoms: N_29  and  C_23 
REMARK    5  A    between atoms: O_32  and  C_24 
ROOT
HETATM    1  C   UNK N   1      30.620  16.104   4.293  0.00  0.00     0.025 C 
HETATM    2  C   UNK N   1      31.100  17.124   5.280  0.00  0.00     0.046 C 
HETATM    3  C   UNK N   1      29.452  16.770   3.608  0.00  0.00     0.127 C 
HETATM    4  C   UNK N   1      30.263  17.207   7.630  0.00  0.00     0.024 C 
HETATM    5  C   UNK N   1      30.015  17.347   6.306  0.00  0.00     0.011 C 
HETATM    6  C   UNK N   1      28.650  17.551   5.799  0.00  0.00     0.250 C 
HETATM    7  N   UNK N   1      28.358  17.082   4.541  0.00  0.00    -0.340 N 
HETATM    8  O   UNK N   1      27.755  17.898   6.564  0.00  0.00    -0.268 OA
ENDROOT
BRANCH   4   9
HETATM    9  C   UNK N   1      31.557  16.657   8.060  0.00  0.00    -0.033 A 
HETATM   10  C   UNK N   1      32.552  17.556   8.459  0.00  0.00     0.014 A 
HETATM   11  C   UNK N   1      33.694  17.120   9.076  0.00  0.00     0.034 A 
HETATM   12  C   UNK N   1      33.886  15.764   9.320  0.00  0.00     0.073 A 
HETATM   13  C   UNK N   1      32.935  14.824   8.834  0.00  0.00     0.096 A 
HETATM   14  C   UNK N   1      31.771  15.290   8.185  0.00  0.00     0.050 A 
BRANCH  12  15
HETATM   15  N   UNK N   1      34.988  15.391  10.161  0.00  0.00    -0.314 N 
HETATM   16  C   UNK N   1      34.892  15.174  11.486  0.00  0.00     0.122 A 
HETATM   17  C   UNK N   1      36.101  14.688  11.903  0.00  0.00     0.022 A 
HETATM   18  C   UNK N   1      36.430  14.261  13.286  0.00  0.00     0.069 C 
HETATM   19  N   UNK N   1      36.944  14.600  10.857  0.00  0.00    -0.354 N 
HETATM   20  C   UNK N   1      36.234  15.033   9.794  0.00  0.00     0.188 A 
ATOM     21  HN  UNK N   1      37.911  14.277  10.866  1.00  0.00     0.166 HD
ENDBRANCH  12  15
BRANCH  13  22
HETATM   22  O   UNK N   1      33.107  13.501   9.058  0.00  0.00    -0.354 OA
HETATM   23  C   UNK N   1      33.657  12.646   8.129  0.00  0.00     0.210 C 
ENDBRANCH  13  22
ENDBRANCH   4   9
BRANCH   7  24
HETATM   24  C   UNK N   1      26.981  16.754   4.161  0.00  0.00     0.116 C 
HETATM   25  C   UNK N   1      26.951  15.972   2.843  0.00  0.00     0.037 C 
BRANCH  24  26
HETATM   26  C   UNK N   1      26.174  18.010   3.916  0.00  0.00    -0.035 A 
HETATM   27  C   UNK N   1      26.791  19.189   3.490  0.00  0.00     0.012 A 
HETATM   28  C   UNK N   1      26.016  20.317   3.205  0.00  0.00     0.043 A 
HETATM   29  C   UNK N   1      24.623  20.270   3.342  0.00  0.00     0.116 A 
HETATM   30  C   UNK N   1      24.002  19.102   3.781  0.00  0.00     0.043 A 
HETATM   31  F   UNK N   1      23.875  21.358   3.048  0.00  0.00    -0.206 F 
HETATM   32  C   UNK N   1      24.771  17.978   4.068  0.00  0.00     0.012 A 
ENDBRANCH  24  26
ENDBRANCH   7  24
TORSDOF 5
ENDMDL
MODEL 6
REMARK VINA RESULT:      -7.4      5.833     12.242
REMARK  5 active torsions:
REMARK  status: ('A' for Active; 'I' for Inactive)
REMARK    1  A    between atoms: C_19  and  C_13 
REMARK    2  A    between atoms: C_20  and  C_18 
REMARK    3  A    between atoms: N_30  and  C_18 
REMARK    4  A    between atoms: N_29  and  C_23 
REMARK    5  A    between atoms: O_32  and  C_24 
ROOT
HETATM    1  C   UNK N   1      25.318  15.442   6.513  0.00  0.00     0.025 C 
HETATM    2  C   UNK N   1      26.449  15.806   5.600  0.00  0.00     0.046 C 
HETATM    3  C   UNK N   1      24.085  15.597   5.660  0.00  0.00     0.127 C 
HETATM    4  C   UNK N   1      27.329  18.135   5.426  0.00  0.00     0.024 C 
HETATM    5  C   UNK N   1      26.313  17.263   5.226  0.00  0.00     0.011 C 
HETATM    6  C   UNK N   1      24.983  17.720   4.799  0.00  0.00     0.250 C 
HETATM    7  N   UNK N   1      23.895  16.980   5.194  0.00  0.00    -0.340 N 
HETATM    8  O   UNK N   1      24.840  18.845   4.328  0.00  0.00    -0.268 OA
ENDROOT
BRANCH   4   9
HETATM    9  C   UNK N   1      28.512  17.694   6.182  0.00  0.00    -0.033 A 
HETATM   10  C   UNK N   1      29.655  17.336   5.461  0.00  0.00     0.014 A 
HETATM   11  C   UNK N   1      30.853  17.129   6.090  0.00  0.00     0.034 A 
HETATM   12  C   UNK N   1      30.955  17.273   7.470  0.00  0.00     0.073 A 
HETATM   13  C   UNK N   1      29.784  17.538   8.234  0.00  0.00     0.096 A 
HETATM   14  C   UNK N   1      28.554  17.732   7.570  0.00  0.00     0.050 A 
BRANCH  12  15
HETATM   15  N   UNK N   1      32.271  17.262   8.042  0.00  0.00    -0.314 N 
HETATM   16  C   UNK N   1      32.830  16.192   8.640  0.00  0.00     0.122 A 
HETATM   17  C   UNK N   1      34.131  16.517   8.911  0.00  0.00     0.022 A 
HETATM   18  C   UNK N   1      35.138  15.612   9.522  0.00  0.00     0.069 C 
HETATM   19  N   UNK N   1      34.387  17.770   8.489  0.00  0.00    -0.354 N 
HETATM   20  C   UNK N   1      33.228  18.205   7.953  0.00  0.00     0.188 A 
ATOM     21  HN  UNK N   1      35.268  18.279   8.561  1.00  0.00     0.166 HD
ENDBRANCH  12  15
BRANCH  13  22
HETATM   22  O   UNK N   1      29.864  17.678   9.578  0.00  0.00    -0.354 OA
HETATM   23  C   UNK N   1      29.170  16.878  10.458  0.00  0.00     0.210 C 
ENDBRANCH  13  22
ENDBRANCH   4   9
BRANCH   7  24
HETATM   24  C   UNK N   1      22.565  17.590   5.293  0.00  0.00     0.116 C 
HETATM   25  C   UNK N   1      21.714  16.872   6.345  0.00  0.00     0.037 C 
BRANCH  24  26
HETATM   26  C   UNK N   1      21.811  17.457   3.988  0.00  0.00    -0.035 A 
HETATM   27  C   UNK N   1      21.624  16.208   3.391  0.00  0.00     0.012 A 
HETATM   28  C   UNK N   1      20.866  16.102   2.220  0.00  0.00     0.043 A 
HETATM   29  C   UNK N   1      20.290  17.242   1.647  0.00  0.00     0.116 A 
HETATM   30  C   UNK N   1      20.484  18.493   2.230  0.00  0.00     0.043 A 
HETATM   31  F   UNK N   1      19.542  17.133   0.525  0.00  0.00    -0.206 F 
HETATM   32  C   UNK N   1      21.242  18.603   3.393  0.00  0.00     0.012 A 
ENDBRANCH  24  26
ENDBRANCH   7  24
TORSDOF 5
ENDMDL
MODEL 7
REMARK VINA RESULT:      -7.4     14.098     17.747
REMARK  5 active torsions:
REMARK  status: ('A' for Active; 'I' for Inactive)
REMARK    1  A    between atoms: C_19  and  C_13 
REMARK    2  A    between atoms: C_20  and  C_18 
REMARK    3  A    between atoms: N_30  and  C_18 
REMARK    4  A    between atoms: N_29  and  C_23 
REMARK    5  A    between atoms: O_32  and  C_24 
ROOT
HETATM    1  C   UNK N   1      30.516  25.054  -4.877  0.00  0.00     0.025 C 
HETATM    2  C   UNK N   1      31.083  24.272  -3.732  0.00  0.00     0.046 C 
HETATM    3  C   UNK N   1      29.441  25.907  -4.250  0.00  0.00     0.127 C 
HETATM    4  C   UNK N   1      30.212  22.023  -3.088  0.00  0.00     0.024 C 
HETATM    5  C   UNK N   1      30.008  23.357  -3.196  0.00  0.00     0.011 C 
HETATM    6  C   UNK N   1      28.684  23.952  -2.961  0.00  0.00     0.250 C 
HETATM    7  N   UNK N   1      28.368  25.102  -3.644  0.00  0.00    -0.340 N 
HETATM    8  O   UNK N   1      27.816  23.310  -2.377  0.00  0.00    -0.268 OA
ENDROOT
BRANCH   4   9
HETATM    9  C   UNK N   1      31.430  21.437  -3.668  0.00  0.00    -0.033 A 
HETATM   10  C   UNK N   1      32.551  21.305  -2.842  0.00  0.00     0.014 A 
HETATM   11  C   UNK N   1      33.640  20.575  -3.238  0.00  0.00     0.034 A 
HETATM   12  C   UNK N   1      33.650  19.947  -4.480  0.00  0.00     0.073 A 
HETATM   13  C   UNK N   1      32.563  20.151  -5.376  0.00  0.00     0.096 A 
HETATM   14  C   UNK N   1      31.456  20.920  -4.957  0.00  0.00     0.050 A 
BRANCH  12  15
HETATM   15  N   UNK N   1      34.714  19.022  -4.747  0.00  0.00    -0.314 N 
HETATM   16  C   UNK N   1      35.890  19.360  -5.309  0.00  0.00     0.122 A 
HETATM   17  C   UNK N   1      36.695  18.255  -5.253  0.00  0.00     0.022 A 
HETATM   18  C   UNK N   1      38.105  18.189  -5.713  0.00  0.00     0.069 C 
HETATM   19  N   UNK N   1      36.036  17.239  -4.665  0.00  0.00    -0.354 N 
HETATM   20  C   UNK N   1      34.821  17.737  -4.357  0.00  0.00     0.188 A 
ATOM     21  HN  UNK N   1      36.382  16.295  -4.491  1.00  0.00     0.166 HD
ENDBRANCH  12  15
BRANCH  13  22
HETATM   22  O   UNK N   1      32.557  19.551  -6.589  0.00  0.00    -0.354 OA
HETATM   23  C   UNK N   1      31.601  19.805  -7.548  0.00  0.00     0.210 C 
ENDBRANCH  13  22
ENDBRANCH   4   9
BRANCH   7  24
HETATM   24  C   UNK N   1      26.972  25.466  -3.901  0.00  0.00     0.116 C 
HETATM   25  C   UNK N   1      26.467  24.811  -5.191  0.00  0.00     0.037 C 
BRANCH  24  26
HETATM   26  C   UNK N   1      26.833  26.958  -4.112  0.00  0.00    -0.035 A 
HETATM   27  C   UNK N   1      26.577  27.815  -3.039  0.00  0.00     0.012 A 
HETATM   28  C   UNK N   1      26.520  29.196  -3.250  0.00  0.00     0.043 A 
HETATM   29  C   UNK N   1      26.722  29.724  -4.531  0.00  0.00     0.116 A 
HETATM   30  C   UNK N   1      26.963  28.874  -5.608  0.00  0.00     0.043 A 
HETATM   31  F   UNK N   1      26.684  31.062  -4.727  0.00  0.00    -0.206 F 
HETATM   32  C   UNK N   1      27.017  27.498  -5.403  0.00  0.00     0.012 A 
ENDBRANCH  24  26
ENDBRANCH   7  24
TORSDOF 5
ENDMDL
MODEL 8
REMARK VINA RESULT:      -7.3      5.652     11.899
REMARK  5 active torsions:
REMARK  status: ('A' for Active; 'I' for Inactive)
REMARK    1  A    between atoms: C_19  and  C_13 
REMARK    2  A    between atoms: C_20  and  C_18 
REMARK    3  A    between atoms: N_30  and  C_18 
REMARK    4  A    between atoms: N_29  and  C_23 
REMARK    5  A    between atoms: O_32  and  C_24 
ROOT
HETATM    1  C   UNK N   1      25.825  15.542   6.603  0.00  0.00     0.025 C 
HETATM    2  C   UNK N   1      26.821  15.971   5.569  0.00  0.00     0.046 C 
HETATM    3  C   UNK N   1      24.517  15.473   5.854  0.00  0.00     0.127 C 
HETATM    4  C   UNK N   1      27.370  18.371   5.157  0.00  0.00     0.024 C 
HETATM    5  C   UNK N   1      26.465  17.365   5.109  0.00  0.00     0.011 C 
HETATM    6  C   UNK N   1      25.056  17.616   4.773  0.00  0.00     0.250 C 
HETATM    7  N   UNK N   1      24.110  16.779   5.313  0.00  0.00    -0.340 N 
HETATM    8  O   UNK N   1      24.729  18.673   4.240  0.00  0.00    -0.268 OA
ENDROOT
BRANCH   4   9
HETATM    9  C   UNK N   1      28.657  18.143   5.832  0.00  0.00    -0.033 A 
HETATM   10  C   UNK N   1      28.696  18.255   7.225  0.00  0.00     0.014 A 
HETATM   11  C   UNK N   1      29.790  17.846   7.938  0.00  0.00     0.034 A 
HETATM   12  C   UNK N   1      30.893  17.306   7.283  0.00  0.00     0.073 A 
HETATM   13  C   UNK N   1      30.915  17.275   5.860  0.00  0.00     0.096 A 
HETATM   14  C   UNK N   1      29.784  17.717   5.141  0.00  0.00     0.050 A 
BRANCH  12  15
HETATM   15  N   UNK N   1      31.911  16.695   8.090  0.00  0.00    -0.314 N 
HETATM   16  C   UNK N   1      33.103  17.260   8.363  0.00  0.00     0.122 A 
HETATM   17  C   UNK N   1      33.726  16.458   9.280  0.00  0.00     0.022 A 
HETATM   18  C   UNK N   1      35.046  16.725   9.905  0.00  0.00     0.069 C 
HETATM   19  N   UNK N   1      32.939  15.407   9.579  0.00  0.00    -0.354 N 
HETATM   20  C   UNK N   1      31.825  15.579   8.838  0.00  0.00     0.188 A 
ATOM     21  HN  UNK N   1      33.143  14.645  10.226  1.00  0.00     0.166 HD
ENDBRANCH  12  15
BRANCH  13  22
HETATM   22  O   UNK N   1      31.981  16.758   5.205  0.00  0.00    -0.354 OA
HETATM   23  C   UNK N   1      32.813  17.513   4.409  0.00  0.00     0.210 C 
ENDBRANCH  13  22
ENDBRANCH   4   9
BRANCH   7  24
HETATM   24  C   UNK N   1      22.724  17.224   5.489  0.00  0.00     0.116 C 
HETATM   25  C   UNK N   1      21.987  16.324   6.487  0.00  0.00     0.037 C 
BRANCH  24  26
HETATM   26  C   UNK N   1      21.954  17.119   4.191  0.00  0.00    -0.035 A 
HETATM   27  C   UNK N   1      21.937  15.929   3.459  0.00  0.00     0.012 A 
HETATM   28  C   UNK N   1      21.164  15.837   2.297  0.00  0.00     0.043 A 
HETATM   29  C   UNK N   1      20.405  16.931   1.866  0.00  0.00     0.116 A 
HETATM   30  C   UNK N   1      20.428  18.126   2.583  0.00  0.00     0.043 A 
HETATM   31  F   UNK N   1      19.644  16.832   0.752  0.00  0.00    -0.206 F 
HETATM   32  C   UNK N   1      21.200  18.223   3.738  0.00  0.00     0.012 A 
ENDBRANCH  24  26
ENDBRANCH   7  24
TORSDOF 5
ENDMDL
MODEL 9
REMARK VINA RESULT:      -7.2     17.918     20.033
REMARK  5 active torsions:
REMARK  status: ('A' for Active; 'I' for Inactive)
REMARK    1  A    between atoms: C_19  and  C_13 
REMARK    2  A    between atoms: C_20  and  C_18 
REMARK    3  A    between atoms: N_30  and  C_18 
REMARK    4  A    between atoms: N_29  and  C_23 
REMARK    5  A    between atoms: O_32  and  C_24 
ROOT
HETATM    1  C   UNK N   1      29.155  24.042  -6.800  0.00  0.00     0.025 C 
HETATM    2  C   UNK N   1      28.741  22.631  -6.512  0.00  0.00     0.046 C 
HETATM    3  C   UNK N   1      28.096  24.885  -6.135  0.00  0.00     0.127 C 
HETATM    4  C   UNK N   1      27.277  21.327  -8.057  0.00  0.00     0.024 C 
HETATM    5  C   UNK N   1      27.424  22.367  -7.203  0.00  0.00     0.011 C 
HETATM    6  C   UNK N   1      26.372  23.382  -7.042  0.00  0.00     0.250 C 
HETATM    7  N   UNK N   1      26.758  24.656  -6.704  0.00  0.00    -0.340 N 
HETATM    8  O   UNK N   1      25.232  23.154  -7.438  0.00  0.00    -0.268 OA
ENDROOT
BRANCH   4   9
HETATM    9  C   UNK N   1      28.464  20.553  -8.451  0.00  0.00    -0.033 A 
HETATM   10  C   UNK N   1      28.747  19.380  -7.745  0.00  0.00     0.014 A 
HETATM   11  C   UNK N   1      29.695  18.497  -8.188  0.00  0.00     0.034 A 
HETATM   12  C   UNK N   1      30.400  18.754  -9.360  0.00  0.00     0.073 A 
HETATM   13  C   UNK N   1      30.199  19.988 -10.041  0.00  0.00     0.096 A 
HETATM   14  C   UNK N   1      29.230  20.894  -9.560  0.00  0.00     0.050 A 
BRANCH  12  15
HETATM   15  N   UNK N   1      31.215  17.698  -9.890  0.00  0.00    -0.314 N 
HETATM   16  C   UNK N   1      32.350  17.254  -9.315  0.00  0.00     0.122 A 
HETATM   17  C   UNK N   1      32.749  16.150 -10.016  0.00  0.00     0.022 A 
HETATM   18  C   UNK N   1      33.929  15.306  -9.698  0.00  0.00     0.069 C 
HETATM   19  N   UNK N   1      31.880  15.901 -11.014  0.00  0.00    -0.354 N 
HETATM   20  C   UNK N   1      30.941  16.865 -10.912  0.00  0.00     0.188 A 
ATOM     21  HN  UNK N   1      31.923  15.147 -11.699  1.00  0.00     0.166 HD
ENDBRANCH  12  15
BRANCH  13  22
HETATM   22  O   UNK N   1      30.878  20.257 -11.180  0.00  0.00    -0.354 OA
HETATM   23  C   UNK N   1      30.261  20.439 -12.397  0.00  0.00     0.210 C 
ENDBRANCH  13  22
ENDBRANCH   4   9
BRANCH   7  24
HETATM   24  C   UNK N   1      25.914  25.809  -7.029  0.00  0.00     0.116 C 
HETATM   25  C   UNK N   1      26.278  26.379  -8.405  0.00  0.00     0.037 C 
BRANCH  24  26
HETATM   26  C   UNK N   1      26.135  26.936  -6.043  0.00  0.00    -0.035 A 
HETATM   27  C   UNK N   1      27.005  27.989  -6.337  0.00  0.00     0.012 A 
HETATM   28  C   UNK N   1      27.141  29.051  -5.438  0.00  0.00     0.043 A 
HETATM   29  C   UNK N   1      26.406  29.066  -4.247  0.00  0.00     0.116 A 
HETATM   30  C   UNK N   1      25.547  28.012  -3.940  0.00  0.00     0.043 A 
HETATM   31  F   UNK N   1      26.527  30.105  -3.389  0.00  0.00    -0.206 F 
HETATM   32  C   UNK N   1      25.412  26.951  -4.830  0.00  0.00     0.012 A 
ENDBRANCH  24  26
ENDBRANCH   7  24
TORSDOF 5
ENDMDL
