MODEL 1
REMARK VINA RESULT:      -4.5      0.000      0.000
REMARK  7 active torsions:
REMARK  status: ('A' for Active; 'I' for Inactive)
REMARK    1  A    between atoms: C_2  and  C_3 
REMARK    2  A    between atoms: C_3  and  C_4 
REMARK    3  A    between atoms: C_4  and  O_6 
REMARK    4  A    between atoms: O_6  and  C_7 
REMARK    5  A    between atoms: C_7  and  O_8 
REMARK    6  A    between atoms: O_8  and  C_9 
REMARK    7  A    between atoms: C_9  and  C_11 
ROOT
HETATM    1  C   UNK N   1      34.650  18.460   8.146  0.00  0.00     0.358 C 
ENDROOT
BRANCH   1   2
HETATM    2  O   UNK N   1      34.067  17.499   8.970  0.00  0.00    -0.295 OA
BRANCH   2   3
HETATM    3  C   UNK N   1      34.706  16.703   9.883  0.00  0.00     0.260 C 
HETATM    4  O   UNK N   1      35.626  17.122  10.564  0.00  0.00    -0.265 OA
BRANCH   3   5
HETATM    5  C   UNK N   1      34.279  15.281  10.058  0.00  0.00     0.111 C 
BRANCH   5   6
HETATM    6  C   UNK N   1      32.905  15.043   9.458  0.00  0.00     0.005 C 
HETATM    7  C   UNK N   1      32.946  13.861   8.511  0.00  0.00     0.005 C 
ENDBRANCH   5   6
ENDBRANCH   3   5
ENDBRANCH   2   3
ENDBRANCH   1   2
BRANCH   1   8
HETATM    8  O   UNK N   1      34.352  18.249   6.821  0.00  0.00    -0.294 OA
BRANCH   8   9
HETATM    9  C   UNK N   1      34.069  17.049   6.244  0.00  0.00     0.268 C 
HETATM   10  O   UNK N   1      34.929  16.190   6.262  0.00  0.00    -0.264 OA
BRANCH   9  11
HETATM   11  C   UNK N   1      32.760  16.750   5.524  0.00  0.00     0.037 C 
HETATM   12  C   UNK N   1      31.596  16.947   6.477  0.00  0.00     0.025 C 
HETATM   13  C   UNK N   1      32.778  15.295   5.083  0.00  0.00     0.025 C 
HETATM   14  C   UNK N   1      32.516  17.591   4.285  0.00  0.00     0.025 C 
ENDBRANCH   9  11
ENDBRANCH   8   9
ENDBRANCH   1   8
TORSDOF 7
ENDMDL
MODEL 2
REMARK VINA RESULT:      -4.4      0.737      4.357
REMARK  7 active torsions:
REMARK  status: ('A' for Active; 'I' for Inactive)
REMARK    1  A    between atoms: C_2  and  C_3 
REMARK    2  A    between atoms: C_3  and  C_4 
REMARK    3  A    between atoms: C_4  and  O_6 
REMARK    4  A    between atoms: O_6  and  C_7 
REMARK    5  A    between atoms: C_7  and  O_8 
REMARK    6  A    between atoms: O_8  and  C_9 
REMARK    7  A    between atoms: C_9  and  C_11 
ROOT
HETATM    1  C   UNK N   1      34.655  18.457   8.098  0.00  0.00     0.358 C 
ENDROOT
BRANCH   1   2
HETATM    2  O   UNK N   1      34.238  18.170   6.801  0.00  0.00    -0.295 OA
BRANCH   2   3
HETATM    3  C   UNK N   1      34.138  16.931   6.224  0.00  0.00     0.260 C 
HETATM    4  O   UNK N   1      35.095  16.179   6.155  0.00  0.00    -0.265 OA
BRANCH   3   5
HETATM    5  C   UNK N   1      32.832  16.478   5.655  0.00  0.00     0.111 C 
BRANCH   5   6
HETATM    6  C   UNK N   1      31.667  17.181   6.329  0.00  0.00     0.005 C 
HETATM    7  C   UNK N   1      30.655  16.164   6.816  0.00  0.00     0.005 C 
ENDBRANCH   5   6
ENDBRANCH   3   5
ENDBRANCH   2   3
ENDBRANCH   1   2
BRANCH   1   8
HETATM    8  O   UNK N   1      34.112  17.591   9.017  0.00  0.00    -0.294 OA
BRANCH   8   9
HETATM    9  C   UNK N   1      34.806  16.776   9.858  0.00  0.00     0.268 C 
HETATM   10  O   UNK N   1      35.673  17.276  10.549  0.00  0.00    -0.264 OA
BRANCH   9  11
HETATM   11  C   UNK N   1      34.598  15.269   9.930  0.00  0.00     0.037 C 
HETATM   12  C   UNK N   1      35.708  14.565   9.172  0.00  0.00     0.025 C 
HETATM   13  C   UNK N   1      33.274  14.935   9.262  0.00  0.00     0.025 C 
HETATM   14  C   UNK N   1      34.544  14.706  11.338  0.00  0.00     0.025 C 
ENDBRANCH   9  11
ENDBRANCH   8   9
ENDBRANCH   1   8
TORSDOF 7
ENDMDL
MODEL 3
REMARK VINA RESULT:      -4.4     12.616     15.313
REMARK  7 active torsions:
REMARK  status: ('A' for Active; 'I' for Inactive)
REMARK    1  A    between atoms: C_2  and  C_3 
REMARK    2  A    between atoms: C_3  and  C_4 
REMARK    3  A    between atoms: C_4  and  O_6 
REMARK    4  A    between atoms: O_6  and  C_7 
REMARK    5  A    between atoms: C_7  and  O_8 
REMARK    6  A    between atoms: O_8  and  C_9 
REMARK    7  A    between atoms: C_9  and  C_11 
ROOT
HETATM    1  C   UNK N   1      28.887  24.447  -3.986  0.00  0.00     0.358 C 
ENDROOT
BRANCH   1   2
HETATM    2  O   UNK N   1      29.984  24.394  -3.129  0.00  0.00    -0.295 OA
BRANCH   2   3
HETATM    3  C   UNK N   1      30.545  23.271  -2.579  0.00  0.00     0.260 C 
HETATM    4  O   UNK N   1      30.403  22.998  -1.400  0.00  0.00    -0.265 OA
BRANCH   3   5
HETATM    5  C   UNK N   1      31.358  22.351  -3.432  0.00  0.00     0.111 C 
BRANCH   5   6
HETATM    6  C   UNK N   1      30.583  21.090  -3.770  0.00  0.00     0.005 C 
HETATM    7  C   UNK N   1      30.400  20.977  -5.270  0.00  0.00     0.005 C 
ENDBRANCH   5   6
ENDBRANCH   3   5
ENDBRANCH   2   3
ENDBRANCH   1   2
BRANCH   1   8
HETATM    8  O   UNK N   1      28.202  25.633  -3.871  0.00  0.00    -0.294 OA
BRANCH   8   9
HETATM    9  C   UNK N   1      26.857  25.796  -3.999  0.00  0.00     0.268 C 
HETATM   10  O   UNK N   1      26.131  24.938  -3.535  0.00  0.00    -0.264 OA
BRANCH   9  11
HETATM   11  C   UNK N   1      26.218  26.960  -4.746  0.00  0.00     0.037 C 
HETATM   12  C   UNK N   1      25.667  27.964  -3.751  0.00  0.00     0.025 C 
HETATM   13  C   UNK N   1      25.063  26.422  -5.574  0.00  0.00     0.025 C 
HETATM   14  C   UNK N   1      27.150  27.687  -5.698  0.00  0.00     0.025 C 
ENDBRANCH   9  11
ENDBRANCH   8   9
ENDBRANCH   1   8
TORSDOF 7
ENDMDL
MODEL 4
REMARK VINA RESULT:      -4.3     11.779     14.923
REMARK  7 active torsions:
REMARK  status: ('A' for Active; 'I' for Inactive)
REMARK    1  A    between atoms: C_2  and  C_3 
REMARK    2  A    between atoms: C_3  and  C_4 
REMARK    3  A    between atoms: C_4  and  O_6 
REMARK    4  A    between atoms: O_6  and  C_7 
REMARK    5  A    between atoms: C_7  and  O_8 
REMARK    6  A    between atoms: O_8  and  C_9 
REMARK    7  A    between atoms: C_9  and  C_11 
ROOT
HETATM    1  C   UNK N   1      29.083  23.603  -4.319  0.00  0.00     0.358 C 
ENDROOT
BRANCH   1   2
HETATM    2  O   UNK N   1      28.426  24.660  -3.692  0.00  0.00    -0.295 OA
BRANCH   2   3
HETATM    3  C   UNK N   1      27.076  24.793  -3.504  0.00  0.00     0.260 C 
HETATM    4  O   UNK N   1      26.417  23.920  -2.966  0.00  0.00    -0.265 OA
BRANCH   3   5
HETATM    5  C   UNK N   1      26.378  26.031  -3.967  0.00  0.00     0.111 C 
BRANCH   5   6
HETATM    6  C   UNK N   1      25.640  25.788  -5.272  0.00  0.00     0.005 C 
HETATM    7  C   UNK N   1      24.877  27.033  -5.679  0.00  0.00     0.005 C 
ENDBRANCH   5   6
ENDBRANCH   3   5
ENDBRANCH   2   3
ENDBRANCH   1   2
BRANCH   1   8
HETATM    8  O   UNK N   1      29.465  22.633  -3.424  0.00  0.00    -0.294 OA
BRANCH   8   9
HETATM    9  C   UNK N   1      30.714  22.462  -2.912  0.00  0.00     0.268 C 
HETATM   10  O   UNK N   1      30.943  22.912  -1.805  0.00  0.00    -0.264 OA
BRANCH   9  11
HETATM   11  C   UNK N   1      31.854  21.799  -3.676  0.00  0.00     0.037 C 
HETATM   12  C   UNK N   1      31.313  20.641  -4.494  0.00  0.00     0.025 C 
HETATM   13  C   UNK N   1      32.850  21.249  -2.668  0.00  0.00     0.025 C 
HETATM   14  C   UNK N   1      32.618  22.727  -4.600  0.00  0.00     0.025 C 
ENDBRANCH   9  11
ENDBRANCH   8   9
ENDBRANCH   1   8
TORSDOF 7
ENDMDL
MODEL 5
REMARK VINA RESULT:      -4.3      3.977      7.442
REMARK  7 active torsions:
REMARK  status: ('A' for Active; 'I' for Inactive)
REMARK    1  A    between atoms: C_2  and  C_3 
REMARK    2  A    between atoms: C_3  and  C_4 
REMARK    3  A    between atoms: C_4  and  O_6 
REMARK    4  A    between atoms: O_6  and  C_7 
REMARK    5  A    between atoms: C_7  and  O_8 
REMARK    6  A    between atoms: O_8  and  C_9 
REMARK    7  A    between atoms: C_9  and  C_11 
ROOT
HETATM    1  C   UNK N   1      35.347  14.376  11.602  0.00  0.00     0.358 C 
ENDROOT
BRANCH   1   2
HETATM    2  O   UNK N   1      34.579  15.447  11.149  0.00  0.00    -0.295 OA
BRANCH   2   3
HETATM    3  C   UNK N   1      34.944  16.386  10.221  0.00  0.00     0.260 C 
HETATM    4  O   UNK N   1      35.644  17.339  10.517  0.00  0.00    -0.265 OA
BRANCH   3   5
HETATM    5  C   UNK N   1      34.476  16.257   8.807  0.00  0.00     0.111 C 
BRANCH   5   6
HETATM    6  C   UNK N   1      34.397  17.614   8.130  0.00  0.00     0.005 C 
HETATM    7  C   UNK N   1      32.964  18.107   8.117  0.00  0.00     0.005 C 
ENDBRANCH   5   6
ENDBRANCH   3   5
ENDBRANCH   2   3
ENDBRANCH   1   2
BRANCH   1   8
HETATM    8  O   UNK N   1      34.871  13.868  12.787  0.00  0.00    -0.294 OA
BRANCH   8   9
HETATM    9  C   UNK N   1      35.589  13.690  13.929  0.00  0.00     0.268 C 
HETATM   10  O   UNK N   1      36.540  14.422  14.124  0.00  0.00    -0.264 OA
BRANCH   9  11
HETATM   11  C   UNK N   1      35.306  12.583  14.937  0.00  0.00     0.037 C 
HETATM   12  C   UNK N   1      36.582  11.812  15.219  0.00  0.00     0.025 C 
HETATM   13  C   UNK N   1      34.293  11.628  14.328  0.00  0.00     0.025 C 
HETATM   14  C   UNK N   1      34.732  13.063  16.256  0.00  0.00     0.025 C 
ENDBRANCH   9  11
ENDBRANCH   8   9
ENDBRANCH   1   8
TORSDOF 7
ENDMDL
MODEL 6
REMARK VINA RESULT:      -4.2     15.745     17.698
REMARK  7 active torsions:
REMARK  status: ('A' for Active; 'I' for Inactive)
REMARK    1  A    between atoms: C_2  and  C_3 
REMARK    2  A    between atoms: C_3  and  C_4 
REMARK    3  A    between atoms: C_4  and  O_6 
REMARK    4  A    between atoms: O_6  and  C_7 
REMARK    5  A    between atoms: C_7  and  O_8 
REMARK    6  A    between atoms: O_8  and  C_9 
REMARK    7  A    between atoms: C_9  and  C_11 
ROOT
HETATM    1  C   UNK N   1      26.912  24.766  -3.597  0.00  0.00     0.358 C 
ENDROOT
BRANCH   1   2
HETATM    2  O   UNK N   1      26.409  25.842  -2.869  0.00  0.00    -0.295 OA
BRANCH   2   3
HETATM    3  C   UNK N   1      26.363  27.153  -3.264  0.00  0.00     0.260 C 
HETATM    4  O   UNK N   1      25.470  27.899  -2.900  0.00  0.00    -0.265 OA
BRANCH   3   5
HETATM    5  C   UNK N   1      27.422  27.696  -4.167  0.00  0.00     0.111 C 
BRANCH   5   6
HETATM    6  C   UNK N   1      26.813  28.454  -5.334  0.00  0.00     0.005 C 
HETATM    7  C   UNK N   1      27.413  27.972  -6.639  0.00  0.00     0.005 C 
ENDBRANCH   5   6
ENDBRANCH   3   5
ENDBRANCH   2   3
ENDBRANCH   1   2
BRANCH   1   8
HETATM    8  O   UNK N   1      25.964  24.219  -4.429  0.00  0.00    -0.294 OA
BRANCH   8   9
HETATM    9  C   UNK N   1      25.694  24.612  -5.703  0.00  0.00     0.268 C 
HETATM   10  O   UNK N   1      24.923  25.538  -5.863  0.00  0.00    -0.264 OA
BRANCH   9  11
HETATM   11  C   UNK N   1      26.253  23.913  -6.935  0.00  0.00     0.037 C 
HETATM   12  C   UNK N   1      25.708  24.572  -8.188  0.00  0.00     0.025 C 
HETATM   13  C   UNK N   1      25.790  22.465  -6.916  0.00  0.00     0.025 C 
HETATM   14  C   UNK N   1      27.768  23.897  -7.020  0.00  0.00     0.025 C 
ENDBRANCH   9  11
ENDBRANCH   8   9
ENDBRANCH   1   8
TORSDOF 7
ENDMDL
MODEL 7
REMARK VINA RESULT:      -4.2     10.332     12.342
REMARK  7 active torsions:
REMARK  status: ('A' for Active; 'I' for Inactive)
REMARK    1  A    between atoms: C_2  and  C_3 
REMARK    2  A    between atoms: C_3  and  C_4 
REMARK    3  A    between atoms: C_4  and  O_6 
REMARK    4  A    between atoms: O_6  and  C_7 
REMARK    5  A    between atoms: C_7  and  O_8 
REMARK    6  A    between atoms: O_8  and  C_9 
REMARK    7  A    between atoms: C_9  and  C_11 
ROOT
HETATM    1  C   UNK N   1      23.350  20.526   2.564  0.00  0.00     0.358 C 
ENDROOT
BRANCH   1   2
HETATM    2  O   UNK N   1      22.133  21.140   2.852  0.00  0.00    -0.295 OA
BRANCH   2   3
HETATM    3  C   UNK N   1      20.914  20.529   2.983  0.00  0.00     0.260 C 
HETATM    4  O   UNK N   1      20.159  20.799   3.901  0.00  0.00    -0.265 OA
BRANCH   3   5
HETATM    5  C   UNK N   1      20.486  19.499   1.988  0.00  0.00     0.111 C 
BRANCH   5   6
HETATM    6  C   UNK N   1      19.677  18.398   2.651  0.00  0.00     0.005 C 
HETATM    7  C   UNK N   1      20.215  17.040   2.249  0.00  0.00     0.005 C 
ENDBRANCH   5   6
ENDBRANCH   3   5
ENDBRANCH   2   3
ENDBRANCH   1   2
BRANCH   1   8
HETATM    8  O   UNK N   1      24.224  20.597   3.622  0.00  0.00    -0.294 OA
BRANCH   8   9
HETATM    9  C   UNK N   1      25.581  20.535   3.545  0.00  0.00     0.268 C 
HETATM   10  O   UNK N   1      26.114  20.927   2.525  0.00  0.00    -0.264 OA
BRANCH   9  11
HETATM   11  C   UNK N   1      26.459  19.940   4.639  0.00  0.00     0.037 C 
HETATM   12  C   UNK N   1      25.943  18.564   5.015  0.00  0.00     0.025 C 
HETATM   13  C   UNK N   1      26.371  20.836   5.864  0.00  0.00     0.025 C 
HETATM   14  C   UNK N   1      27.927  19.822   4.276  0.00  0.00     0.025 C 
ENDBRANCH   9  11
ENDBRANCH   8   9
ENDBRANCH   1   8
TORSDOF 7
ENDMDL
MODEL 8
REMARK VINA RESULT:      -4.1      3.545      4.989
REMARK  7 active torsions:
REMARK  status: ('A' for Active; 'I' for Inactive)
REMARK    1  A    between atoms: C_2  and  C_3 
REMARK    2  A    between atoms: C_3  and  C_4 
REMARK    3  A    between atoms: C_4  and  O_6 
REMARK    4  A    between atoms: O_6  and  C_7 
REMARK    5  A    between atoms: C_7  and  O_8 
REMARK    6  A    between atoms: O_8  and  C_9 
REMARK    7  A    between atoms: C_9  and  C_11 
ROOT
HETATM    1  C   UNK N   1      35.561  14.686  11.121  0.00  0.00     0.358 C 
ENDROOT
BRANCH   1   2
HETATM    2  O   UNK N   1      35.991  14.819  12.439  0.00  0.00    -0.295 OA
BRANCH   2   3
HETATM    3  C   UNK N   1      35.701  13.986  13.487  0.00  0.00     0.260 C 
HETATM    4  O   UNK N   1      34.686  13.312  13.506  0.00  0.00    -0.265 OA
BRANCH   3   5
HETATM    5  C   UNK N   1      36.639  13.895  14.647  0.00  0.00     0.111 C 
BRANCH   5   6
HETATM    6  C   UNK N   1      36.656  12.492  15.229  0.00  0.00     0.005 C 
HETATM    7  C   UNK N   1      37.630  11.621  14.461  0.00  0.00     0.005 C 
ENDBRANCH   5   6
ENDBRANCH   3   5
ENDBRANCH   2   3
ENDBRANCH   1   2
BRANCH   1   8
HETATM    8  O   UNK N   1      34.659  15.663  10.773  0.00  0.00    -0.294 OA
BRANCH   8   9
HETATM    9  C   UNK N   1      34.888  16.699   9.922  0.00  0.00     0.268 C 
HETATM   10  O   UNK N   1      35.633  17.587  10.292  0.00  0.00    -0.264 OA
BRANCH   9  11
HETATM   11  C   UNK N   1      34.212  16.838   8.564  0.00  0.00     0.037 C 
HETATM   12  C   UNK N   1      34.328  18.271   8.080  0.00  0.00     0.025 C 
HETATM   13  C   UNK N   1      32.738  16.504   8.726  0.00  0.00     0.025 C 
HETATM   14  C   UNK N   1      34.763  15.920   7.488  0.00  0.00     0.025 C 
ENDBRANCH   9  11
ENDBRANCH   8   9
ENDBRANCH   1   8
TORSDOF 7
ENDMDL
MODEL 9
REMARK VINA RESULT:      -4.0      1.339      2.127
REMARK  7 active torsions:
REMARK  status: ('A' for Active; 'I' for Inactive)
REMARK    1  A    between atoms: C_2  and  C_3 
REMARK    2  A    between atoms: C_3  and  C_4 
REMARK    3  A    between atoms: C_4  and  O_6 
REMARK    4  A    between atoms: O_6  and  C_7 
REMARK    5  A    between atoms: C_7  and  O_8 
REMARK    6  A    between atoms: O_8  and  C_9 
REMARK    7  A    between atoms: C_9  and  C_11 
ROOT
HETATM    1  C   UNK N   1      35.049  15.346   7.730  0.00  0.00     0.358 C 
ENDROOT
BRANCH   1   2
HETATM    2  O   UNK N   1      34.438  16.049   8.766  0.00  0.00    -0.295 OA
BRANCH   2   3
HETATM    3  C   UNK N   1      35.060  16.694   9.802  0.00  0.00     0.260 C 
HETATM    4  O   UNK N   1      35.325  17.883   9.747  0.00  0.00    -0.265 OA
BRANCH   3   5
HETATM    5  C   UNK N   1      35.434  15.936  11.034  0.00  0.00     0.111 C 
BRANCH   5   6
HETATM    6  C   UNK N   1      34.438  14.826  11.319  0.00  0.00     0.005 C 
HETATM    7  C   UNK N   1      35.122  13.477  11.235  0.00  0.00     0.005 C 
ENDBRANCH   5   6
ENDBRANCH   3   5
ENDBRANCH   2   3
ENDBRANCH   1   2
BRANCH   1   8
HETATM    8  O   UNK N   1      35.018  16.044   6.547  0.00  0.00    -0.294 OA
BRANCH   8   9
HETATM    9  C   UNK N   1      34.093  16.977   6.191  0.00  0.00     0.268 C 
HETATM   10  O   UNK N   1      34.286  18.129   6.528  0.00  0.00    -0.264 OA
BRANCH   9  11
HETATM   11  C   UNK N   1      32.803  16.643   5.453  0.00  0.00     0.037 C 
HETATM   12  C   UNK N   1      32.898  15.249   4.864  0.00  0.00     0.025 C 
HETATM   13  C   UNK N   1      32.633  17.635   4.314  0.00  0.00     0.025 C 
HETATM   14  C   UNK N   1      31.550  16.722   6.306  0.00  0.00     0.025 C 
ENDBRANCH   9  11
ENDBRANCH   8   9
ENDBRANCH   1   8
TORSDOF 7
ENDMDL
