REMARK  9 active torsions:
REMARK  status: ('A' for Active; 'I' for Inactive)
REMARK    1  A    between atoms: O_1  and  C_10 
REMARK    2  A    between atoms: C_3  and  C_4 
REMARK    3  A    between atoms: C_3  and  C_6 
REMARK    4  A    between atoms: C_3  and  C_10 
REMARK    5  A    between atoms: C_4  and  C_5 
REMARK    6  A    between atoms: C_5  and  C_7 
REMARK    7  A    between atoms: C_6  and  C_9 
REMARK    8  A    between atoms: C_7  and  C_8 
REMARK    9  A    between atoms: C_8  and  C_11 
ROOT
HETATM    1  C   UNK N   1       6.729   0.576  -0.315  0.00  0.00     0.083 C 
ENDROOT
BRANCH   1   2
HETATM    2  C   UNK N   1       5.435   1.299   0.078  0.00  0.00     0.015 C 
BRANCH   2   3
HETATM    3  C   UNK N   1       4.216   0.577  -0.463  0.00  0.00     0.001 C 
BRANCH   3   4
HETATM    4  C   UNK N   1       2.948   1.156   0.123  0.00  0.00     0.000 C 
BRANCH   4   5
HETATM    5  C   UNK N   1       1.810   0.207  -0.188  0.00  0.00    -0.000 C 
BRANCH   5   6
HETATM    6  C   UNK N   1       0.493   0.808   0.250  0.00  0.00    -0.005 C 
HETATM    7  C   UNK N   1      -0.616  -0.190  -0.011  0.00  0.00     0.005 C 
ENDBRANCH   5   6
ENDBRANCH   4   5
ENDBRANCH   3   4
ENDBRANCH   2   3
ENDBRANCH   1   2
BRANCH   1   8
HETATM    8  C   UNK N   1       6.855  -0.767   0.403  0.00  0.00     0.015 C 
BRANCH   8   9
HETATM    9  C   UNK N   1       6.042  -1.835  -0.310  0.00  0.00    -0.004 C 
HETATM   10  C   UNK N   1       6.296  -3.185   0.326  0.00  0.00     0.005 C 
ENDBRANCH   8   9
ENDBRANCH   1   8
BRANCH   1  11
HETATM   11  C   UNK N   1       7.949   1.411  -0.027  0.00  0.00     0.143 C 
HETATM   12  O   UNK N   1       7.847   2.535   0.442  0.00  0.00    -0.650 OA
BRANCH  11  13
HETATM   13  O   UNK N   1       9.172   0.921  -0.308  0.00  0.00    -0.776 OA
HETATM   14  H   UNK N   1       9.302   0.013  -0.503  0.00  0.00     0.167 HD
ENDBRANCH  11  13
ENDBRANCH   1  11
TORSDOF 9
