MODEL 1
REMARK VINA RESULT:      -8.3      0.000      0.000
REMARK  32 active torsions:
REMARK  status: ('A' for Active; 'I' for Inactive)
REMARK    1  A    between atoms: C_18  and  O_2 
REMARK    2  A    between atoms: O_2  and  C_37 
REMARK    3  A    between atoms: C_21  and  O_3 
REMARK    4  A    between atoms: O_3  and  C_38 
REMARK    5  A    between atoms: C_22  and  O_4 
REMARK    6  A    between atoms: C_23  and  O_5 
REMARK    7  A    between atoms: C_31  and  O_6 
REMARK    8  A    between atoms: O_6  and  C_40 
REMARK    9  A    between atoms: C_32  and  O_8 
REMARK   10  A    between atoms: O_8  and  C_41 
REMARK   11  A    between atoms: C_43  and  O_13 
REMARK   12  A    between atoms: O_13  and  C_52 
REMARK   13  A    between atoms: C_47  and  N_16 
REMARK       I    between atoms: N_16  and  C_55 
REMARK   14  A    between atoms: C_38  and  C_42 
REMARK   15  A    between atoms: C_41  and  C_43 
REMARK   16  A    between atoms: C_43  and  C_47 
REMARK   17  A    between atoms: C_47  and  C_51 
REMARK   18  A    between atoms: C_52  and  C_56 
REMARK   19  A    between atoms: C_55  and  C_59 
REMARK   20  A    between atoms: C_56  and  C_60 
REMARK   21  A    between atoms: C_60  and  C_64 
REMARK   22  A    between atoms: C_67  and  C_69 
REMARK   23  A    between atoms: C_69  and  C_70 
REMARK   24  A    between atoms: C_71  and  C_72 
REMARK   25  A    between atoms: C_72  and  C_73 
REMARK   26  A    between atoms: C_74  and  C_75 
REMARK   27  A    between atoms: C_75  and  C_76 
REMARK   28  A    between atoms: C_77  and  C_78 
REMARK   29  A    between atoms: C_78  and  C_79 
REMARK   30  A    between atoms: C_80  and  C_81 
REMARK   31  A    between atoms: C_81  and  C_82 
REMARK   32  A    between atoms: C_83  and  C_84 
ROOT
HETATM    1  O   UNK N   1      21.247  12.915   5.316  0.00  0.00    -0.309 OA
ENDROOT
BRANCH   1   2
HETATM    2  C   UNK N   1      22.016  12.418   4.290  0.00  0.00     0.164 C 
HETATM    3  C   UNK N   1      23.495  12.713   4.642  0.00  0.00     0.078 C 
HETATM    4  C   UNK N   1      24.263  11.553   5.343  0.00  0.00     0.098 C 
HETATM    5  C   UNK N   1      25.080  10.910   4.173  0.00  0.00     0.176 C 
HETATM    6  C   UNK N   1      23.280  10.628   6.103  0.00  0.00     0.013 C 
HETATM    7  C   UNK N   1      25.679   9.459   4.375  0.00  0.00     0.076 C 
HETATM    8  C   UNK N   1      27.187   9.382   3.932  0.00  0.00     0.125 A 
HETATM    9  C   UNK N   1      24.749   8.278   3.802  0.00  0.00     0.055 C 
HETATM   10  C   UNK N   1      27.813   8.005   3.991  0.00  0.00     0.161 A 
HETATM   11  C   UNK N   1      27.469   9.273   2.454  0.00  0.00     0.210 A 
HETATM   12  O   UNK N   1      28.082   8.009   2.606  0.00  0.00    -0.380 OA
HETATM   13  C   UNK N   1      26.849   6.886   4.397  0.00  0.00     0.068 C 
HETATM   14  C   UNK N   1      25.563   6.956   3.584  0.00  0.00     0.137 C 
HETATM   15  C   UNK N   1      23.600   7.884   4.759  0.00  0.00     0.171 C 
HETATM   16  C   UNK N   1      24.135   8.679   2.457  0.00  0.00     0.027 C 
HETATM   17  O   UNK N   1      23.776   6.945   5.528  0.00  0.00    -0.294 OA
HETATM   18  C   UNK N   1      22.247   8.590   4.817  0.00  0.00     0.232 C 
HETATM   19  C   UNK N   1      22.381  10.066   5.015  0.00  0.00    -0.028 C 
HETATM   20  C   UNK N   1      21.786  10.929   4.149  0.00  0.00    -0.048 C 
HETATM   21  C   UNK N   1      20.958  10.441   3.003  0.00  0.00     0.046 C 
HETATM   22  C   UNK N   1      22.494  11.392   7.138  0.00  0.00     0.023 C 
HETATM   23  C   UNK N   1      23.986   9.597   6.976  0.00  0.00     0.023 C 
BRANCH   4  24
HETATM   24  O   UNK N   1      25.146  12.114   6.276  0.00  0.00    -0.386 OA
HETATM   25  H   UNK N   1      26.084  12.177   6.520  0.00  0.00     0.210 HD
ENDBRANCH   4  24
BRANCH   5  26
HETATM   26  O   UNK N   1      26.086  11.821   3.965  0.00  0.00    -0.308 OA
BRANCH  26  27
HETATM   27  C   UNK N   1      26.356  12.563   2.869  0.00  0.00     0.293 C 
HETATM   28  O   UNK N   1      27.414  13.161   2.743  0.00  0.00    -0.259 OA
BRANCH  27  29
HETATM   29  C   UNK N   1      25.298  12.621   1.849  0.00  0.00     0.039 A 
HETATM   30  C   UNK N   1      24.611  13.834   1.681  0.00  0.00     0.017 A 
HETATM   31  C   UNK N   1      23.620  13.967   0.714  0.00  0.00     0.001 A 
HETATM   32  C   UNK N   1      23.325  12.890  -0.121  0.00  0.00     0.000 A 
HETATM   33  C   UNK N   1      24.011  11.678   0.031  0.00  0.00     0.001 A 
HETATM   34  C   UNK N   1      24.985  11.534   1.028  0.00  0.00     0.017 A 
ENDBRANCH  27  29
ENDBRANCH  26  27
ENDBRANCH   5  26
BRANCH   8  35
HETATM   35  O   UNK N   1      27.996  10.253   4.671  0.00  0.00    -0.305 OA
BRANCH  35  36
HETATM   36  C   UNK N   1      29.355  10.377   4.735  0.00  0.00     0.255 C 
HETATM   37  O   UNK N   1      29.950   9.828   5.647  0.00  0.00    -0.266 OA
HETATM   38  C   UNK N   1      30.149  11.170   3.748  0.00  0.00     0.126 C 
ENDBRANCH  35  36
ENDBRANCH   8  35
BRANCH  14  39
HETATM   39  O   UNK N   1      25.821   6.645   2.243  0.00  0.00    -0.394 OA
HETATM   40  H   UNK N   1      25.851   6.012   1.509  0.00  0.00     0.210 HD
ENDBRANCH  14  39
BRANCH  18  41
HETATM   41  O   UNK N   1      21.478   8.086   5.848  0.00  0.00    -0.304 OA
BRANCH  41  42
HETATM   42  C   UNK N   1      20.357   7.355   5.639  0.00  0.00     0.255 C 
HETATM   43  O   UNK N   1      19.891   6.653   6.525  0.00  0.00    -0.266 OA
HETATM   44  C   UNK N   1      19.703   7.383   4.302  0.00  0.00     0.126 C 
ENDBRANCH  41  42
ENDBRANCH  18  41
ENDBRANCH   1   2
BRANCH   1  45
HETATM   45  C   UNK N   1      20.437  13.990   5.166  0.00  0.00     0.291 C 
HETATM   46  O   UNK N   1      19.221  13.852   5.176  0.00  0.00    -0.262 OA
BRANCH  45  47
HETATM   47  C   UNK N   1      21.056  15.353   4.971  0.00  0.00     0.258 C 
BRANCH  47  48
HETATM   48  O   UNK N   1      20.099  16.284   4.634  0.00  0.00    -0.303 OA
BRANCH  48  49
HETATM   49  C   UNK N   1      19.983  16.813   3.384  0.00  0.00     0.260 C 
HETATM   50  O   UNK N   1      19.922  16.060   2.425  0.00  0.00    -0.265 OA
BRANCH  49  51
HETATM   51  C   UNK N   1      19.882  18.293   3.124  0.00  0.00     0.115 C 
BRANCH  51  52
HETATM   52  C   UNK N   1      20.999  19.156   3.690  0.00  0.00     0.037 C 
BRANCH  52  53
HETATM   53  C   UNK N   1      21.343  20.342   2.852  0.00  0.00    -0.030 C 
HETATM   54  C   UNK N   1      22.599  20.761   2.631  0.00  0.00    -0.027 C 
BRANCH  54  55
HETATM   55  C   UNK N   1      23.902  20.209   3.182  0.00  0.00     0.053 C 
BRANCH  55  56
HETATM   56  C   UNK N   1      25.225  20.664   2.615  0.00  0.00    -0.027 C 
HETATM   57  C   UNK N   1      26.445  20.504   3.162  0.00  0.00    -0.027 C 
BRANCH  57  58
HETATM   58  C   UNK N   1      26.797  19.780   4.438  0.00  0.00     0.053 C 
BRANCH  58  59
HETATM   59  C   UNK N   1      26.834  20.641   5.661  0.00  0.00    -0.027 C 
HETATM   60  C   UNK N   1      27.433  20.252   6.793  0.00  0.00    -0.027 C 
BRANCH  60  61
HETATM   61  C   UNK N   1      28.162  18.949   6.923  0.00  0.00     0.053 C 
BRANCH  61  62
HETATM   62  C   UNK N   1      28.191  18.535   8.360  0.00  0.00    -0.027 C 
HETATM   63  C   UNK N   1      29.171  17.778   8.877  0.00  0.00    -0.027 C 
BRANCH  63  64
HETATM   64  C   UNK N   1      30.335  17.263   8.079  0.00  0.00     0.053 C 
BRANCH  64  65
HETATM   65  C   UNK N   1      31.618  17.917   8.501  0.00  0.00    -0.027 C 
HETATM   66  C   UNK N   1      32.761  17.750   7.827  0.00  0.00    -0.027 C 
BRANCH  66  67
HETATM   67  C   UNK N   1      32.864  16.863   6.620  0.00  0.00     0.053 C 
BRANCH  67  68
HETATM   68  C   UNK N   1      33.039  17.649   5.352  0.00  0.00    -0.027 C 
HETATM   69  C   UNK N   1      32.276  17.503   4.258  0.00  0.00    -0.031 C 
BRANCH  69  70
HETATM   70  C   UNK N   1      31.163  16.503   4.146  0.00  0.00     0.022 C 
HETATM   71  C   UNK N   1      29.810  17.159   4.350  0.00  0.00     0.009 C 
ENDBRANCH  69  70
ENDBRANCH  67  68
ENDBRANCH  66  67
ENDBRANCH  64  65
ENDBRANCH  63  64
ENDBRANCH  61  62
ENDBRANCH  60  61
ENDBRANCH  58  59
ENDBRANCH  57  58
ENDBRANCH  55  56
ENDBRANCH  54  55
ENDBRANCH  52  53
ENDBRANCH  51  52
ENDBRANCH  49  51
ENDBRANCH  48  49
ENDBRANCH  47  48
BRANCH  47  72
HETATM   72  C   UNK N   1      22.040  15.814   6.055  0.00  0.00     0.157 C 
BRANCH  72  73
HETATM   73  N   UNK N   1      21.993  14.909   7.214  0.00  0.00    -0.345 N 
HETATM   74  C   UNK N   1      21.345  15.145   8.396  0.00  0.00     0.252 C 
HETATM   75  O   UNK N   1      20.667  16.145   8.562  0.00  0.00    -0.268 OA
HETATM   76  H   UNK N   1      22.474  14.053   7.132  0.00  0.00     0.163 HD
BRANCH  74  77
HETATM   77  C   UNK N   1      21.440  14.226   9.517  0.00  0.00     0.032 A 
HETATM   78  C   UNK N   1      22.679  13.639   9.796  0.00  0.00     0.017 A 
HETATM   79  C   UNK N   1      22.770  12.573  10.685  0.00  0.00     0.001 A 
HETATM   80  C   UNK N   1      21.609  12.034  11.235  0.00  0.00     0.000 A 
HETATM   81  C   UNK N   1      20.362  12.597  10.936  0.00  0.00     0.001 A 
HETATM   82  C   UNK N   1      20.275  13.700  10.084  0.00  0.00     0.017 A 
ENDBRANCH  74  77
ENDBRANCH  72  73
BRANCH  72  83
HETATM   83  C   UNK N   1      23.414  15.939   5.440  0.00  0.00    -0.033 A 
HETATM   84  C   UNK N   1      24.561  15.669   6.206  0.00  0.00     0.009 A 
HETATM   85  C   UNK N   1      25.830  15.931   5.695  0.00  0.00     0.001 A 
HETATM   86  C   UNK N   1      25.967  16.496   4.426  0.00  0.00     0.000 A 
HETATM   87  C   UNK N   1      24.832  16.782   3.661  0.00  0.00     0.001 A 
HETATM   88  C   UNK N   1      23.556  16.505   4.166  0.00  0.00     0.009 A 
ENDBRANCH  72  83
ENDBRANCH  47  72
ENDBRANCH  45  47
ENDBRANCH   1  45
TORSDOF 32
ENDMDL
MODEL 2
REMARK VINA RESULT:      -8.1      2.487      6.474
REMARK  32 active torsions:
REMARK  status: ('A' for Active; 'I' for Inactive)
REMARK    1  A    between atoms: C_18  and  O_2 
REMARK    2  A    between atoms: O_2  and  C_37 
REMARK    3  A    between atoms: C_21  and  O_3 
REMARK    4  A    between atoms: O_3  and  C_38 
REMARK    5  A    between atoms: C_22  and  O_4 
REMARK    6  A    between atoms: C_23  and  O_5 
REMARK    7  A    between atoms: C_31  and  O_6 
REMARK    8  A    between atoms: O_6  and  C_40 
REMARK    9  A    between atoms: C_32  and  O_8 
REMARK   10  A    between atoms: O_8  and  C_41 
REMARK   11  A    between atoms: C_43  and  O_13 
REMARK   12  A    between atoms: O_13  and  C_52 
REMARK   13  A    between atoms: C_47  and  N_16 
REMARK       I    between atoms: N_16  and  C_55 
REMARK   14  A    between atoms: C_38  and  C_42 
REMARK   15  A    between atoms: C_41  and  C_43 
REMARK   16  A    between atoms: C_43  and  C_47 
REMARK   17  A    between atoms: C_47  and  C_51 
REMARK   18  A    between atoms: C_52  and  C_56 
REMARK   19  A    between atoms: C_55  and  C_59 
REMARK   20  A    between atoms: C_56  and  C_60 
REMARK   21  A    between atoms: C_60  and  C_64 
REMARK   22  A    between atoms: C_67  and  C_69 
REMARK   23  A    between atoms: C_69  and  C_70 
REMARK   24  A    between atoms: C_71  and  C_72 
REMARK   25  A    between atoms: C_72  and  C_73 
REMARK   26  A    between atoms: C_74  and  C_75 
REMARK   27  A    between atoms: C_75  and  C_76 
REMARK   28  A    between atoms: C_77  and  C_78 
REMARK   29  A    between atoms: C_78  and  C_79 
REMARK   30  A    between atoms: C_80  and  C_81 
REMARK   31  A    between atoms: C_81  and  C_82 
REMARK   32  A    between atoms: C_83  and  C_84 
ROOT
HETATM    1  O   UNK N   1      22.859  15.111   4.970  0.00  0.00    -0.309 OA
ENDROOT
BRANCH   1   2
HETATM    2  C   UNK N   1      23.984  15.494   4.278  0.00  0.00     0.164 C 
HETATM    3  C   UNK N   1      25.177  15.416   5.263  0.00  0.00     0.078 C 
HETATM    4  C   UNK N   1      25.998  14.093   5.220  0.00  0.00     0.098 C 
HETATM    5  C   UNK N   1      27.246  14.478   4.356  0.00  0.00     0.176 C 
HETATM    6  C   UNK N   1      25.123  12.923   4.704  0.00  0.00     0.013 C 
HETATM    7  C   UNK N   1      28.125  13.318   3.737  0.00  0.00     0.076 C 
HETATM    8  C   UNK N   1      29.662  13.556   3.978  0.00  0.00     0.125 A 
HETATM    9  C   UNK N   1      27.735  12.933   2.224  0.00  0.00     0.055 C 
HETATM   10  C   UNK N   1      30.587  12.551   3.328  0.00  0.00     0.161 A 
HETATM   11  C   UNK N   1      30.360  14.544   3.075  0.00  0.00     0.210 A 
HETATM   12  O   UNK N   1      31.216  13.548   2.554  0.00  0.00    -0.380 OA
HETATM   13  C   UNK N   1      29.878  11.501   2.465  0.00  0.00     0.068 C 
HETATM   14  C   UNK N   1      28.895  12.161   1.506  0.00  0.00     0.137 C 
HETATM   15  C   UNK N   1      26.512  11.991   2.128  0.00  0.00     0.171 C 
HETATM   16  C   UNK N   1      27.433  14.194   1.407  0.00  0.00     0.027 C 
HETATM   17  O   UNK N   1      26.709  10.783   2.051  0.00  0.00    -0.294 OA
HETATM   18  C   UNK N   1      25.059  12.463   2.124  0.00  0.00     0.232 C 
HETATM   19  C   UNK N   1      24.740  13.338   3.295  0.00  0.00    -0.028 C 
HETATM   20  C   UNK N   1      24.202  14.571   3.100  0.00  0.00    -0.048 C 
HETATM   21  C   UNK N   1      23.881  15.077   1.728  0.00  0.00     0.046 C 
HETATM   22  C   UNK N   1      23.909  12.719   5.576  0.00  0.00     0.023 C 
HETATM   23  C   UNK N   1      25.806  11.566   4.833  0.00  0.00     0.023 C 
BRANCH   4  24
HETATM   24  O   UNK N   1      26.409  13.790   6.526  0.00  0.00    -0.386 OA
HETATM   25  H   UNK N   1      26.664  13.059   7.111  0.00  0.00     0.210 HD
ENDBRANCH   4  24
BRANCH   5  26
HETATM   26  O   UNK N   1      27.993  15.240   5.221  0.00  0.00    -0.308 OA
BRANCH  26  27
HETATM   27  C   UNK N   1      28.136  16.582   5.276  0.00  0.00     0.293 C 
HETATM   28  O   UNK N   1      28.116  17.272   4.268  0.00  0.00    -0.259 OA
BRANCH  27  29
HETATM   29  C   UNK N   1      28.332  17.157   6.616  0.00  0.00     0.039 A 
HETATM   30  C   UNK N   1      29.353  18.107   6.782  0.00  0.00     0.017 A 
HETATM   31  C   UNK N   1      29.573  18.714   8.014  0.00  0.00     0.001 A 
HETATM   32  C   UNK N   1      28.748  18.398   9.092  0.00  0.00     0.000 A 
HETATM   33  C   UNK N   1      27.720  17.459   8.936  0.00  0.00     0.001 A 
HETATM   34  C   UNK N   1      27.521  16.822   7.703  0.00  0.00     0.017 A 
ENDBRANCH  27  29
ENDBRANCH  26  27
ENDBRANCH   5  26
BRANCH   8  35
HETATM   35  O   UNK N   1      29.976  13.610   5.341  0.00  0.00    -0.305 OA
BRANCH  35  36
HETATM   36  C   UNK N   1      31.151  13.889   5.979  0.00  0.00     0.255 C 
HETATM   37  O   UNK N   1      31.961  12.990   6.134  0.00  0.00    -0.266 OA
HETATM   38  C   UNK N   1      31.487  15.243   6.515  0.00  0.00     0.126 C 
ENDBRANCH  35  36
ENDBRANCH   8  35
BRANCH  14  39
HETATM   39  O   UNK N   1      29.586  12.910   0.545  0.00  0.00    -0.394 OA
HETATM   40  H   UNK N   1      29.974  13.005  -0.338  0.00  0.00     0.210 HD
ENDBRANCH  14  39
BRANCH  18  41
HETATM   41  O   UNK N   1      24.197  11.385   2.146  0.00  0.00    -0.304 OA
BRANCH  41  42
HETATM   42  C   UNK N   1      23.705  10.814   1.021  0.00  0.00     0.255 C 
HETATM   43  O   UNK N   1      23.279   9.668   1.031  0.00  0.00    -0.266 OA
HETATM   44  C   UNK N   1      23.712  11.584  -0.254  0.00  0.00     0.126 C 
ENDBRANCH  41  42
ENDBRANCH  18  41
ENDBRANCH   1   2
BRANCH   1  45
HETATM   45  C   UNK N   1      22.110  15.983   5.686  0.00  0.00     0.291 C 
HETATM   46  O   UNK N   1      22.626  16.976   6.183  0.00  0.00    -0.262 OA
BRANCH  45  47
HETATM   47  C   UNK N   1      20.638  15.704   5.874  0.00  0.00     0.258 C 
BRANCH  47  48
HETATM   48  O   UNK N   1      20.139  14.971   4.821  0.00  0.00    -0.303 OA
BRANCH  48  49
HETATM   49  C   UNK N   1      19.358  13.867   4.987  0.00  0.00     0.260 C 
HETATM   50  O   UNK N   1      18.145  13.981   4.908  0.00  0.00    -0.265 OA
BRANCH  49  51
HETATM   51  C   UNK N   1      19.921  12.490   5.223  0.00  0.00     0.115 C 
BRANCH  51  52
HETATM   52  C   UNK N   1      20.211  11.658   3.983  0.00  0.00     0.037 C 
BRANCH  52  53
HETATM   53  C   UNK N   1      21.110  12.323   2.994  0.00  0.00    -0.030 C 
HETATM   54  C   UNK N   1      20.846  12.401   1.681  0.00  0.00    -0.027 C 
BRANCH  54  55
HETATM   55  C   UNK N   1      19.674  11.826   0.904  0.00  0.00     0.053 C 
BRANCH  55  56
HETATM   56  C   UNK N   1      18.641  12.740   0.292  0.00  0.00    -0.027 C 
HETATM   57  C   UNK N   1      18.594  14.085   0.367  0.00  0.00    -0.027 C 
BRANCH  57  58
HETATM   58  C   UNK N   1      19.591  15.008   1.022  0.00  0.00     0.053 C 
BRANCH  58  59
HETATM   59  C   UNK N   1      19.694  16.366   0.404  0.00  0.00    -0.027 C 
HETATM   60  C   UNK N   1      20.229  17.408   1.050  0.00  0.00    -0.027 C 
BRANCH  60  61
HETATM   61  C   UNK N   1      20.818  17.301   2.423  0.00  0.00     0.053 C 
BRANCH  61  62
HETATM   62  C   UNK N   1      20.352  18.451   3.259  0.00  0.00    -0.027 C 
HETATM   63  C   UNK N   1      21.197  19.321   3.833  0.00  0.00    -0.027 C 
BRANCH  63  64
HETATM   64  C   UNK N   1      22.692  19.237   3.707  0.00  0.00     0.053 C 
BRANCH  64  65
HETATM   65  C   UNK N   1      23.235  20.372   2.891  0.00  0.00    -0.027 C 
HETATM   66  C   UNK N   1      24.545  20.537   2.678  0.00  0.00    -0.027 C 
BRANCH  66  67
HETATM   67  C   UNK N   1      25.580  19.626   3.273  0.00  0.00     0.053 C 
BRANCH  67  68
HETATM   68  C   UNK N   1      26.850  20.354   3.611  0.00  0.00    -0.027 C 
HETATM   69  C   UNK N   1      27.266  20.611   4.861  0.00  0.00    -0.031 C 
BRANCH  69  70
HETATM   70  C   UNK N   1      26.494  20.232   6.090  0.00  0.00     0.022 C 
HETATM   71  C   UNK N   1      26.431  21.382   7.077  0.00  0.00     0.009 C 
ENDBRANCH  69  70
ENDBRANCH  67  68
ENDBRANCH  66  67
ENDBRANCH  64  65
ENDBRANCH  63  64
ENDBRANCH  61  62
ENDBRANCH  60  61
ENDBRANCH  58  59
ENDBRANCH  57  58
ENDBRANCH  55  56
ENDBRANCH  54  55
ENDBRANCH  52  53
ENDBRANCH  51  52
ENDBRANCH  49  51
ENDBRANCH  48  49
ENDBRANCH  47  48
BRANCH  47  72
HETATM   72  C   UNK N   1      20.215  15.199   7.260  0.00  0.00     0.157 C 
BRANCH  72  73
HETATM   73  N   UNK N   1      21.379  14.694   8.004  0.00  0.00    -0.345 N 
HETATM   74  C   UNK N   1      21.361  13.718   8.964  0.00  0.00     0.252 C 
HETATM   75  O   UNK N   1      20.338  13.116   9.240  0.00  0.00    -0.268 OA
HETATM   76  H   UNK N   1      22.253  15.097   7.793  0.00  0.00     0.163 HD
BRANCH  74  77
HETATM   77  C   UNK N   1      22.554  13.357   9.710  0.00  0.00     0.032 A 
HETATM   78  C   UNK N   1      23.798  13.494   9.084  0.00  0.00     0.017 A 
HETATM   79  C   UNK N   1      24.938  12.931   9.652  0.00  0.00     0.001 A 
HETATM   80  C   UNK N   1      24.823  12.157  10.805  0.00  0.00     0.000 A 
HETATM   81  C   UNK N   1      23.575  11.992  11.419  0.00  0.00     0.001 A 
HETATM   82  C   UNK N   1      22.440  12.599  10.878  0.00  0.00     0.017 A 
ENDBRANCH  74  77
ENDBRANCH  72  73
BRANCH  72  83
HETATM   83  C   UNK N   1      19.475  16.307   7.973  0.00  0.00    -0.033 A 
HETATM   84  C   UNK N   1      20.184  17.374   8.551  0.00  0.00     0.009 A 
HETATM   85  C   UNK N   1      19.525  18.315   9.341  0.00  0.00     0.001 A 
HETATM   86  C   UNK N   1      18.158  18.182   9.588  0.00  0.00     0.000 A 
HETATM   87  C   UNK N   1      17.447  17.115   9.029  0.00  0.00     0.001 A 
HETATM   88  C   UNK N   1      18.103  16.178   8.222  0.00  0.00     0.009 A 
ENDBRANCH  72  83
ENDBRANCH  47  72
ENDBRANCH  45  47
ENDBRANCH   1  45
TORSDOF 32
ENDMDL
MODEL 3
REMARK VINA RESULT:      -8.0      1.609      2.893
REMARK  32 active torsions:
REMARK  status: ('A' for Active; 'I' for Inactive)
REMARK    1  A    between atoms: C_18  and  O_2 
REMARK    2  A    between atoms: O_2  and  C_37 
REMARK    3  A    between atoms: C_21  and  O_3 
REMARK    4  A    between atoms: O_3  and  C_38 
REMARK    5  A    between atoms: C_22  and  O_4 
REMARK    6  A    between atoms: C_23  and  O_5 
REMARK    7  A    between atoms: C_31  and  O_6 
REMARK    8  A    between atoms: O_6  and  C_40 
REMARK    9  A    between atoms: C_32  and  O_8 
REMARK   10  A    between atoms: O_8  and  C_41 
REMARK   11  A    between atoms: C_43  and  O_13 
REMARK   12  A    between atoms: O_13  and  C_52 
REMARK   13  A    between atoms: C_47  and  N_16 
REMARK       I    between atoms: N_16  and  C_55 
REMARK   14  A    between atoms: C_38  and  C_42 
REMARK   15  A    between atoms: C_41  and  C_43 
REMARK   16  A    between atoms: C_43  and  C_47 
REMARK   17  A    between atoms: C_47  and  C_51 
REMARK   18  A    between atoms: C_52  and  C_56 
REMARK   19  A    between atoms: C_55  and  C_59 
REMARK   20  A    between atoms: C_56  and  C_60 
REMARK   21  A    between atoms: C_60  and  C_64 
REMARK   22  A    between atoms: C_67  and  C_69 
REMARK   23  A    between atoms: C_69  and  C_70 
REMARK   24  A    between atoms: C_71  and  C_72 
REMARK   25  A    between atoms: C_72  and  C_73 
REMARK   26  A    between atoms: C_74  and  C_75 
REMARK   27  A    between atoms: C_75  and  C_76 
REMARK   28  A    between atoms: C_77  and  C_78 
REMARK   29  A    between atoms: C_78  and  C_79 
REMARK   30  A    between atoms: C_80  and  C_81 
REMARK   31  A    between atoms: C_81  and  C_82 
REMARK   32  A    between atoms: C_83  and  C_84 
ROOT
HETATM    1  O   UNK N   1      20.293  13.573   4.087  0.00  0.00    -0.309 OA
ENDROOT
BRANCH   1   2
HETATM    2  C   UNK N   1      21.553  13.232   3.657  0.00  0.00     0.164 C 
HETATM    3  C   UNK N   1      22.297  12.609   4.864  0.00  0.00     0.078 C 
HETATM    4  C   UNK N   1      22.260  11.054   4.945  0.00  0.00     0.098 C 
HETATM    5  C   UNK N   1      23.656  10.636   4.372  0.00  0.00     0.176 C 
HETATM    6  C   UNK N   1      21.010  10.499   4.219  0.00  0.00     0.013 C 
HETATM    7  C   UNK N   1      23.866   9.139   3.907  0.00  0.00     0.076 C 
HETATM    8  C   UNK N   1      25.206   8.534   4.470  0.00  0.00     0.125 A 
HETATM    9  C   UNK N   1      23.630   8.899   2.334  0.00  0.00     0.055 C 
HETATM   10  C   UNK N   1      25.543   7.139   3.989  0.00  0.00     0.161 A 
HETATM   11  C   UNK N   1      26.486   8.914   3.766  0.00  0.00     0.210 A 
HETATM   12  O   UNK N   1      26.748   7.574   3.399  0.00  0.00    -0.380 OA
HETATM   13  C   UNK N   1      24.561   6.566   2.962  0.00  0.00     0.068 C 
HETATM   14  C   UNK N   1      24.299   7.568   1.845  0.00  0.00     0.137 C 
HETATM   15  C   UNK N   1      22.138   8.756   1.954  0.00  0.00     0.171 C 
HETATM   16  C   UNK N   1      24.224  10.051   1.518  0.00  0.00     0.027 C 
HETATM   17  O   UNK N   1      21.660   7.630   1.877  0.00  0.00    -0.294 OA
HETATM   18  C   UNK N   1      21.205   9.931   1.667  0.00  0.00     0.232 C 
HETATM   19  C   UNK N   1      21.193  10.935   2.776  0.00  0.00    -0.028 C 
HETATM   20  C   UNK N   1      21.459  12.243   2.517  0.00  0.00    -0.048 C 
HETATM   21  C   UNK N   1      21.735  12.726   1.128  0.00  0.00     0.046 C 
HETATM   22  C   UNK N   1      19.738  11.050   4.813  0.00  0.00     0.023 C 
HETATM   23  C   UNK N   1      20.808   9.003   4.438  0.00  0.00     0.023 C 
BRANCH   4  24
HETATM   24  O   UNK N   1      22.181  10.688   6.296  0.00  0.00    -0.386 OA
HETATM   25  H   UNK N   1      22.533  10.069   6.956  0.00  0.00     0.210 HD
ENDBRANCH   4  24
BRANCH   5  26
HETATM   26  O   UNK N   1      24.514  10.946   5.399  0.00  0.00    -0.308 OA
BRANCH  26  27
HETATM   27  C   UNK N   1      25.246  12.064   5.596  0.00  0.00     0.293 C 
HETATM   28  O   UNK N   1      25.239  12.657   6.664  0.00  0.00    -0.259 OA
BRANCH  27  29
HETATM   29  C   UNK N   1      26.036  12.531   4.446  0.00  0.00     0.039 A 
HETATM   30  C   UNK N   1      27.419  12.703   4.624  0.00  0.00     0.017 A 
HETATM   31  C   UNK N   1      28.231  13.111   3.571  0.00  0.00     0.001 A 
HETATM   32  C   UNK N   1      27.669  13.324   2.313  0.00  0.00     0.000 A 
HETATM   33  C   UNK N   1      26.293  13.147   2.121  0.00  0.00     0.001 A 
HETATM   34  C   UNK N   1      25.470  12.769   3.191  0.00  0.00     0.017 A 
ENDBRANCH  27  29
ENDBRANCH  26  27
ENDBRANCH   5  26
BRANCH   8  35
HETATM   35  O   UNK N   1      25.230   8.523   5.870  0.00  0.00    -0.305 OA
BRANCH  35  36
HETATM   36  C   UNK N   1      24.540   7.764   6.771  0.00  0.00     0.255 C 
HETATM   37  O   UNK N   1      23.358   8.002   6.953  0.00  0.00    -0.266 OA
HETATM   38  C   UNK N   1      25.170   6.665   7.564  0.00  0.00     0.126 C 
ENDBRANCH  35  36
ENDBRANCH   8  35
BRANCH  14  39
HETATM   39  O   UNK N   1      25.455   7.747   1.075  0.00  0.00    -0.394 OA
HETATM   40  H   UNK N   1      25.891   7.934   0.229  0.00  0.00     0.210 HD
ENDBRANCH  14  39
BRANCH  18  41
HETATM   41  O   UNK N   1      19.911   9.491   1.471  0.00  0.00    -0.304 OA
BRANCH  41  42
HETATM   42  C   UNK N   1      18.967  10.236   0.849  0.00  0.00     0.255 C 
HETATM   43  O   UNK N   1      19.099  10.570  -0.320  0.00  0.00    -0.266 OA
HETATM   44  C   UNK N   1      17.767  10.681   1.610  0.00  0.00     0.126 C 
ENDBRANCH  41  42
ENDBRANCH  18  41
ENDBRANCH   1   2
BRANCH   1  45
HETATM   45  C   UNK N   1      20.061  14.616   4.919  0.00  0.00     0.291 C 
HETATM   46  O   UNK N   1      19.150  14.565   5.734  0.00  0.00    -0.262 OA
BRANCH  45  47
HETATM   47  C   UNK N   1      20.932  15.845   4.814  0.00  0.00     0.258 C 
BRANCH  47  48
HETATM   48  O   UNK N   1      20.181  16.954   4.495  0.00  0.00    -0.303 OA
BRANCH  48  49
HETATM   49  C   UNK N   1      20.191  17.530   3.261  0.00  0.00     0.260 C 
HETATM   50  O   UNK N   1      19.927  16.845   2.286  0.00  0.00    -0.265 OA
BRANCH  49  51
HETATM   51  C   UNK N   1      20.471  18.993   3.039  0.00  0.00     0.115 C 
BRANCH  51  52
HETATM   52  C   UNK N   1      21.776  19.525   3.610  0.00  0.00     0.037 C 
BRANCH  52  53
HETATM   53  C   UNK N   1      22.444  20.553   2.758  0.00  0.00    -0.030 C 
HETATM   54  C   UNK N   1      23.770  20.763   2.745  0.00  0.00    -0.027 C 
BRANCH  54  55
HETATM   55  C   UNK N   1      24.853  20.095   3.575  0.00  0.00     0.053 C 
BRANCH  55  56
HETATM   56  C   UNK N   1      26.309  20.287   3.227  0.00  0.00    -0.027 C 
HETATM   57  C   UNK N   1      27.378  19.915   3.957  0.00  0.00    -0.027 C 
BRANCH  57  58
HETATM   58  C   UNK N   1      27.386  19.164   5.266  0.00  0.00     0.053 C 
BRANCH  58  59
HETATM   59  C   UNK N   1      27.653  20.005   6.474  0.00  0.00    -0.027 C 
HETATM   60  C   UNK N   1      27.896  19.473   7.677  0.00  0.00    -0.027 C 
BRANCH  60  61
HETATM   61  C   UNK N   1      27.975  17.996   7.915  0.00  0.00     0.053 C 
BRANCH  61  62
HETATM   62  C   UNK N   1      28.526  17.738   9.282  0.00  0.00    -0.027 C 
HETATM   63  C   UNK N   1      29.842  17.694   9.537  0.00  0.00    -0.027 C 
BRANCH  63  64
HETATM   64  C   UNK N   1      30.901  17.892   8.490  0.00  0.00     0.053 C 
BRANCH  64  65
HETATM   65  C   UNK N   1      31.362  16.581   7.926  0.00  0.00    -0.027 C 
HETATM   66  C   UNK N   1      31.254  16.283   6.626  0.00  0.00    -0.027 C 
BRANCH  66  67
HETATM   67  C   UNK N   1      30.625  17.219   5.634  0.00  0.00     0.053 C 
BRANCH  67  68
HETATM   68  C   UNK N   1      30.064  16.491   4.446  0.00  0.00    -0.027 C 
HETATM   69  C   UNK N   1      30.678  16.397   3.256  0.00  0.00    -0.031 C 
BRANCH  69  70
HETATM   70  C   UNK N   1      31.997  17.041   2.946  0.00  0.00     0.022 C 
HETATM   71  C   UNK N   1      33.135  16.044   3.049  0.00  0.00     0.009 C 
ENDBRANCH  69  70
ENDBRANCH  67  68
ENDBRANCH  66  67
ENDBRANCH  64  65
ENDBRANCH  63  64
ENDBRANCH  61  62
ENDBRANCH  60  61
ENDBRANCH  58  59
ENDBRANCH  57  58
ENDBRANCH  55  56
ENDBRANCH  54  55
ENDBRANCH  52  53
ENDBRANCH  51  52
ENDBRANCH  49  51
ENDBRANCH  48  49
ENDBRANCH  47  48
BRANCH  47  72
HETATM   72  C   UNK N   1      21.940  16.062   5.951  0.00  0.00     0.157 C 
BRANCH  72  73
HETATM   73  N   UNK N   1      21.860  14.967   6.929  0.00  0.00    -0.345 N 
HETATM   74  C   UNK N   1      21.461  15.077   8.234  0.00  0.00     0.252 C 
HETATM   75  O   UNK N   1      21.056  16.133   8.688  0.00  0.00    -0.268 OA
HETATM   76  H   UNK N   1      22.120  14.069   6.616  0.00  0.00     0.163 HD
BRANCH  74  77
HETATM   77  C   UNK N   1      21.509  13.948   9.146  0.00  0.00     0.032 A 
HETATM   78  C   UNK N   1      20.371  13.657   9.907  0.00  0.00     0.017 A 
HETATM   79  C   UNK N   1      20.444  12.758  10.967  0.00  0.00     0.001 A 
HETATM   80  C   UNK N   1      21.675  12.210  11.323  0.00  0.00     0.000 A 
HETATM   81  C   UNK N   1      22.823  12.521  10.584  0.00  0.00     0.001 A 
HETATM   82  C   UNK N   1      22.741  13.383   9.488  0.00  0.00     0.017 A 
ENDBRANCH  74  77
ENDBRANCH  72  73
BRANCH  72  83
HETATM   83  C   UNK N   1      23.315  16.239   5.351  0.00  0.00    -0.033 A 
HETATM   84  C   UNK N   1      23.466  16.415   3.965  0.00  0.00     0.009 A 
HETATM   85  C   UNK N   1      24.734  16.423   3.387  0.00  0.00     0.001 A 
HETATM   86  C   UNK N   1      25.863  16.223   4.182  0.00  0.00     0.000 A 
HETATM   87  C   UNK N   1      25.723  16.032   5.560  0.00  0.00     0.001 A 
HETATM   88  C   UNK N   1      24.451  16.039   6.146  0.00  0.00     0.009 A 
ENDBRANCH  72  83
ENDBRANCH  47  72
ENDBRANCH  45  47
ENDBRANCH   1  45
TORSDOF 32
ENDMDL
MODEL 4
REMARK VINA RESULT:      -8.0      1.981      3.843
REMARK  32 active torsions:
REMARK  status: ('A' for Active; 'I' for Inactive)
REMARK    1  A    between atoms: C_18  and  O_2 
REMARK    2  A    between atoms: O_2  and  C_37 
REMARK    3  A    between atoms: C_21  and  O_3 
REMARK    4  A    between atoms: O_3  and  C_38 
REMARK    5  A    between atoms: C_22  and  O_4 
REMARK    6  A    between atoms: C_23  and  O_5 
REMARK    7  A    between atoms: C_31  and  O_6 
REMARK    8  A    between atoms: O_6  and  C_40 
REMARK    9  A    between atoms: C_32  and  O_8 
REMARK   10  A    between atoms: O_8  and  C_41 
REMARK   11  A    between atoms: C_43  and  O_13 
REMARK   12  A    between atoms: O_13  and  C_52 
REMARK   13  A    between atoms: C_47  and  N_16 
REMARK       I    between atoms: N_16  and  C_55 
REMARK   14  A    between atoms: C_38  and  C_42 
REMARK   15  A    between atoms: C_41  and  C_43 
REMARK   16  A    between atoms: C_43  and  C_47 
REMARK   17  A    between atoms: C_47  and  C_51 
REMARK   18  A    between atoms: C_52  and  C_56 
REMARK   19  A    between atoms: C_55  and  C_59 
REMARK   20  A    between atoms: C_56  and  C_60 
REMARK   21  A    between atoms: C_60  and  C_64 
REMARK   22  A    between atoms: C_67  and  C_69 
REMARK   23  A    between atoms: C_69  and  C_70 
REMARK   24  A    between atoms: C_71  and  C_72 
REMARK   25  A    between atoms: C_72  and  C_73 
REMARK   26  A    between atoms: C_74  and  C_75 
REMARK   27  A    between atoms: C_75  and  C_76 
REMARK   28  A    between atoms: C_77  and  C_78 
REMARK   29  A    between atoms: C_78  and  C_79 
REMARK   30  A    between atoms: C_80  and  C_81 
REMARK   31  A    between atoms: C_81  and  C_82 
REMARK   32  A    between atoms: C_83  and  C_84 
ROOT
HETATM    1  O   UNK N   1      22.130  15.003   5.311  0.00  0.00    -0.309 OA
ENDROOT
BRANCH   1   2
HETATM    2  C   UNK N   1      23.129  14.616   4.450  0.00  0.00     0.164 C 
HETATM    3  C   UNK N   1      24.033  13.618   5.214  0.00  0.00     0.078 C 
HETATM    4  C   UNK N   1      23.706  12.111   4.992  0.00  0.00     0.098 C 
HETATM    5  C   UNK N   1      24.778  11.667   3.940  0.00  0.00     0.176 C 
HETATM    6  C   UNK N   1      22.219  11.927   4.598  0.00  0.00     0.013 C 
HETATM    7  C   UNK N   1      24.545  10.319   3.145  0.00  0.00     0.076 C 
HETATM    8  C   UNK N   1      25.837   9.420   3.129  0.00  0.00     0.125 A 
HETATM    9  C   UNK N   1      23.844  10.514   1.710  0.00  0.00     0.055 C 
HETATM   10  C   UNK N   1      25.740   8.157   2.300  0.00  0.00     0.161 A 
HETATM   11  C   UNK N   1      26.924   9.789   2.150  0.00  0.00     0.210 A 
HETATM   12  O   UNK N   1      26.799   8.561   1.461  0.00  0.00    -0.380 OA
HETATM   13  C   UNK N   1      24.420   7.996   1.539  0.00  0.00     0.068 C 
HETATM   14  C   UNK N   1      24.070   9.271   0.782  0.00  0.00     0.137 C 
HETATM   15  C   UNK N   1      22.308  10.671   1.796  0.00  0.00     0.171 C 
HETATM   16  C   UNK N   1      24.412  11.744   0.995  0.00  0.00     0.027 C 
HETATM   17  O   UNK N   1      21.609   9.674   1.650  0.00  0.00    -0.294 OA
HETATM   18  C   UNK N   1      21.590  11.995   2.054  0.00  0.00     0.232 C 
HETATM   19  C   UNK N   1      22.085  12.681   3.287  0.00  0.00    -0.028 C 
HETATM   20  C   UNK N   1      22.528  13.965   3.224  0.00  0.00    -0.048 C 
HETATM   21  C   UNK N   1      22.506  14.738   1.943  0.00  0.00     0.046 C 
HETATM   22  C   UNK N   1      21.298  12.477   5.658  0.00  0.00     0.023 C 
HETATM   23  C   UNK N   1      21.787  10.465   4.568  0.00  0.00     0.023 C 
BRANCH   4  24
HETATM   24  O   UNK N   1      23.927  11.433   6.199  0.00  0.00    -0.386 OA
HETATM   25  H   UNK N   1      23.769  10.593   6.659  0.00  0.00     0.210 HD
ENDBRANCH   4  24
BRANCH   5  26
HETATM   26  O   UNK N   1      25.928  11.593   4.687  0.00  0.00    -0.308 OA
BRANCH  26  27
HETATM   27  C   UNK N   1      27.090  12.266   4.539  0.00  0.00     0.293 C 
HETATM   28  O   UNK N   1      28.162  11.774   4.857  0.00  0.00    -0.259 OA
BRANCH  27  29
HETATM   29  C   UNK N   1      26.984  13.626   3.989  0.00  0.00     0.039 A 
HETATM   30  C   UNK N   1      26.908  13.768   2.594  0.00  0.00     0.017 A 
HETATM   31  C   UNK N   1      26.776  15.023   2.008  0.00  0.00     0.001 A 
HETATM   32  C   UNK N   1      26.687  16.153   2.818  0.00  0.00     0.000 A 
HETATM   33  C   UNK N   1      26.751  16.023   4.212  0.00  0.00     0.001 A 
HETATM   34  C   UNK N   1      26.920  14.762   4.800  0.00  0.00     0.017 A 
ENDBRANCH  27  29
ENDBRANCH  26  27
ENDBRANCH   5  26
BRANCH   8  35
HETATM   35  O   UNK N   1      26.240   9.057   4.419  0.00  0.00    -0.305 OA
BRANCH  35  36
HETATM   36  C   UNK N   1      27.132   8.115   4.847  0.00  0.00     0.255 C 
HETATM   37  O   UNK N   1      28.323   8.368   4.784  0.00  0.00    -0.266 OA
HETATM   38  C   UNK N   1      26.719   6.779   5.372  0.00  0.00     0.126 C 
ENDBRANCH  35  36
ENDBRANCH   8  35
BRANCH  14  39
HETATM   39  O   UNK N   1      24.983   9.480  -0.259  0.00  0.00    -0.394 OA
HETATM   40  H   UNK N   1      25.519   9.150  -0.997  0.00  0.00     0.210 HD
ENDBRANCH  14  39
BRANCH  18  41
HETATM   41  O   UNK N   1      20.231  11.794   2.190  0.00  0.00    -0.304 OA
BRANCH  41  42
HETATM   42  C   UNK N   1      19.313  12.741   1.884  0.00  0.00     0.255 C 
HETATM   43  O   UNK N   1      18.506  13.127   2.718  0.00  0.00    -0.266 OA
HETATM   44  C   UNK N   1      19.267  13.298   0.503  0.00  0.00     0.126 C 
ENDBRANCH  41  42
ENDBRANCH  18  41
ENDBRANCH   1   2
BRANCH   1  45
HETATM   45  C   UNK N   1      22.104  16.223   5.898  0.00  0.00     0.291 C 
HETATM   46  O   UNK N   1      23.137  16.868   6.028  0.00  0.00    -0.262 OA
BRANCH  45  47
HETATM   47  C   UNK N   1      20.789  16.766   6.404  0.00  0.00     0.258 C 
BRANCH  47  48
HETATM   48  O   UNK N   1      19.912  16.977   5.364  0.00  0.00    -0.303 OA
BRANCH  48  49
HETATM   49  C   UNK N   1      20.279  17.556   4.186  0.00  0.00     0.260 C 
HETATM   50  O   UNK N   1      19.943  17.031   3.138  0.00  0.00    -0.265 OA
BRANCH  49  51
HETATM   51  C   UNK N   1      21.049  18.848   4.112  0.00  0.00     0.115 C 
BRANCH  51  52
HETATM   52  C   UNK N   1      22.383  18.799   3.382  0.00  0.00     0.037 C 
BRANCH  52  53
HETATM   53  C   UNK N   1      22.986  20.138   3.116  0.00  0.00    -0.030 C 
HETATM   54  C   UNK N   1      24.275  20.434   3.345  0.00  0.00    -0.027 C 
BRANCH  54  55
HETATM   55  C   UNK N   1      25.365  19.563   3.945  0.00  0.00     0.053 C 
BRANCH  55  56
HETATM   56  C   UNK N   1      26.811  19.785   3.574  0.00  0.00    -0.027 C 
HETATM   57  C   UNK N   1      27.844  20.003   4.410  0.00  0.00    -0.027 C 
BRANCH  57  58
HETATM   58  C   UNK N   1      27.823  20.019   5.919  0.00  0.00     0.053 C 
BRANCH  58  59
HETATM   59  C   UNK N   1      27.174  18.829   6.552  0.00  0.00    -0.027 C 
HETATM   60  C   UNK N   1      27.882  17.822   7.076  0.00  0.00    -0.027 C 
BRANCH  60  61
HETATM   61  C   UNK N   1      29.379  17.816   7.124  0.00  0.00     0.053 C 
BRANCH  61  62
HETATM   62  C   UNK N   1      29.887  16.462   6.738  0.00  0.00    -0.027 C 
HETATM   63  C   UNK N   1      30.248  16.154   5.483  0.00  0.00    -0.027 C 
BRANCH  63  64
HETATM   64  C   UNK N   1      30.180  17.121   4.335  0.00  0.00     0.053 C 
BRANCH  64  65
HETATM   65  C   UNK N   1      30.976  16.631   3.162  0.00  0.00    -0.027 C 
HETATM   66  C   UNK N   1      32.302  16.787   3.082  0.00  0.00    -0.027 C 
BRANCH  66  67
HETATM   67  C   UNK N   1      33.095  17.502   4.137  0.00  0.00     0.053 C 
BRANCH  67  68
HETATM   68  C   UNK N   1      33.870  16.552   5.005  0.00  0.00    -0.027 C 
HETATM   69  C   UNK N   1      33.982  16.663   6.338  0.00  0.00    -0.031 C 
BRANCH  69  70
HETATM   70  C   UNK N   1      33.372  17.778   7.135  0.00  0.00     0.022 C 
HETATM   71  C   UNK N   1      34.365  18.354   8.127  0.00  0.00     0.009 C 
ENDBRANCH  69  70
ENDBRANCH  67  68
ENDBRANCH  66  67
ENDBRANCH  64  65
ENDBRANCH  63  64
ENDBRANCH  61  62
ENDBRANCH  60  61
ENDBRANCH  58  59
ENDBRANCH  57  58
ENDBRANCH  55  56
ENDBRANCH  54  55
ENDBRANCH  52  53
ENDBRANCH  51  52
ENDBRANCH  49  51
ENDBRANCH  48  49
ENDBRANCH  47  48
BRANCH  47  72
HETATM   72  C   UNK N   1      20.180  16.048   7.617  0.00  0.00     0.157 C 
BRANCH  72  73
HETATM   73  N   UNK N   1      21.212  15.293   8.343  0.00  0.00    -0.345 N 
HETATM   74  C   UNK N   1      21.004  14.185   9.119  0.00  0.00     0.252 C 
HETATM   75  O   UNK N   1      19.901  13.675   9.218  0.00  0.00    -0.268 OA
HETATM   76  H   UNK N   1      22.139  15.615   8.264  0.00  0.00     0.163 HD
BRANCH  74  77
HETATM   77  C   UNK N   1      22.081  13.566   9.873  0.00  0.00     0.032 A 
HETATM   78  C   UNK N   1      23.349  13.495   9.288  0.00  0.00     0.017 A 
HETATM   79  C   UNK N   1      24.341  12.698   9.852  0.00  0.00     0.001 A 
HETATM   80  C   UNK N   1      24.042  11.904  10.957  0.00  0.00     0.000 A 
HETATM   81  C   UNK N   1      22.765  11.948  11.529  0.00  0.00     0.001 A 
HETATM   82  C   UNK N   1      21.784  12.787  10.995  0.00  0.00     0.017 A 
ENDBRANCH  74  77
ENDBRANCH  72  73
BRANCH  72  83
HETATM   83  C   UNK N   1      19.462  17.067   8.471  0.00  0.00    -0.033 A 
HETATM   84  C   UNK N   1      20.138  18.213   8.924  0.00  0.00     0.009 A 
HETATM   85  C   UNK N   1      19.533  19.076   9.836  0.00  0.00     0.001 A 
HETATM   86  C   UNK N   1      18.260  18.786  10.330  0.00  0.00     0.000 A 
HETATM   87  C   UNK N   1      17.586  17.640   9.897  0.00  0.00     0.001 A 
HETATM   88  C   UNK N   1      18.184  16.781   8.968  0.00  0.00     0.009 A 
ENDBRANCH  72  83
ENDBRANCH  47  72
ENDBRANCH  45  47
ENDBRANCH   1  45
TORSDOF 32
ENDMDL
MODEL 5
REMARK VINA RESULT:      -8.0      1.979      5.376
REMARK  32 active torsions:
REMARK  status: ('A' for Active; 'I' for Inactive)
REMARK    1  A    between atoms: C_18  and  O_2 
REMARK    2  A    between atoms: O_2  and  C_37 
REMARK    3  A    between atoms: C_21  and  O_3 
REMARK    4  A    between atoms: O_3  and  C_38 
REMARK    5  A    between atoms: C_22  and  O_4 
REMARK    6  A    between atoms: C_23  and  O_5 
REMARK    7  A    between atoms: C_31  and  O_6 
REMARK    8  A    between atoms: O_6  and  C_40 
REMARK    9  A    between atoms: C_32  and  O_8 
REMARK   10  A    between atoms: O_8  and  C_41 
REMARK   11  A    between atoms: C_43  and  O_13 
REMARK   12  A    between atoms: O_13  and  C_52 
REMARK   13  A    between atoms: C_47  and  N_16 
REMARK       I    between atoms: N_16  and  C_55 
REMARK   14  A    between atoms: C_38  and  C_42 
REMARK   15  A    between atoms: C_41  and  C_43 
REMARK   16  A    between atoms: C_43  and  C_47 
REMARK   17  A    between atoms: C_47  and  C_51 
REMARK   18  A    between atoms: C_52  and  C_56 
REMARK   19  A    between atoms: C_55  and  C_59 
REMARK   20  A    between atoms: C_56  and  C_60 
REMARK   21  A    between atoms: C_60  and  C_64 
REMARK   22  A    between atoms: C_67  and  C_69 
REMARK   23  A    between atoms: C_69  and  C_70 
REMARK   24  A    between atoms: C_71  and  C_72 
REMARK   25  A    between atoms: C_72  and  C_73 
REMARK   26  A    between atoms: C_74  and  C_75 
REMARK   27  A    between atoms: C_75  and  C_76 
REMARK   28  A    between atoms: C_77  and  C_78 
REMARK   29  A    between atoms: C_78  and  C_79 
REMARK   30  A    between atoms: C_80  and  C_81 
REMARK   31  A    between atoms: C_81  and  C_82 
REMARK   32  A    between atoms: C_83  and  C_84 
ROOT
HETATM    1  O   UNK N   1      22.243  15.661   5.120  0.00  0.00    -0.309 OA
ENDROOT
BRANCH   1   2
HETATM    2  C   UNK N   1      22.737  14.399   5.348  0.00  0.00     0.164 C 
HETATM    3  C   UNK N   1      22.070  13.452   4.321  0.00  0.00     0.078 C 
HETATM    4  C   UNK N   1      22.889  13.183   3.024  0.00  0.00     0.098 C 
HETATM    5  C   UNK N   1      23.539  11.786   3.298  0.00  0.00     0.176 C 
HETATM    6  C   UNK N   1      23.854  14.360   2.734  0.00  0.00     0.013 C 
HETATM    7  C   UNK N   1      24.764  11.333   2.405  0.00  0.00     0.076 C 
HETATM    8  C   UNK N   1      24.590   9.860   1.877  0.00  0.00     0.125 A 
HETATM    9  C   UNK N   1      26.202  11.648   3.052  0.00  0.00     0.055 C 
HETATM   10  C   UNK N   1      25.764   9.303   1.101  0.00  0.00     0.161 A 
HETATM   11  C   UNK N   1      24.899   8.739   2.840  0.00  0.00     0.210 A 
HETATM   12  O   UNK N   1      25.951   8.257   2.029  0.00  0.00    -0.380 OA
HETATM   13  C   UNK N   1      26.975  10.239   1.022  0.00  0.00     0.068 C 
HETATM   14  C   UNK N   1      27.334  10.780   2.400  0.00  0.00     0.137 C 
HETATM   15  C   UNK N   1      26.658  13.112   2.847  0.00  0.00     0.171 C 
HETATM   16  C   UNK N   1      26.193  11.356   4.556  0.00  0.00     0.027 C 
HETATM   17  O   UNK N   1      27.382  13.370   1.892  0.00  0.00    -0.294 OA
HETATM   18  C   UNK N   1      26.265  14.272   3.759  0.00  0.00     0.232 C 
HETATM   19  C   UNK N   1      24.783  14.384   3.934  0.00  0.00    -0.028 C 
HETATM   20  C   UNK N   1      24.241  14.396   5.180  0.00  0.00    -0.048 C 
HETATM   21  C   UNK N   1      25.096  14.334   6.407  0.00  0.00     0.046 C 
HETATM   22  C   UNK N   1      23.105  15.660   2.580  0.00  0.00     0.023 C 
HETATM   23  C   UNK N   1      24.532  14.253   1.372  0.00  0.00     0.023 C 
BRANCH   4  24
HETATM   24  O   UNK N   1      21.990  13.079   1.952  0.00  0.00    -0.386 OA
HETATM   25  H   UNK N   1      21.131  13.389   1.625  0.00  0.00     0.210 HD
ENDBRANCH   4  24
BRANCH   5  26
HETATM   26  O   UNK N   1      22.484  10.921   3.142  0.00  0.00    -0.308 OA
BRANCH  26  27
HETATM   27  C   UNK N   1      21.725  10.316   4.082  0.00  0.00     0.293 C 
HETATM   28  O   UNK N   1      20.525  10.148   3.929  0.00  0.00    -0.259 OA
BRANCH  27  29
HETATM   29  C   UNK N   1      22.427   9.890   5.303  0.00  0.00     0.039 A 
HETATM   30  C   UNK N   1      22.687   8.519   5.467  0.00  0.00     0.017 A 
HETATM   31  C   UNK N   1      23.373   8.050   6.582  0.00  0.00     0.001 A 
HETATM   32  C   UNK N   1      23.837   8.955   7.535  0.00  0.00     0.000 A 
HETATM   33  C   UNK N   1      23.592  10.325   7.377  0.00  0.00     0.001 A 
HETATM   34  C   UNK N   1      22.870  10.795   6.271  0.00  0.00     0.017 A 
ENDBRANCH  27  29
ENDBRANCH  26  27
ENDBRANCH   5  26
BRANCH   8  35
HETATM   35  O   UNK N   1      23.445   9.718   1.084  0.00  0.00    -0.305 OA
BRANCH  35  36
HETATM   36  C   UNK N   1      22.838   8.604   0.579  0.00  0.00     0.255 C 
HETATM   37  O   UNK N   1      23.139   8.232  -0.543  0.00  0.00    -0.266 OA
HETATM   38  C   UNK N   1      21.804   7.828   1.328  0.00  0.00     0.126 C 
ENDBRANCH  35  36
ENDBRANCH   8  35
BRANCH  14  39
HETATM   39  O   UNK N   1      27.816   9.747   3.214  0.00  0.00    -0.394 OA
HETATM   40  H   UNK N   1      27.668   9.002   3.816  0.00  0.00     0.210 HD
ENDBRANCH  14  39
BRANCH  18  41
HETATM   41  O   UNK N   1      26.730  15.470   3.253  0.00  0.00    -0.304 OA
BRANCH  41  42
HETATM   42  C   UNK N   1      27.844  16.081   3.718  0.00  0.00     0.255 C 
HETATM   43  O   UNK N   1      28.668  16.556   2.949  0.00  0.00    -0.266 OA
HETATM   44  C   UNK N   1      28.084  16.148   5.187  0.00  0.00     0.126 C 
ENDBRANCH  41  42
ENDBRANCH  18  41
ENDBRANCH   1   2
BRANCH   1  45
HETATM   45  C   UNK N   1      21.643  16.395   6.086  0.00  0.00     0.291 C 
HETATM   46  O   UNK N   1      22.307  17.133   6.803  0.00  0.00    -0.262 OA
BRANCH  45  47
HETATM   47  C   UNK N   1      20.149  16.278   6.275  0.00  0.00     0.258 C 
BRANCH  47  48
HETATM   48  O   UNK N   1      19.557  15.706   5.171  0.00  0.00    -0.303 OA
BRANCH  48  49
HETATM   49  C   UNK N   1      19.591  16.272   3.932  0.00  0.00     0.260 C 
HETATM   50  O   UNK N   1      19.593  15.547   2.950  0.00  0.00    -0.265 OA
BRANCH  49  51
HETATM   51  C   UNK N   1      19.582  17.761   3.708  0.00  0.00     0.115 C 
BRANCH  51  52
HETATM   52  C   UNK N   1      20.218  18.254   2.417  0.00  0.00     0.037 C 
BRANCH  52  53
HETATM   53  C   UNK N   1      20.174  19.735   2.239  0.00  0.00    -0.030 C 
HETATM   54  C   UNK N   1      21.251  20.531   2.339  0.00  0.00    -0.027 C 
BRANCH  54  55
HETATM   55  C   UNK N   1      22.682  20.164   2.689  0.00  0.00     0.053 C 
BRANCH  55  56
HETATM   56  C   UNK N   1      22.990  19.426   3.969  0.00  0.00    -0.027 C 
HETATM   57  C   UNK N   1      24.127  18.773   4.281  0.00  0.00    -0.027 C 
BRANCH  57  58
HETATM   58  C   UNK N   1      25.388  18.672   3.460  0.00  0.00     0.053 C 
BRANCH  58  59
HETATM   59  C   UNK N   1      25.953  19.981   3.007  0.00  0.00    -0.027 C 
HETATM   60  C   UNK N   1      26.993  20.560   3.616  0.00  0.00    -0.027 C 
BRANCH  60  61
HETATM   61  C   UNK N   1      27.718  19.932   4.766  0.00  0.00     0.053 C 
BRANCH  61  62
HETATM   62  C   UNK N   1      27.405  20.680   6.024  0.00  0.00    -0.027 C 
HETATM   63  C   UNK N   1      27.532  20.135   7.243  0.00  0.00    -0.027 C 
BRANCH  63  64
HETATM   64  C   UNK N   1      27.994  18.726   7.482  0.00  0.00     0.053 C 
BRANCH  64  65
HETATM   65  C   UNK N   1      28.364  18.510   8.920  0.00  0.00    -0.027 C 
HETATM   66  C   UNK N   1      29.607  18.195   9.299  0.00  0.00    -0.027 C 
BRANCH  66  67
HETATM   67  C   UNK N   1      30.723  17.990   8.315  0.00  0.00     0.053 C 
BRANCH  67  68
HETATM   68  C   UNK N   1      31.562  16.790   8.650  0.00  0.00    -0.027 C 
HETATM   69  C   UNK N   1      32.838  16.627   8.269  0.00  0.00    -0.031 C 
BRANCH  69  70
HETATM   70  C   UNK N   1      33.587  17.613   7.421  0.00  0.00     0.022 C 
HETATM   71  C   UNK N   1      34.618  18.370   8.236  0.00  0.00     0.009 C 
ENDBRANCH  69  70
ENDBRANCH  67  68
ENDBRANCH  66  67
ENDBRANCH  64  65
ENDBRANCH  63  64
ENDBRANCH  61  62
ENDBRANCH  60  61
ENDBRANCH  58  59
ENDBRANCH  57  58
ENDBRANCH  55  56
ENDBRANCH  54  55
ENDBRANCH  52  53
ENDBRANCH  51  52
ENDBRANCH  49  51
ENDBRANCH  48  49
ENDBRANCH  47  48
BRANCH  47  72
HETATM   72  C   UNK N   1      19.678  15.707   7.620  0.00  0.00     0.157 C 
BRANCH  72  73
HETATM   73  N   UNK N   1      20.768  14.971   8.279  0.00  0.00    -0.345 N 
HETATM   74  C   UNK N   1      20.638  14.123   9.347  0.00  0.00     0.252 C 
HETATM   75  O   UNK N   1      19.546  13.849   9.812  0.00  0.00    -0.268 OA
HETATM   76  H   UNK N   1      21.675  15.101   7.920  0.00  0.00     0.163 HD
BRANCH  74  77
HETATM   77  C   UNK N   1      21.793  13.518   9.986  0.00  0.00     0.032 A 
HETATM   78  C   UNK N   1      23.053  13.708   9.408  0.00  0.00     0.017 A 
HETATM   79  C   UNK N   1      24.143  12.952   9.828  0.00  0.00     0.001 A 
HETATM   80  C   UNK N   1      23.959  11.942  10.770  0.00  0.00     0.000 A 
HETATM   81  C   UNK N   1      22.694  11.727  11.332  0.00  0.00     0.001 A 
HETATM   82  C   UNK N   1      21.610  12.520  10.948  0.00  0.00     0.017 A 
ENDBRANCH  74  77
ENDBRANCH  72  73
BRANCH  72  83
HETATM   83  C   UNK N   1      19.117  16.834   8.455  0.00  0.00    -0.033 A 
HETATM   84  C   UNK N   1      19.956  17.868   8.904  0.00  0.00     0.009 A 
HETATM   85  C   UNK N   1      19.483  18.825   9.800  0.00  0.00     0.001 A 
HETATM   86  C   UNK N   1      18.176  18.740  10.282  0.00  0.00     0.000 A 
HETATM   87  C   UNK N   1      17.337  17.706   9.853  0.00  0.00     0.001 A 
HETATM   88  C   UNK N   1      17.806  16.753   8.940  0.00  0.00     0.009 A 
ENDBRANCH  72  83
ENDBRANCH  47  72
ENDBRANCH  45  47
ENDBRANCH   1  45
TORSDOF 32
ENDMDL
MODEL 6
REMARK VINA RESULT:      -7.9      1.479      2.271
REMARK  32 active torsions:
REMARK  status: ('A' for Active; 'I' for Inactive)
REMARK    1  A    between atoms: C_18  and  O_2 
REMARK    2  A    between atoms: O_2  and  C_37 
REMARK    3  A    between atoms: C_21  and  O_3 
REMARK    4  A    between atoms: O_3  and  C_38 
REMARK    5  A    between atoms: C_22  and  O_4 
REMARK    6  A    between atoms: C_23  and  O_5 
REMARK    7  A    between atoms: C_31  and  O_6 
REMARK    8  A    between atoms: O_6  and  C_40 
REMARK    9  A    between atoms: C_32  and  O_8 
REMARK   10  A    between atoms: O_8  and  C_41 
REMARK   11  A    between atoms: C_43  and  O_13 
REMARK   12  A    between atoms: O_13  and  C_52 
REMARK   13  A    between atoms: C_47  and  N_16 
REMARK       I    between atoms: N_16  and  C_55 
REMARK   14  A    between atoms: C_38  and  C_42 
REMARK   15  A    between atoms: C_41  and  C_43 
REMARK   16  A    between atoms: C_43  and  C_47 
REMARK   17  A    between atoms: C_47  and  C_51 
REMARK   18  A    between atoms: C_52  and  C_56 
REMARK   19  A    between atoms: C_55  and  C_59 
REMARK   20  A    between atoms: C_56  and  C_60 
REMARK   21  A    between atoms: C_60  and  C_64 
REMARK   22  A    between atoms: C_67  and  C_69 
REMARK   23  A    between atoms: C_69  and  C_70 
REMARK   24  A    between atoms: C_71  and  C_72 
REMARK   25  A    between atoms: C_72  and  C_73 
REMARK   26  A    between atoms: C_74  and  C_75 
REMARK   27  A    between atoms: C_75  and  C_76 
REMARK   28  A    between atoms: C_77  and  C_78 
REMARK   29  A    between atoms: C_78  and  C_79 
REMARK   30  A    between atoms: C_80  and  C_81 
REMARK   31  A    between atoms: C_81  and  C_82 
REMARK   32  A    between atoms: C_83  and  C_84 
ROOT
HETATM    1  O   UNK N   1      21.866  12.420   5.797  0.00  0.00    -0.309 OA
ENDROOT
BRANCH   1   2
HETATM    2  C   UNK N   1      22.307  12.027   4.555  0.00  0.00     0.164 C 
HETATM    3  C   UNK N   1      23.853  12.097   4.574  0.00  0.00     0.078 C 
HETATM    4  C   UNK N   1      24.582  10.758   4.894  0.00  0.00     0.098 C 
HETATM    5  C   UNK N   1      25.014  10.242   3.480  0.00  0.00     0.176 C 
HETATM    6  C   UNK N   1      23.670   9.826   5.731  0.00  0.00     0.013 C 
HETATM    7  C   UNK N   1      25.426   8.723   3.322  0.00  0.00     0.076 C 
HETATM    8  C   UNK N   1      26.770   8.562   2.518  0.00  0.00     0.125 A 
HETATM    9  C   UNK N   1      24.231   7.766   2.830  0.00  0.00     0.055 C 
HETATM   10  C   UNK N   1      27.187   7.137   2.226  0.00  0.00     0.161 A 
HETATM   11  C   UNK N   1      26.696   8.681   1.016  0.00  0.00     0.210 A 
HETATM   12  O   UNK N   1      27.137   7.351   0.833  0.00  0.00    -0.380 OA
HETATM   13  C   UNK N   1      26.186   6.074   2.691  0.00  0.00     0.068 C 
HETATM   14  C   UNK N   1      24.775   6.421   2.235  0.00  0.00     0.137 C 
HETATM   15  C   UNK N   1      23.280   7.337   3.972  0.00  0.00     0.171 C 
HETATM   16  C   UNK N   1      23.397   8.456   1.747  0.00  0.00     0.027 C 
HETATM   17  O   UNK N   1      23.485   6.267   4.533  0.00  0.00    -0.294 OA
HETATM   18  C   UNK N   1      22.091   8.164   4.459  0.00  0.00     0.232 C 
HETATM   19  C   UNK N   1      22.479   9.561   4.826  0.00  0.00    -0.028 C 
HETATM   20  C   UNK N   1      21.837  10.619   4.264  0.00  0.00    -0.048 C 
HETATM   21  C   UNK N   1      20.712  10.428   3.296  0.00  0.00     0.046 C 
HETATM   22  C   UNK N   1      23.255  10.480   7.025  0.00  0.00     0.023 C 
HETATM   23  C   UNK N   1      24.396   8.590   6.250  0.00  0.00     0.023 C 
BRANCH   4  24
HETATM   24  O   UNK N   1      25.723  11.052   5.654  0.00  0.00    -0.386 OA
HETATM   25  H   UNK N   1      26.555  10.676   5.984  0.00  0.00     0.210 HD
ENDBRANCH   4  24
BRANCH   5  26
HETATM   26  O   UNK N   1      26.070  11.063   3.165  0.00  0.00    -0.308 OA
BRANCH  26  27
HETATM   27  C   UNK N   1      26.138  12.061   2.258  0.00  0.00     0.293 C 
HETATM   28  O   UNK N   1      25.482  12.038   1.228  0.00  0.00    -0.259 OA
BRANCH  27  29
HETATM   29  C   UNK N   1      27.056  13.165   2.578  0.00  0.00     0.039 A 
HETATM   30  C   UNK N   1      27.804  13.076   3.764  0.00  0.00     0.017 A 
HETATM   31  C   UNK N   1      28.714  14.069   4.112  0.00  0.00     0.001 A 
HETATM   32  C   UNK N   1      28.909  15.153   3.257  0.00  0.00     0.000 A 
HETATM   33  C   UNK N   1      28.176  15.247   2.067  0.00  0.00     0.001 A 
HETATM   34  C   UNK N   1      27.234  14.264   1.734  0.00  0.00     0.017 A 
ENDBRANCH  27  29
ENDBRANCH  26  27
ENDBRANCH   5  26
BRANCH   8  35
HETATM   35  O   UNK N   1      27.841   9.201   3.154  0.00  0.00    -0.305 OA
BRANCH  35  36
HETATM   36  C   UNK N   1      29.120   9.437   2.735  0.00  0.00     0.255 C 
HETATM   37  O   UNK N   1      30.029   8.806   3.246  0.00  0.00    -0.266 OA
HETATM   38  C   UNK N   1      29.461  10.450   1.690  0.00  0.00     0.126 C 
ENDBRANCH  35  36
ENDBRANCH   8  35
BRANCH  14  39
HETATM   39  O   UNK N   1      24.679   6.321   0.841  0.00  0.00    -0.394 OA
HETATM   40  H   UNK N   1      25.064   6.411  -0.044  0.00  0.00     0.210 HD
ENDBRANCH  14  39
BRANCH  18  41
HETATM   41  O   UNK N   1      21.507   7.575   5.563  0.00  0.00    -0.304 OA
BRANCH  41  42
HETATM   42  C   UNK N   1      20.238   7.103   5.559  0.00  0.00     0.255 C 
HETATM   43  O   UNK N   1      19.709   6.716   6.591  0.00  0.00    -0.266 OA
HETATM   44  C   UNK N   1      19.489   7.027   4.274  0.00  0.00     0.126 C 
ENDBRANCH  41  42
ENDBRANCH  18  41
ENDBRANCH   1   2
BRANCH   1  45
HETATM   45  C   UNK N   1      20.742  13.153   5.975  0.00  0.00     0.291 C 
HETATM   46  O   UNK N   1      19.647  12.606   6.007  0.00  0.00    -0.262 OA
BRANCH  45  47
HETATM   47  C   UNK N   1      20.858  14.652   6.117  0.00  0.00     0.258 C 
BRANCH  47  48
HETATM   48  O   UNK N   1      19.648  15.208   6.465  0.00  0.00    -0.303 OA
BRANCH  48  49
HETATM   49  C   UNK N   1      18.799  15.769   5.558  0.00  0.00     0.260 C 
HETATM   50  O   UNK N   1      17.660  16.040   5.902  0.00  0.00    -0.265 OA
BRANCH  49  51
HETATM   51  C   UNK N   1      19.211  16.114   4.151  0.00  0.00     0.115 C 
BRANCH  51  52
HETATM   52  C   UNK N   1      19.670  17.545   3.914  0.00  0.00     0.037 C 
BRANCH  52  53
HETATM   53  C   UNK N   1      20.305  17.773   2.582  0.00  0.00    -0.030 C 
HETATM   54  C   UNK N   1      21.378  18.555   2.393  0.00  0.00    -0.027 C 
BRANCH  54  55
HETATM   55  C   UNK N   1      22.140  19.396   3.401  0.00  0.00     0.053 C 
BRANCH  55  56
HETATM   56  C   UNK N   1      23.021  20.531   2.940  0.00  0.00    -0.027 C 
HETATM   57  C   UNK N   1      24.364  20.606   3.019  0.00  0.00    -0.027 C 
BRANCH  57  58
HETATM   58  C   UNK N   1      25.319  19.555   3.529  0.00  0.00     0.053 C 
BRANCH  58  59
HETATM   59  C   UNK N   1      26.767  19.918   3.430  0.00  0.00    -0.027 C 
HETATM   60  C   UNK N   1      27.653  19.591   4.378  0.00  0.00    -0.027 C 
BRANCH  60  61
HETATM   61  C   UNK N   1      27.291  18.792   5.592  0.00  0.00     0.053 C 
BRANCH  61  62
HETATM   62  C   UNK N   1      27.596  19.586   6.823  0.00  0.00    -0.027 C 
HETATM   63  C   UNK N   1      28.237  19.067   7.881  0.00  0.00    -0.027 C 
BRANCH  63  64
HETATM   64  C   UNK N   1      28.711  17.643   7.952  0.00  0.00     0.053 C 
BRANCH  64  65
HETATM   65  C   UNK N   1      30.183  17.571   8.232  0.00  0.00    -0.027 C 
HETATM   66  C   UNK N   1      31.063  17.140   7.321  0.00  0.00    -0.027 C 
BRANCH  66  67
HETATM   67  C   UNK N   1      30.647  16.654   5.963  0.00  0.00     0.053 C 
BRANCH  67  68
HETATM   68  C   UNK N   1      30.876  17.686   4.896  0.00  0.00    -0.027 C 
HETATM   69  C   UNK N   1      31.953  17.723   4.096  0.00  0.00    -0.031 C 
BRANCH  69  70
HETATM   70  C   UNK N   1      33.093  16.752   4.188  0.00  0.00     0.022 C 
HETATM   71  C   UNK N   1      32.971  15.658   3.145  0.00  0.00     0.009 C 
ENDBRANCH  69  70
ENDBRANCH  67  68
ENDBRANCH  66  67
ENDBRANCH  64  65
ENDBRANCH  63  64
ENDBRANCH  61  62
ENDBRANCH  60  61
ENDBRANCH  58  59
ENDBRANCH  57  58
ENDBRANCH  55  56
ENDBRANCH  54  55
ENDBRANCH  52  53
ENDBRANCH  51  52
ENDBRANCH  49  51
ENDBRANCH  48  49
ENDBRANCH  47  48
BRANCH  47  72
HETATM   72  C   UNK N   1      22.054  15.166   6.931  0.00  0.00     0.157 C 
BRANCH  72  73
HETATM   73  N   UNK N   1      22.479  14.161   7.917  0.00  0.00    -0.345 N 
HETATM   74  C   UNK N   1      21.953  13.986   9.169  0.00  0.00     0.252 C 
HETATM   75  O   UNK N   1      20.999  14.639   9.555  0.00  0.00    -0.268 OA
HETATM   76  H   UNK N   1      23.211  13.558   7.652  0.00  0.00     0.163 HD
BRANCH  74  77
HETATM   77  C   UNK N   1      22.509  13.024  10.104  0.00  0.00     0.032 A 
HETATM   78  C   UNK N   1      21.717  12.603  11.178  0.00  0.00     0.017 A 
HETATM   79  C   UNK N   1      22.280  11.888  12.231  0.00  0.00     0.001 A 
HETATM   80  C   UNK N   1      23.655  11.665  12.255  0.00  0.00     0.000 A 
HETATM   81  C   UNK N   1      24.458  12.111  11.198  0.00  0.00     0.001 A 
HETATM   82  C   UNK N   1      23.886  12.783  10.116  0.00  0.00     0.017 A 
ENDBRANCH  74  77
ENDBRANCH  72  73
BRANCH  72  83
HETATM   83  C   UNK N   1      23.149  15.576   5.974  0.00  0.00    -0.033 A 
HETATM   84  C   UNK N   1      22.841  15.900   4.642  0.00  0.00     0.009 A 
HETATM   85  C   UNK N   1      23.858  16.127   3.716  0.00  0.00     0.001 A 
HETATM   86  C   UNK N   1      25.193  16.002   4.104  0.00  0.00     0.000 A 
HETATM   87  C   UNK N   1      25.510  15.665   5.423  0.00  0.00     0.001 A 
HETATM   88  C   UNK N   1      24.491  15.452   6.359  0.00  0.00     0.009 A 
ENDBRANCH  72  83
ENDBRANCH  47  72
ENDBRANCH  45  47
ENDBRANCH   1  45
TORSDOF 32
ENDMDL
MODEL 7
REMARK VINA RESULT:      -7.8      4.608      9.307
REMARK  32 active torsions:
REMARK  status: ('A' for Active; 'I' for Inactive)
REMARK    1  A    between atoms: C_18  and  O_2 
REMARK    2  A    between atoms: O_2  and  C_37 
REMARK    3  A    between atoms: C_21  and  O_3 
REMARK    4  A    between atoms: O_3  and  C_38 
REMARK    5  A    between atoms: C_22  and  O_4 
REMARK    6  A    between atoms: C_23  and  O_5 
REMARK    7  A    between atoms: C_31  and  O_6 
REMARK    8  A    between atoms: O_6  and  C_40 
REMARK    9  A    between atoms: C_32  and  O_8 
REMARK   10  A    between atoms: O_8  and  C_41 
REMARK   11  A    between atoms: C_43  and  O_13 
REMARK   12  A    between atoms: O_13  and  C_52 
REMARK   13  A    between atoms: C_47  and  N_16 
REMARK       I    between atoms: N_16  and  C_55 
REMARK   14  A    between atoms: C_38  and  C_42 
REMARK   15  A    between atoms: C_41  and  C_43 
REMARK   16  A    between atoms: C_43  and  C_47 
REMARK   17  A    between atoms: C_47  and  C_51 
REMARK   18  A    between atoms: C_52  and  C_56 
REMARK   19  A    between atoms: C_55  and  C_59 
REMARK   20  A    between atoms: C_56  and  C_60 
REMARK   21  A    between atoms: C_60  and  C_64 
REMARK   22  A    between atoms: C_67  and  C_69 
REMARK   23  A    between atoms: C_69  and  C_70 
REMARK   24  A    between atoms: C_71  and  C_72 
REMARK   25  A    between atoms: C_72  and  C_73 
REMARK   26  A    between atoms: C_74  and  C_75 
REMARK   27  A    between atoms: C_75  and  C_76 
REMARK   28  A    between atoms: C_77  and  C_78 
REMARK   29  A    between atoms: C_78  and  C_79 
REMARK   30  A    between atoms: C_80  and  C_81 
REMARK   31  A    between atoms: C_81  and  C_82 
REMARK   32  A    between atoms: C_83  and  C_84 
ROOT
HETATM    1  O   UNK N   1      27.689  15.877   3.460  0.00  0.00    -0.309 OA
ENDROOT
BRANCH   1   2
HETATM    2  C   UNK N   1      27.061  15.038   4.350  0.00  0.00     0.164 C 
HETATM    3  C   UNK N   1      25.600  15.532   4.494  0.00  0.00     0.078 C 
HETATM    4  C   UNK N   1      24.557  14.815   3.586  0.00  0.00     0.098 C 
HETATM    5  C   UNK N   1      23.889  13.785   4.559  0.00  0.00     0.176 C 
HETATM    6  C   UNK N   1      25.239  14.240   2.319  0.00  0.00     0.013 C 
HETATM    7  C   UNK N   1      23.062  12.587   3.941  0.00  0.00     0.076 C 
HETATM    8  C   UNK N   1      21.667  12.412   4.650  0.00  0.00     0.125 A 
HETATM    9  C   UNK N   1      23.903  11.226   3.770  0.00  0.00     0.055 C 
HETATM   10  C   UNK N   1      20.851  11.222   4.196  0.00  0.00     0.161 A 
HETATM   11  C   UNK N   1      21.653  11.710   5.986  0.00  0.00     0.210 A 
HETATM   12  O   UNK N   1      20.848  10.660   5.489  0.00  0.00    -0.380 OA
HETATM   13  C   UNK N   1      21.551  10.325   3.170  0.00  0.00     0.068 C 
HETATM   14  C   UNK N   1      22.963   9.979   3.625  0.00  0.00     0.137 C 
HETATM   15  C   UNK N   1      24.785  11.207   2.499  0.00  0.00     0.171 C 
HETATM   16  C   UNK N   1      24.808  10.995   4.984  0.00  0.00     0.027 C 
HETATM   17  O   UNK N   1      24.336  10.687   1.484  0.00  0.00    -0.294 OA
HETATM   18  C   UNK N   1      26.190  11.800   2.418  0.00  0.00     0.232 C 
HETATM   19  C   UNK N   1      26.234  13.229   2.858  0.00  0.00    -0.028 C 
HETATM   20  C   UNK N   1      27.098  13.617   3.833  0.00  0.00    -0.048 C 
HETATM   21  C   UNK N   1      28.047  12.651   4.469  0.00  0.00     0.046 C 
HETATM   22  C   UNK N   1      25.919  15.325   1.521  0.00  0.00     0.023 C 
HETATM   23  C   UNK N   1      24.242  13.708   1.295  0.00  0.00     0.023 C 
BRANCH   4  24
HETATM   24  O   UNK N   1      23.605  15.761   3.181  0.00  0.00    -0.386 OA
HETATM   25  H   UNK N   1      23.142  16.566   3.461  0.00  0.00     0.210 HD
ENDBRANCH   4  24
BRANCH   5  26
HETATM   26  O   UNK N   1      23.080  14.578   5.336  0.00  0.00    -0.308 OA
BRANCH  26  27
HETATM   27  C   UNK N   1      23.154  14.841   6.659  0.00  0.00     0.293 C 
HETATM   28  O   UNK N   1      24.149  14.569   7.313  0.00  0.00    -0.259 OA
BRANCH  27  29
HETATM   29  C   UNK N   1      21.963  15.458   7.263  0.00  0.00     0.039 A 
HETATM   30  C   UNK N   1      21.347  14.789   8.333  0.00  0.00     0.017 A 
HETATM   31  C   UNK N   1      20.236  15.331   8.971  0.00  0.00     0.001 A 
HETATM   32  C   UNK N   1      19.746  16.571   8.564  0.00  0.00     0.000 A 
HETATM   33  C   UNK N   1      20.358  17.252   7.504  0.00  0.00     0.001 A 
HETATM   34  C   UNK N   1      21.456  16.689   6.838  0.00  0.00     0.017 A 
ENDBRANCH  27  29
ENDBRANCH  26  27
ENDBRANCH   5  26
BRANCH   8  35
HETATM   35  O   UNK N   1      20.868  13.554   4.524  0.00  0.00    -0.305 OA
BRANCH  35  36
HETATM   36  C   UNK N   1      20.028  13.954   3.523  0.00  0.00     0.255 C 
HETATM   37  O   UNK N   1      18.831  13.999   3.748  0.00  0.00    -0.266 OA
HETATM   38  C   UNK N   1      20.506  14.321   2.156  0.00  0.00     0.126 C 
ENDBRANCH  35  36
ENDBRANCH   8  35
BRANCH  14  39
HETATM   39  O   UNK N   1      22.918   9.151   4.754  0.00  0.00    -0.394 OA
HETATM   40  H   UNK N   1      23.095   8.986   5.693  0.00  0.00     0.210 HD
ENDBRANCH  14  39
BRANCH  18  41
HETATM   41  O   UNK N   1      26.673  11.733   1.126  0.00  0.00    -0.304 OA
BRANCH  41  42
HETATM   42  C   UNK N   1      27.873  11.186   0.817  0.00  0.00     0.255 C 
HETATM   43  O   UNK N   1      28.872  11.883   0.708  0.00  0.00    -0.266 OA
HETATM   44  C   UNK N   1      27.970   9.719   0.576  0.00  0.00     0.126 C 
ENDBRANCH  41  42
ENDBRANCH  18  41
ENDBRANCH   1   2
BRANCH   1  45
HETATM   45  C   UNK N   1      29.014  16.148   3.521  0.00  0.00     0.291 C 
HETATM   46  O   UNK N   1      29.699  16.109   2.508  0.00  0.00    -0.262 OA
BRANCH  45  47
HETATM   47  C   UNK N   1      29.633  16.481   4.858  0.00  0.00     0.258 C 
BRANCH  47  48
HETATM   48  O   UNK N   1      30.996  16.283   4.831  0.00  0.00    -0.303 OA
BRANCH  48  49
HETATM   49  C   UNK N   1      31.593  15.154   5.305  0.00  0.00     0.260 C 
HETATM   50  O   UNK N   1      31.400  14.095   4.729  0.00  0.00    -0.265 OA
BRANCH  49  51
HETATM   51  C   UNK N   1      32.524  15.152   6.488  0.00  0.00     0.115 C 
BRANCH  51  52
HETATM   52  C   UNK N   1      33.862  15.851   6.297  0.00  0.00     0.037 C 
BRANCH  52  53
HETATM   53  C   UNK N   1      33.849  17.304   6.638  0.00  0.00    -0.030 C 
HETATM   54  C   UNK N   1      34.200  17.791   7.838  0.00  0.00    -0.027 C 
BRANCH  54  55
HETATM   55  C   UNK N   1      34.620  17.041   9.090  0.00  0.00     0.053 C 
BRANCH  55  56
HETATM   56  C   UNK N   1      33.682  16.051   9.737  0.00  0.00    -0.027 C 
HETATM   57  C   UNK N   1      33.991  14.833  10.223  0.00  0.00    -0.027 C 
BRANCH  57  58
HETATM   58  C   UNK N   1      35.353  14.186  10.298  0.00  0.00     0.053 C 
BRANCH  58  59
HETATM   59  C   UNK N   1      35.390  12.876  11.019  0.00  0.00    -0.027 C 
HETATM   60  C   UNK N   1      35.520  12.794  12.348  0.00  0.00    -0.027 C 
BRANCH  60  61
HETATM   61  C   UNK N   1      35.586  13.999  13.237  0.00  0.00     0.053 C 
BRANCH  61  62
HETATM   62  C   UNK N   1      36.666  13.810  14.255  0.00  0.00    -0.027 C 
HETATM   63  C   UNK N   1      36.420  13.382  15.502  0.00  0.00    -0.027 C 
BRANCH  63  64
HETATM   64  C   UNK N   1      35.047  13.052  16.014  0.00  0.00     0.053 C 
BRANCH  64  65
HETATM   65  C   UNK N   1      34.909  13.398  17.467  0.00  0.00    -0.027 C 
HETATM   66  C   UNK N   1      35.296  12.566  18.441  0.00  0.00    -0.027 C 
BRANCH  66  67
HETATM   67  C   UNK N   1      35.861  11.203  18.160  0.00  0.00     0.053 C 
BRANCH  67  68
HETATM   68  C   UNK N   1      34.797  10.142  18.139  0.00  0.00    -0.027 C 
HETATM   69  C   UNK N   1      34.674   9.211  17.181  0.00  0.00    -0.031 C 
BRANCH  69  70
HETATM   70  C   UNK N   1      35.568   9.130  15.979  0.00  0.00     0.022 C 
HETATM   71  C   UNK N   1      34.911   9.750  14.760  0.00  0.00     0.009 C 
ENDBRANCH  69  70
ENDBRANCH  67  68
ENDBRANCH  66  67
ENDBRANCH  64  65
ENDBRANCH  63  64
ENDBRANCH  61  62
ENDBRANCH  60  61
ENDBRANCH  58  59
ENDBRANCH  57  58
ENDBRANCH  55  56
ENDBRANCH  54  55
ENDBRANCH  52  53
ENDBRANCH  51  52
ENDBRANCH  49  51
ENDBRANCH  48  49
ENDBRANCH  47  48
BRANCH  47  72
HETATM   72  C   UNK N   1      29.193  17.804   5.499  0.00  0.00     0.157 C 
BRANCH  72  73
HETATM   73  N   UNK N   1      27.885  18.223   4.974  0.00  0.00    -0.345 N 
HETATM   74  C   UNK N   1      27.477  19.512   4.760  0.00  0.00     0.252 C 
HETATM   75  O   UNK N   1      28.230  20.455   4.932  0.00  0.00    -0.268 OA
HETATM   76  H   UNK N   1      27.241  17.510   4.758  0.00  0.00     0.163 HD
BRANCH  74  77
HETATM   77  C   UNK N   1      26.126  19.825   4.327  0.00  0.00     0.032 A 
HETATM   78  C   UNK N   1      25.067  19.080   4.857  0.00  0.00     0.017 A 
HETATM   79  C   UNK N   1      23.796  19.164   4.296  0.00  0.00     0.001 A 
HETATM   80  C   UNK N   1      23.599  19.930   3.149  0.00  0.00     0.000 A 
HETATM   81  C   UNK N   1      24.662  20.655   2.596  0.00  0.00     0.001 A 
HETATM   82  C   UNK N   1      25.925  20.612   3.189  0.00  0.00     0.017 A 
ENDBRANCH  74  77
ENDBRANCH  72  73
BRANCH  72  83
HETATM   83  C   UNK N   1      29.221  17.646   7.001  0.00  0.00    -0.033 A 
HETATM   84  C   UNK N   1      28.025  17.469   7.717  0.00  0.00     0.009 A 
HETATM   85  C   UNK N   1      28.027  17.478   9.110  0.00  0.00     0.001 A 
HETATM   86  C   UNK N   1      29.218  17.698   9.803  0.00  0.00     0.000 A 
HETATM   87  C   UNK N   1      30.411  17.891   9.101  0.00  0.00     0.001 A 
HETATM   88  C   UNK N   1      30.415  17.866   7.701  0.00  0.00     0.009 A 
ENDBRANCH  72  83
ENDBRANCH  47  72
ENDBRANCH  45  47
ENDBRANCH   1  45
TORSDOF 32
ENDMDL
MODEL 8
REMARK VINA RESULT:      -7.7      3.963      8.942
REMARK  32 active torsions:
REMARK  status: ('A' for Active; 'I' for Inactive)
REMARK    1  A    between atoms: C_18  and  O_2 
REMARK    2  A    between atoms: O_2  and  C_37 
REMARK    3  A    between atoms: C_21  and  O_3 
REMARK    4  A    between atoms: O_3  and  C_38 
REMARK    5  A    between atoms: C_22  and  O_4 
REMARK    6  A    between atoms: C_23  and  O_5 
REMARK    7  A    between atoms: C_31  and  O_6 
REMARK    8  A    between atoms: O_6  and  C_40 
REMARK    9  A    between atoms: C_32  and  O_8 
REMARK   10  A    between atoms: O_8  and  C_41 
REMARK   11  A    between atoms: C_43  and  O_13 
REMARK   12  A    between atoms: O_13  and  C_52 
REMARK   13  A    between atoms: C_47  and  N_16 
REMARK       I    between atoms: N_16  and  C_55 
REMARK   14  A    between atoms: C_38  and  C_42 
REMARK   15  A    between atoms: C_41  and  C_43 
REMARK   16  A    between atoms: C_43  and  C_47 
REMARK   17  A    between atoms: C_47  and  C_51 
REMARK   18  A    between atoms: C_52  and  C_56 
REMARK   19  A    between atoms: C_55  and  C_59 
REMARK   20  A    between atoms: C_56  and  C_60 
REMARK   21  A    between atoms: C_60  and  C_64 
REMARK   22  A    between atoms: C_67  and  C_69 
REMARK   23  A    between atoms: C_69  and  C_70 
REMARK   24  A    between atoms: C_71  and  C_72 
REMARK   25  A    between atoms: C_72  and  C_73 
REMARK   26  A    between atoms: C_74  and  C_75 
REMARK   27  A    between atoms: C_75  and  C_76 
REMARK   28  A    between atoms: C_77  and  C_78 
REMARK   29  A    between atoms: C_78  and  C_79 
REMARK   30  A    between atoms: C_80  and  C_81 
REMARK   31  A    between atoms: C_81  and  C_82 
REMARK   32  A    between atoms: C_83  and  C_84 
ROOT
HETATM    1  O   UNK N   1      27.274  15.879   3.603  0.00  0.00    -0.309 OA
ENDROOT
BRANCH   1   2
HETATM    2  C   UNK N   1      26.554  15.086   4.465  0.00  0.00     0.164 C 
HETATM    3  C   UNK N   1      25.098  15.613   4.465  0.00  0.00     0.078 C 
HETATM    4  C   UNK N   1      24.120  14.884   3.497  0.00  0.00     0.098 C 
HETATM    5  C   UNK N   1      23.348  13.905   4.445  0.00  0.00     0.176 C 
HETATM    6  C   UNK N   1      24.893  14.250   2.314  0.00  0.00     0.013 C 
HETATM    7  C   UNK N   1      22.549  12.701   3.800  0.00  0.00     0.076 C 
HETATM    8  C   UNK N   1      21.096  12.580   4.393  0.00  0.00     0.125 A 
HETATM    9  C   UNK N   1      23.370  11.319   3.750  0.00  0.00     0.055 C 
HETATM   10  C   UNK N   1      20.294  11.390   3.912  0.00  0.00     0.161 A 
HETATM   11  C   UNK N   1      20.952  11.928   5.746  0.00  0.00     0.210 A 
HETATM   12  O   UNK N   1      20.169  10.877   5.220  0.00  0.00    -0.380 OA
HETATM   13  C   UNK N   1      21.059  10.442   2.982  0.00  0.00     0.068 C 
HETATM   14  C   UNK N   1      22.418  10.086   3.569  0.00  0.00     0.137 C 
HETATM   15  C   UNK N   1      24.357  11.235   2.561  0.00  0.00     0.171 C 
HETATM   16  C   UNK N   1      24.164  11.114   5.044  0.00  0.00     0.027 C 
HETATM   17  O   UNK N   1      23.984  10.687   1.529  0.00  0.00    -0.294 OA
HETATM   18  C   UNK N   1      25.777  11.797   2.579  0.00  0.00     0.232 C 
HETATM   19  C   UNK N   1      25.816  13.240   2.971  0.00  0.00    -0.028 C 
HETATM   20  C   UNK N   1      26.603  13.647   4.003  0.00  0.00    -0.048 C 
HETATM   21  C   UNK N   1      27.472  12.685   4.751  0.00  0.00     0.046 C 
HETATM   22  C   UNK N   1      25.663  15.291   1.540  0.00  0.00     0.023 C 
HETATM   23  C   UNK N   1      23.975  13.701   1.228  0.00  0.00     0.023 C 
BRANCH   4  24
HETATM   24  O   UNK N   1      23.227  15.834   2.980  0.00  0.00    -0.386 OA
HETATM   25  H   UNK N   1      22.328  16.186   3.071  0.00  0.00     0.210 HD
ENDBRANCH   4  24
BRANCH   5  26
HETATM   26  O   UNK N   1      22.495  14.742   5.121  0.00  0.00    -0.308 OA
BRANCH  26  27
HETATM   27  C   UNK N   1      22.643  15.319   6.333  0.00  0.00     0.293 C 
HETATM   28  O   UNK N   1      22.477  16.518   6.498  0.00  0.00    -0.259 OA
BRANCH  27  29
HETATM   29  C   UNK N   1      23.030  14.423   7.434  0.00  0.00     0.039 A 
HETATM   30  C   UNK N   1      24.376  14.030   7.520  0.00  0.00     0.017 A 
HETATM   31  C   UNK N   1      24.817  13.210   8.553  0.00  0.00     0.001 A 
HETATM   32  C   UNK N   1      23.917  12.795   9.534  0.00  0.00     0.000 A 
HETATM   33  C   UNK N   1      22.574  13.188   9.463  0.00  0.00     0.001 A 
HETATM   34  C   UNK N   1      22.123  13.987   8.403  0.00  0.00     0.017 A 
ENDBRANCH  27  29
ENDBRANCH  26  27
ENDBRANCH   5  26
BRANCH   8  35
HETATM   35  O   UNK N   1      20.337  13.732   4.159  0.00  0.00    -0.305 OA
BRANCH  35  36
HETATM   36  C   UNK N   1      19.189  14.184   4.746  0.00  0.00     0.255 C 
HETATM   37  O   UNK N   1      18.164  13.541   4.596  0.00  0.00    -0.266 OA
HETATM   38  C   UNK N   1      19.125  15.441   5.551  0.00  0.00     0.126 C 
ENDBRANCH  35  36
ENDBRANCH   8  35
BRANCH  14  39
HETATM   39  O   UNK N   1      22.258   9.301   4.717  0.00  0.00    -0.394 OA
HETATM   40  H   UNK N   1      21.754   9.040   5.504  0.00  0.00     0.210 HD
ENDBRANCH  14  39
BRANCH  18  41
HETATM   41  O   UNK N   1      26.367  11.672   1.337  0.00  0.00    -0.304 OA
BRANCH  41  42
HETATM   42  C   UNK N   1      27.612  11.172   1.161  0.00  0.00     0.255 C 
HETATM   43  O   UNK N   1      27.802   9.966   1.095  0.00  0.00    -0.266 OA
HETATM   44  C   UNK N   1      28.771  12.104   1.078  0.00  0.00     0.126 C 
ENDBRANCH  41  42
ENDBRANCH  18  41
ENDBRANCH   1   2
BRANCH   1  45
HETATM   45  C   UNK N   1      28.628  15.877   3.567  0.00  0.00     0.291 C 
HETATM   46  O   UNK N   1      29.218  15.565   2.541  0.00  0.00    -0.262 OA
BRANCH  45  47
HETATM   47  C   UNK N   1      29.395  16.249   4.814  0.00  0.00     0.258 C 
BRANCH  47  48
HETATM   48  O   UNK N   1      30.748  16.069   4.630  0.00  0.00    -0.303 OA
BRANCH  48  49
HETATM   49  C   UNK N   1      31.465  15.109   5.278  0.00  0.00     0.260 C 
HETATM   50  O   UNK N   1      30.883  14.336   6.022  0.00  0.00    -0.265 OA
BRANCH  49  51
HETATM   51  C   UNK N   1      32.947  14.921   5.088  0.00  0.00     0.115 C 
BRANCH  51  52
HETATM   52  C   UNK N   1      33.849  15.563   6.131  0.00  0.00     0.037 C 
BRANCH  52  53
HETATM   53  C   UNK N   1      33.917  17.052   6.050  0.00  0.00    -0.030 C 
HETATM   54  C   UNK N   1      33.870  17.859   7.121  0.00  0.00    -0.027 C 
BRANCH  54  55
HETATM   55  C   UNK N   1      33.691  17.498   8.585  0.00  0.00     0.053 C 
BRANCH  55  56
HETATM   56  C   UNK N   1      34.760  16.722   9.317  0.00  0.00    -0.027 C 
HETATM   57  C   UNK N   1      34.638  15.512   9.896  0.00  0.00    -0.027 C 
BRANCH  57  58
HETATM   58  C   UNK N   1      33.429  14.610   9.903  0.00  0.00     0.053 C 
BRANCH  58  59
HETATM   59  C   UNK N   1      33.187  13.869   8.626  0.00  0.00    -0.027 C 
HETATM   60  C   UNK N   1      33.375  12.549   8.518  0.00  0.00    -0.027 C 
BRANCH  60  61
HETATM   61  C   UNK N   1      33.791  11.687   9.671  0.00  0.00     0.053 C 
BRANCH  61  62
HETATM   62  C   UNK N   1      35.271  11.790   9.864  0.00  0.00    -0.027 C 
HETATM   63  C   UNK N   1      35.840  11.895  11.074  0.00  0.00    -0.027 C 
BRANCH  63  64
HETATM   64  C   UNK N   1      35.063  11.926  12.360  0.00  0.00     0.053 C 
BRANCH  64  65
HETATM   65  C   UNK N   1      34.509  10.573  12.695  0.00  0.00    -0.027 C 
HETATM   66  C   UNK N   1      33.965  10.298  13.886  0.00  0.00    -0.027 C 
BRANCH  66  67
HETATM   67  C   UNK N   1      33.903  11.306  14.997  0.00  0.00     0.053 C 
BRANCH  67  68
HETATM   68  C   UNK N   1      34.719  10.889  16.187  0.00  0.00    -0.027 C 
HETATM   69  C   UNK N   1      35.378  11.739  16.989  0.00  0.00    -0.031 C 
BRANCH  69  70
HETATM   70  C   UNK N   1      35.414  13.224  16.779  0.00  0.00     0.022 C 
HETATM   71  C   UNK N   1      35.239  13.970  18.088  0.00  0.00     0.009 C 
ENDBRANCH  69  70
ENDBRANCH  67  68
ENDBRANCH  66  67
ENDBRANCH  64  65
ENDBRANCH  63  64
ENDBRANCH  61  62
ENDBRANCH  60  61
ENDBRANCH  58  59
ENDBRANCH  57  58
ENDBRANCH  55  56
ENDBRANCH  54  55
ENDBRANCH  52  53
ENDBRANCH  51  52
ENDBRANCH  49  51
ENDBRANCH  48  49
ENDBRANCH  47  48
BRANCH  47  72
HETATM   72  C   UNK N   1      29.012  17.581   5.474  0.00  0.00     0.157 C 
BRANCH  72  73
HETATM   73  N   UNK N   1      27.732  18.073   4.943  0.00  0.00    -0.345 N 
HETATM   74  C   UNK N   1      27.438  19.370   4.620  0.00  0.00     0.252 C 
HETATM   75  O   UNK N   1      28.280  20.249   4.687  0.00  0.00    -0.268 OA
HETATM   76  H   UNK N   1      27.019  17.406   4.809  0.00  0.00     0.163 HD
BRANCH  74  77
HETATM   77  C   UNK N   1      26.108  19.768   4.191  0.00  0.00     0.032 A 
HETATM   78  C   UNK N   1      25.006  19.087   4.717  0.00  0.00     0.017 A 
HETATM   79  C   UNK N   1      23.742  19.254   4.159  0.00  0.00     0.001 A 
HETATM   80  C   UNK N   1      23.592  20.038   3.017  0.00  0.00     0.000 A 
HETATM   81  C   UNK N   1      24.697  20.699   2.467  0.00  0.00     0.001 A 
HETATM   82  C   UNK N   1      25.956  20.574   3.059  0.00  0.00     0.017 A 
ENDBRANCH  74  77
ENDBRANCH  72  73
BRANCH  72  83
HETATM   83  C   UNK N   1      29.014  17.394   6.974  0.00  0.00    -0.033 A 
HETATM   84  C   UNK N   1      27.813  17.148   7.658  0.00  0.00     0.009 A 
HETATM   85  C   UNK N   1      27.783  17.130   9.052  0.00  0.00     0.001 A 
HETATM   86  C   UNK N   1      28.947  17.390   9.776  0.00  0.00     0.000 A 
HETATM   87  C   UNK N   1      30.146  17.652   9.104  0.00  0.00     0.001 A 
HETATM   88  C   UNK N   1      30.181  17.654   7.704  0.00  0.00     0.009 A 
ENDBRANCH  72  83
ENDBRANCH  47  72
ENDBRANCH  45  47
ENDBRANCH   1  45
TORSDOF 32
ENDMDL
MODEL 9
REMARK VINA RESULT:      -7.7      3.436      8.408
REMARK  32 active torsions:
REMARK  status: ('A' for Active; 'I' for Inactive)
REMARK    1  A    between atoms: C_18  and  O_2 
REMARK    2  A    between atoms: O_2  and  C_37 
REMARK    3  A    between atoms: C_21  and  O_3 
REMARK    4  A    between atoms: O_3  and  C_38 
REMARK    5  A    between atoms: C_22  and  O_4 
REMARK    6  A    between atoms: C_23  and  O_5 
REMARK    7  A    between atoms: C_31  and  O_6 
REMARK    8  A    between atoms: O_6  and  C_40 
REMARK    9  A    between atoms: C_32  and  O_8 
REMARK   10  A    between atoms: O_8  and  C_41 
REMARK   11  A    between atoms: C_43  and  O_13 
REMARK   12  A    between atoms: O_13  and  C_52 
REMARK   13  A    between atoms: C_47  and  N_16 
REMARK       I    between atoms: N_16  and  C_55 
REMARK   14  A    between atoms: C_38  and  C_42 
REMARK   15  A    between atoms: C_41  and  C_43 
REMARK   16  A    between atoms: C_43  and  C_47 
REMARK   17  A    between atoms: C_47  and  C_51 
REMARK   18  A    between atoms: C_52  and  C_56 
REMARK   19  A    between atoms: C_55  and  C_59 
REMARK   20  A    between atoms: C_56  and  C_60 
REMARK   21  A    between atoms: C_60  and  C_64 
REMARK   22  A    between atoms: C_67  and  C_69 
REMARK   23  A    between atoms: C_69  and  C_70 
REMARK   24  A    between atoms: C_71  and  C_72 
REMARK   25  A    between atoms: C_72  and  C_73 
REMARK   26  A    between atoms: C_74  and  C_75 
REMARK   27  A    between atoms: C_75  and  C_76 
REMARK   28  A    between atoms: C_77  and  C_78 
REMARK   29  A    between atoms: C_78  and  C_79 
REMARK   30  A    between atoms: C_80  and  C_81 
REMARK   31  A    between atoms: C_81  and  C_82 
REMARK   32  A    between atoms: C_83  and  C_84 
ROOT
HETATM    1  O   UNK N   1      25.750  16.123   6.370  0.00  0.00    -0.309 OA
ENDROOT
BRANCH   1   2
HETATM    2  C   UNK N   1      25.126  16.120   5.145  0.00  0.00     0.164 C 
HETATM    3  C   UNK N   1      25.208  14.676   4.592  0.00  0.00     0.078 C 
HETATM    4  C   UNK N   1      23.963  13.781   4.863  0.00  0.00     0.098 C 
HETATM    5  C   UNK N   1      23.184  13.837   3.505  0.00  0.00     0.176 C 
HETATM    6  C   UNK N   1      23.206  14.266   6.125  0.00  0.00     0.013 C 
HETATM    7  C   UNK N   1      21.666  13.392   3.484  0.00  0.00     0.076 C 
HETATM    8  C   UNK N   1      21.361  12.409   2.293  0.00  0.00     0.125 A 
HETATM    9  C   UNK N   1      20.623  14.607   3.637  0.00  0.00     0.055 C 
HETATM   10  C   UNK N   1      19.909  12.015   2.131  0.00  0.00     0.161 A 
HETATM   11  C   UNK N   1      21.184  13.017   0.923  0.00  0.00     0.210 A 
HETATM   12  O   UNK N   1      19.847  12.568   0.835  0.00  0.00    -0.380 OA
HETATM   13  C   UNK N   1      18.950  12.703   3.108  0.00  0.00     0.068 C 
HETATM   14  C   UNK N   1      19.192  14.207   3.137  0.00  0.00     0.137 C 
HETATM   15  C   UNK N   1      20.419  15.059   5.102  0.00  0.00     0.171 C 
HETATM   16  C   UNK N   1      21.084  15.819   2.822  0.00  0.00     0.027 C 
HETATM   17  O   UNK N   1      19.480  14.588   5.734  0.00  0.00    -0.294 OA
HETATM   18  C   UNK N   1      21.317  16.060   5.827  0.00  0.00     0.232 C 
HETATM   19  C   UNK N   1      22.761  15.675   5.773  0.00  0.00    -0.028 C 
HETATM   20  C   UNK N   1      23.685  16.553   5.300  0.00  0.00    -0.048 C 
HETATM   21  C   UNK N   1      23.301  17.929   4.854  0.00  0.00     0.046 C 
HETATM   22  C   UNK N   1      24.097  14.248   7.341  0.00  0.00     0.023 C 
HETATM   23  C   UNK N   1      22.099  13.312   6.560  0.00  0.00     0.023 C 
BRANCH   4  24
HETATM   24  O   UNK N   1      24.407  12.472   5.094  0.00  0.00    -0.386 OA
HETATM   25  H   UNK N   1      24.514  11.602   4.677  0.00  0.00     0.210 HD
ENDBRANCH   4  24
BRANCH   5  26
HETATM   26  O   UNK N   1      23.935  13.026   2.689  0.00  0.00    -0.308 OA
BRANCH  26  27
HETATM   27  C   UNK N   1      24.775  13.362   1.686  0.00  0.00     0.293 C 
HETATM   28  O   UNK N   1      24.500  14.243   0.886  0.00  0.00    -0.259 OA
BRANCH  27  29
HETATM   29  C   UNK N   1      26.028  12.594   1.607  0.00  0.00     0.039 A 
HETATM   30  C   UNK N   1      25.960  11.270   1.145  0.00  0.00     0.017 A 
HETATM   31  C   UNK N   1      27.110  10.498   1.015  0.00  0.00     0.001 A 
HETATM   32  C   UNK N   1      28.350  11.056   1.320  0.00  0.00     0.000 A 
HETATM   33  C   UNK N   1      28.431  12.379   1.773  0.00  0.00     0.001 A 
HETATM   34  C   UNK N   1      27.269  13.146   1.936  0.00  0.00     0.017 A 
ENDBRANCH  27  29
ENDBRANCH  26  27
ENDBRANCH   5  26
BRANCH   8  35
HETATM   35  O   UNK N   1      22.118  11.235   2.374  0.00  0.00    -0.305 OA
BRANCH  35  36
HETATM   36  C   UNK N   1      22.293  10.352   3.401  0.00  0.00     0.255 C 
HETATM   37  O   UNK N   1      23.423   9.976   3.663  0.00  0.00    -0.266 OA
HETATM   38  C   UNK N   1      21.161   9.806   4.209  0.00  0.00     0.126 C 
ENDBRANCH  35  36
ENDBRANCH   8  35
BRANCH  14  39
HETATM   39  O   UNK N   1      18.822  14.779   1.914  0.00  0.00    -0.394 OA
HETATM   40  H   UNK N   1      18.171  15.219   1.345  0.00  0.00     0.210 HD
ENDBRANCH  14  39
BRANCH  18  41
HETATM   41  O   UNK N   1      20.951  16.171   7.154  0.00  0.00    -0.304 OA
BRANCH  41  42
HETATM   42  C   UNK N   1      20.480  17.320   7.693  0.00  0.00     0.255 C 
HETATM   43  O   UNK N   1      20.941  18.404   7.364  0.00  0.00    -0.266 OA
HETATM   44  C   UNK N   1      19.408  17.260   8.725  0.00  0.00     0.126 C 
ENDBRANCH  41  42
ENDBRANCH  18  41
ENDBRANCH   1   2
BRANCH   1  45
HETATM   45  C   UNK N   1      27.090  15.986   6.507  0.00  0.00     0.291 C 
HETATM   46  O   UNK N   1      27.637  14.933   6.208  0.00  0.00    -0.262 OA
BRANCH  45  47
HETATM   47  C   UNK N   1      27.894  17.144   7.050  0.00  0.00     0.258 C 
BRANCH  47  48
HETATM   48  O   UNK N   1      28.467  16.820   8.259  0.00  0.00    -0.303 OA
BRANCH  48  49
HETATM   49  C   UNK N   1      29.432  17.578   8.852  0.00  0.00     0.260 C 
HETATM   50  O   UNK N   1      29.119  18.643   9.359  0.00  0.00    -0.265 OA
BRANCH  49  51
HETATM   51  C   UNK N   1      30.871  17.145   8.954  0.00  0.00     0.115 C 
BRANCH  51  52
HETATM   52  C   UNK N   1      31.867  17.902   8.089  0.00  0.00     0.037 C 
BRANCH  52  53
HETATM   53  C   UNK N   1      33.284  17.790   8.544  0.00  0.00    -0.030 C 
HETATM   54  C   UNK N   1      34.298  17.433   7.741  0.00  0.00    -0.027 C 
BRANCH  54  55
HETATM   55  C   UNK N   1      34.264  17.026   6.279  0.00  0.00     0.053 C 
BRANCH  55  56
HETATM   56  C   UNK N   1      34.875  15.719   5.835  0.00  0.00    -0.027 C 
HETATM   57  C   UNK N   1      34.395  14.479   6.050  0.00  0.00    -0.027 C 
BRANCH  57  58
HETATM   58  C   UNK N   1      33.103  14.094   6.728  0.00  0.00     0.053 C 
BRANCH  58  59
HETATM   59  C   UNK N   1      33.157  12.821   7.512  0.00  0.00    -0.027 C 
HETATM   60  C   UNK N   1      33.926  12.681   8.597  0.00  0.00    -0.027 C 
BRANCH  60  61
HETATM   61  C   UNK N   1      34.759  13.795   9.156  0.00  0.00     0.053 C 
BRANCH  61  62
HETATM   62  C   UNK N   1      33.939  14.601  10.113  0.00  0.00    -0.027 C 
HETATM   63  C   UNK N   1      34.458  15.173  11.210  0.00  0.00    -0.027 C 
BRANCH  63  64
HETATM   64  C   UNK N   1      35.905  15.066  11.600  0.00  0.00     0.053 C 
BRANCH  64  65
HETATM   65  C   UNK N   1      36.119  13.976  12.608  0.00  0.00    -0.027 C 
HETATM   66  C   UNK N   1      36.981  12.973  12.404  0.00  0.00    -0.027 C 
BRANCH  66  67
HETATM   67  C   UNK N   1      37.771  12.834  11.135  0.00  0.00     0.053 C 
BRANCH  67  68
HETATM   68  C   UNK N   1      37.484  11.540  10.427  0.00  0.00    -0.027 C 
HETATM   69  C   UNK N   1      37.593  11.362   9.101  0.00  0.00    -0.031 C 
BRANCH  69  70
HETATM   70  C   UNK N   1      37.984  12.448   8.144  0.00  0.00     0.022 C 
HETATM   71  C   UNK N   1      37.296  12.276   6.803  0.00  0.00     0.009 C 
ENDBRANCH  69  70
ENDBRANCH  67  68
ENDBRANCH  66  67
ENDBRANCH  64  65
ENDBRANCH  63  64
ENDBRANCH  61  62
ENDBRANCH  60  61
ENDBRANCH  58  59
ENDBRANCH  57  58
ENDBRANCH  55  56
ENDBRANCH  54  55
ENDBRANCH  52  53
ENDBRANCH  51  52
ENDBRANCH  49  51
ENDBRANCH  48  49
ENDBRANCH  47  48
BRANCH  47  72
HETATM   72  C   UNK N   1      28.841  17.836   6.060  0.00  0.00     0.157 C 
BRANCH  72  73
HETATM   73  N   UNK N   1      29.579  16.840   5.268  0.00  0.00    -0.345 N 
HETATM   74  C   UNK N   1      30.744  17.057   4.583  0.00  0.00     0.252 C 
HETATM   75  O   UNK N   1      31.322  18.129   4.634  0.00  0.00    -0.268 OA
HETATM   76  H   UNK N   1      29.200  15.932   5.226  0.00  0.00     0.163 HD
BRANCH  74  77
HETATM   77  C   UNK N   1      31.345  16.029   3.751  0.00  0.00     0.032 A 
HETATM   78  C   UNK N   1      30.857  14.722   3.849  0.00  0.00     0.017 A 
HETATM   79  C   UNK N   1      31.553  13.664   3.272  0.00  0.00     0.001 A 
HETATM   80  C   UNK N   1      32.786  13.899   2.667  0.00  0.00     0.000 A 
HETATM   81  C   UNK N   1      33.295  15.202   2.592  0.00  0.00     0.001 A 
HETATM   82  C   UNK N   1      32.571  16.271   3.125  0.00  0.00     0.017 A 
ENDBRANCH  74  77
ENDBRANCH  72  73
BRANCH  72  83
HETATM   83  C   UNK N   1      28.040  18.803   5.220  0.00  0.00    -0.033 A 
HETATM   84  C   UNK N   1      27.665  20.052   5.743  0.00  0.00     0.009 A 
HETATM   85  C   UNK N   1      26.797  20.883   5.037  0.00  0.00     0.001 A 
HETATM   86  C   UNK N   1      26.270  20.461   3.816  0.00  0.00     0.000 A 
HETATM   87  C   UNK N   1      26.624  19.213   3.294  0.00  0.00     0.001 A 
HETATM   88  C   UNK N   1      27.508  18.384   3.994  0.00  0.00     0.009 A 
ENDBRANCH  72  83
ENDBRANCH  47  72
ENDBRANCH  45  47
ENDBRANCH   1  45
TORSDOF 32
ENDMDL
