MODEL 1
REMARK VINA RESULT:      -7.6      0.000      0.000
REMARK  7 active torsions:
REMARK  status: ('A' for Active; 'I' for Inactive)
REMARK    1  A    between atoms: O_2  and  C_29 
REMARK       I    between atoms: N_3  and  C_23 
REMARK    2  A    between atoms: N_3  and  C_24 
REMARK    3  A    between atoms: C_7  and  C_12 
REMARK    4  A    between atoms: C_14  and  C_15 
REMARK    5  A    between atoms: C_17  and  C_18 
REMARK    6  A    between atoms: C_19  and  C_20 
REMARK    7  A    between atoms: C_21  and  C_23 
ROOT
HETATM    1  C   UNK N   1      36.468  14.429  11.754  0.00  0.00     0.001 C 
HETATM    2  C   UNK N   1      36.448  15.477  10.902  0.00  0.00     0.007 C 
ENDROOT
BRANCH   2   3
HETATM    3  C   UNK N   1      35.482  15.675   9.785  0.00  0.00    -0.057 C 
HETATM    4  C   UNK N   1      35.518  14.835   8.729  0.00  0.00     0.081 C 
HETATM    5  C   UNK N   1      34.508  16.816   9.816  0.00  0.00     0.048 C 
BRANCH   4   6
HETATM    6  C   UNK N   1      34.628  14.955   7.542  0.00  0.00     0.246 C 
HETATM    7  O   UNK N   1      33.524  14.427   7.549  0.00  0.00    -0.268 OA
HETATM    8  N   UNK N   1      35.028  15.681   6.464  0.00  0.00    -0.324 N 
HETATM    9  H   UNK N   1      35.968  15.974   6.424  0.00  0.00     0.169 HD
BRANCH   8  10
HETATM   10  C   UNK N   1      34.163  16.043   5.386  0.00  0.00     0.035 A 
HETATM   11  C   UNK N   1      33.414  17.235   5.423  0.00  0.00     0.032 A 
HETATM   12  C   UNK N   1      32.612  17.606   4.345  0.00  0.00     0.039 A 
HETATM   13  C   UNK N   1      32.550  16.795   3.214  0.00  0.00     0.065 A 
HETATM   14  C   UNK N   1      33.296  15.612   3.161  0.00  0.00     0.039 A 
HETATM   15  C   UNK N   1      34.108  15.241   4.241  0.00  0.00     0.032 A 
BRANCH  13  16
HETATM   16  O   UNK N   1      31.776  17.152   2.177  0.00  0.00    -0.361 OA
HETATM   17  H   UNK N   1      30.930  17.526   2.331  0.00  0.00     0.217 HD
ENDBRANCH  13  16
ENDBRANCH   8  10
ENDBRANCH   4   6
ENDBRANCH   2   3
BRANCH   1  18
HETATM   18  C   UNK N   1      35.429  13.373  11.776  0.00  0.00     0.007 C 
HETATM   19  C   UNK N   1      35.640  12.105  12.174  0.00  0.00    -0.062 C 
HETATM   20  C   UNK N   1      34.561  11.106  11.942  0.00  0.00     0.048 C 
BRANCH  19  21
HETATM   21  C   UNK N   1      36.955  11.629  12.660  0.00  0.00     0.007 C 
HETATM   22  C   UNK N   1      37.321  11.561  13.950  0.00  0.00     0.009 C 
BRANCH  22  23
HETATM   23  C   UNK N   1      36.403  11.608  15.131  0.00  0.00    -0.048 C 
HETATM   24  C   UNK N   1      35.878  10.293  15.748  0.00  0.00    -0.020 C 
HETATM   25  C   UNK N   1      34.948  10.506  16.945  0.00  0.00     0.014 C 
HETATM   26  C   UNK N   1      37.070   9.469  16.208  0.00  0.00     0.020 C 
HETATM   27  C   UNK N   1      35.090   9.452  14.770  0.00  0.00     0.020 C 
HETATM   28  C   UNK N   1      35.417  11.653  17.814  0.00  0.00     0.005 C 
HETATM   29  C   UNK N   1      35.317  12.913  16.973  0.00  0.00     0.034 C 
HETATM   30  C   UNK N   1      36.153  12.806  15.727  0.00  0.00    -0.077 C 
HETATM   31  C   UNK N   1      36.722  14.079  15.178  0.00  0.00     0.044 C 
ENDBRANCH  22  23
ENDBRANCH  19  21
ENDBRANCH   1  18
TORSDOF 7
ENDMDL
MODEL 2
REMARK VINA RESULT:      -7.5      2.470      2.986
REMARK  7 active torsions:
REMARK  status: ('A' for Active; 'I' for Inactive)
REMARK    1  A    between atoms: O_2  and  C_29 
REMARK       I    between atoms: N_3  and  C_23 
REMARK    2  A    between atoms: N_3  and  C_24 
REMARK    3  A    between atoms: C_7  and  C_12 
REMARK    4  A    between atoms: C_14  and  C_15 
REMARK    5  A    between atoms: C_17  and  C_18 
REMARK    6  A    between atoms: C_19  and  C_20 
REMARK    7  A    between atoms: C_21  and  C_23 
ROOT
HETATM    1  C   UNK N   1      36.628  13.854  11.264  0.00  0.00     0.001 C 
HETATM    2  C   UNK N   1      36.421  14.921  10.460  0.00  0.00     0.007 C 
ENDROOT
BRANCH   2   3
HETATM    3  C   UNK N   1      35.230  15.141   9.591  0.00  0.00    -0.057 C 
HETATM    4  C   UNK N   1      34.118  15.684  10.128  0.00  0.00     0.081 C 
HETATM    5  C   UNK N   1      35.255  14.728   8.149  0.00  0.00     0.048 C 
BRANCH   4   6
HETATM    6  C   UNK N   1      32.859  15.919   9.370  0.00  0.00     0.246 C 
HETATM    7  O   UNK N   1      32.041  15.016   9.247  0.00  0.00    -0.268 OA
HETATM    8  N   UNK N   1      32.601  17.146   8.844  0.00  0.00    -0.324 N 
HETATM    9  H   UNK N   1      33.330  17.809   8.833  0.00  0.00     0.169 HD
BRANCH   8  10
HETATM   10  C   UNK N   1      31.334  17.528   8.308  0.00  0.00     0.035 A 
HETATM   11  C   UNK N   1      30.935  17.121   7.020  0.00  0.00     0.032 A 
HETATM   12  C   UNK N   1      29.677  17.455   6.523  0.00  0.00     0.039 A 
HETATM   13  C   UNK N   1      28.796  18.196   7.308  0.00  0.00     0.065 A 
HETATM   14  C   UNK N   1      29.175  18.600   8.594  0.00  0.00     0.039 A 
HETATM   15  C   UNK N   1      30.438  18.259   9.096  0.00  0.00     0.032 A 
BRANCH  13  16
HETATM   16  O   UNK N   1      27.584  18.519   6.829  0.00  0.00    -0.361 OA
HETATM   17  H   UNK N   1      27.057  19.153   7.276  0.00  0.00     0.217 HD
ENDBRANCH  13  16
ENDBRANCH   8  10
ENDBRANCH   4   6
ENDBRANCH   2   3
BRANCH   1  18
HETATM   18  C   UNK N   1      35.616  12.796  11.494  0.00  0.00     0.007 C 
HETATM   19  C   UNK N   1      35.847  11.657  12.171  0.00  0.00    -0.062 C 
HETATM   20  C   UNK N   1      34.802  10.596  12.140  0.00  0.00     0.048 C 
BRANCH  19  21
HETATM   21  C   UNK N   1      37.158  11.344  12.784  0.00  0.00     0.007 C 
HETATM   22  C   UNK N   1      37.449  11.476  14.088  0.00  0.00     0.009 C 
BRANCH  22  23
HETATM   23  C   UNK N   1      36.461  11.617  15.203  0.00  0.00    -0.048 C 
HETATM   24  C   UNK N   1      35.980  10.364  15.966  0.00  0.00    -0.020 C 
HETATM   25  C   UNK N   1      34.969  10.670  17.073  0.00  0.00     0.014 C 
HETATM   26  C   UNK N   1      37.190   9.691  16.595  0.00  0.00     0.020 C 
HETATM   27  C   UNK N   1      35.304   9.349  15.073  0.00  0.00     0.020 C 
HETATM   28  C   UNK N   1      35.314  11.952  17.800  0.00  0.00     0.005 C 
HETATM   29  C   UNK N   1      35.189  13.079  16.791  0.00  0.00     0.034 C 
HETATM   30  C   UNK N   1      36.104  12.865  15.616  0.00  0.00    -0.077 C 
HETATM   31  C   UNK N   1      36.627  14.088  14.928  0.00  0.00     0.044 C 
ENDBRANCH  22  23
ENDBRANCH  19  21
ENDBRANCH   1  18
TORSDOF 7
ENDMDL
MODEL 3
REMARK VINA RESULT:      -7.0      7.967     12.033
REMARK  7 active torsions:
REMARK  status: ('A' for Active; 'I' for Inactive)
REMARK    1  A    between atoms: O_2  and  C_29 
REMARK       I    between atoms: N_3  and  C_23 
REMARK    2  A    between atoms: N_3  and  C_24 
REMARK    3  A    between atoms: C_7  and  C_12 
REMARK    4  A    between atoms: C_14  and  C_15 
REMARK    5  A    between atoms: C_17  and  C_18 
REMARK    6  A    between atoms: C_19  and  C_20 
REMARK    7  A    between atoms: C_21  and  C_23 
ROOT
HETATM    1  C   UNK N   1      26.928  15.414   3.789  0.00  0.00     0.001 C 
HETATM    2  C   UNK N   1      25.856  15.647   4.577  0.00  0.00     0.007 C 
ENDROOT
BRANCH   2   3
HETATM    3  C   UNK N   1      25.507  14.901   5.819  0.00  0.00    -0.057 C 
HETATM    4  C   UNK N   1      24.617  13.889   5.749  0.00  0.00     0.081 C 
HETATM    5  C   UNK N   1      26.108  15.295   7.136  0.00  0.00     0.048 C 
BRANCH   4   6
HETATM    6  C   UNK N   1      24.166  13.096   6.925  0.00  0.00     0.246 C 
HETATM    7  O   UNK N   1      24.337  11.884   6.948  0.00  0.00    -0.268 OA
HETATM    8  N   UNK N   1      23.596  13.723   7.988  0.00  0.00    -0.324 N 
HETATM    9  H   UNK N   1      23.342  14.669   7.888  0.00  0.00     0.169 HD
BRANCH   8  10
HETATM   10  C   UNK N   1      23.346  13.087   9.243  0.00  0.00     0.035 A 
HETATM   11  C   UNK N   1      24.405  12.656  10.064  0.00  0.00     0.032 A 
HETATM   12  C   UNK N   1      24.154  12.083  11.310  0.00  0.00     0.039 A 
HETATM   13  C   UNK N   1      22.841  11.938  11.755  0.00  0.00     0.065 A 
HETATM   14  C   UNK N   1      21.779  12.371  10.953  0.00  0.00     0.039 A 
HETATM   15  C   UNK N   1      22.032  12.953   9.703  0.00  0.00     0.032 A 
BRANCH  13  16
HETATM   16  O   UNK N   1      22.600  11.384  12.954  0.00  0.00    -0.361 OA
HETATM   17  H   UNK N   1      21.832  11.624  13.434  0.00  0.00     0.217 HD
ENDBRANCH  13  16
ENDBRANCH   8  10
ENDBRANCH   4   6
ENDBRANCH   2   3
BRANCH   1  18
HETATM   18  C   UNK N   1      27.998  14.448   4.130  0.00  0.00     0.007 C 
HETATM   19  C   UNK N   1      29.309  14.655   3.909  0.00  0.00    -0.062 C 
HETATM   20  C   UNK N   1      30.245  13.513   4.106  0.00  0.00     0.048 C 
BRANCH  19  21
HETATM   21  C   UNK N   1      29.831  15.903   3.308  0.00  0.00     0.007 C 
HETATM   22  C   UNK N   1      30.378  16.919   3.995  0.00  0.00     0.009 C 
BRANCH  22  23
HETATM   23  C   UNK N   1      30.882  16.861   5.403  0.00  0.00    -0.048 C 
HETATM   24  C   UNK N   1      32.369  16.544   5.674  0.00  0.00    -0.020 C 
HETATM   25  C   UNK N   1      32.729  16.516   7.161  0.00  0.00     0.014 C 
HETATM   26  C   UNK N   1      33.218  17.606   4.996  0.00  0.00     0.020 C 
HETATM   27  C   UNK N   1      32.797  15.199   5.131  0.00  0.00     0.020 C 
HETATM   28  C   UNK N   1      32.001  17.599   7.928  0.00  0.00     0.005 C 
HETATM   29  C   UNK N   1      30.520  17.278   7.847  0.00  0.00     0.034 C 
HETATM   30  C   UNK N   1      30.050  17.223   6.418  0.00  0.00    -0.077 C 
HETATM   31  C   UNK N   1      28.626  17.605   6.154  0.00  0.00     0.044 C 
ENDBRANCH  22  23
ENDBRANCH  19  21
ENDBRANCH   1  18
TORSDOF 7
ENDMDL
MODEL 4
REMARK VINA RESULT:      -6.9      2.160      4.222
REMARK  7 active torsions:
REMARK  status: ('A' for Active; 'I' for Inactive)
REMARK    1  A    between atoms: O_2  and  C_29 
REMARK       I    between atoms: N_3  and  C_23 
REMARK    2  A    between atoms: N_3  and  C_24 
REMARK    3  A    between atoms: C_7  and  C_12 
REMARK    4  A    between atoms: C_14  and  C_15 
REMARK    5  A    between atoms: C_17  and  C_18 
REMARK    6  A    between atoms: C_19  and  C_20 
REMARK    7  A    between atoms: C_21  and  C_23 
ROOT
HETATM    1  C   UNK N   1      36.424  13.408  15.713  0.00  0.00     0.001 C 
HETATM    2  C   UNK N   1      36.858  14.174  14.688  0.00  0.00     0.007 C 
ENDROOT
BRANCH   2   3
HETATM    3  C   UNK N   1      36.342  14.136  13.290  0.00  0.00    -0.057 C 
HETATM    4  C   UNK N   1      35.647  15.191  12.818  0.00  0.00     0.081 C 
HETATM    5  C   UNK N   1      36.560  12.923  12.433  0.00  0.00     0.048 C 
BRANCH   4   6
HETATM    6  C   UNK N   1      35.054  15.252  11.454  0.00  0.00     0.246 C 
HETATM    7  O   UNK N   1      33.929  14.811  11.255  0.00  0.00    -0.268 OA
HETATM    8  N   UNK N   1      35.747  15.830  10.437  0.00  0.00    -0.324 N 
HETATM    9  H   UNK N   1      36.696  16.046  10.587  0.00  0.00     0.169 HD
BRANCH   8  10
HETATM   10  C   UNK N   1      35.177  16.140   9.165  0.00  0.00     0.035 A 
HETATM   11  C   UNK N   1      34.579  17.391   8.921  0.00  0.00     0.032 A 
HETATM   12  C   UNK N   1      34.071  17.706   7.662  0.00  0.00     0.039 A 
HETATM   13  C   UNK N   1      34.158  16.778   6.627  0.00  0.00     0.065 A 
HETATM   14  C   UNK N   1      34.759  15.534   6.852  0.00  0.00     0.039 A 
HETATM   15  C   UNK N   1      35.275  15.219   8.117  0.00  0.00     0.032 A 
BRANCH  13  16
HETATM   16  O   UNK N   1      33.667  17.080   5.415  0.00  0.00    -0.361 OA
HETATM   17  H   UNK N   1      33.569  16.409   4.768  0.00  0.00     0.217 HD
ENDBRANCH  13  16
ENDBRANCH   8  10
ENDBRANCH   4   6
ENDBRANCH   2   3
BRANCH   1  18
HETATM   18  C   UNK N   1      35.262  12.494  15.615  0.00  0.00     0.007 C 
HETATM   19  C   UNK N   1      35.336  11.154  15.711  0.00  0.00    -0.062 C 
HETATM   20  C   UNK N   1      34.122  10.356  15.382  0.00  0.00     0.048 C 
BRANCH  19  21
HETATM   21  C   UNK N   1      36.612  10.440  15.948  0.00  0.00     0.007 C 
HETATM   22  C   UNK N   1      36.925   9.777  17.073  0.00  0.00     0.009 C 
BRANCH  22  23
HETATM   23  C   UNK N   1      35.966   9.335  18.133  0.00  0.00    -0.048 C 
HETATM   24  C   UNK N   1      35.735  10.220  19.377  0.00  0.00    -0.020 C 
HETATM   25  C   UNK N   1      34.730   9.632  20.370  0.00  0.00     0.014 C 
HETATM   26  C   UNK N   1      35.217  11.573  18.916  0.00  0.00     0.020 C 
HETATM   27  C   UNK N   1      36.997  10.461  20.176  0.00  0.00     0.020 C 
HETATM   28  C   UNK N   1      33.578   8.957  19.659  0.00  0.00     0.005 C 
HETATM   29  C   UNK N   1      34.159   7.778  18.899  0.00  0.00     0.034 C 
HETATM   30  C   UNK N   1      35.209   8.224  17.918  0.00  0.00    -0.077 C 
HETATM   31  C   UNK N   1      35.374   7.402  16.676  0.00  0.00     0.044 C 
ENDBRANCH  22  23
ENDBRANCH  19  21
ENDBRANCH   1  18
TORSDOF 7
ENDMDL
MODEL 5
REMARK VINA RESULT:      -6.9     16.894     21.795
REMARK  7 active torsions:
REMARK  status: ('A' for Active; 'I' for Inactive)
REMARK    1  A    between atoms: O_2  and  C_29 
REMARK       I    between atoms: N_3  and  C_23 
REMARK    2  A    between atoms: N_3  and  C_24 
REMARK    3  A    between atoms: C_7  and  C_12 
REMARK    4  A    between atoms: C_14  and  C_15 
REMARK    5  A    between atoms: C_17  and  C_18 
REMARK    6  A    between atoms: C_19  and  C_20 
REMARK    7  A    between atoms: C_21  and  C_23 
ROOT
HETATM    1  C   UNK N   1      27.377  23.967  -3.922  0.00  0.00     0.001 C 
HETATM    2  C   UNK N   1      28.345  24.088  -2.988  0.00  0.00     0.007 C 
ENDROOT
BRANCH   2   3
HETATM    3  C   UNK N   1      29.773  23.696  -3.155  0.00  0.00    -0.057 C 
HETATM    4  C   UNK N   1      30.125  22.406  -2.977  0.00  0.00     0.081 C 
HETATM    5  C   UNK N   1      30.812  24.729  -3.480  0.00  0.00     0.048 C 
BRANCH   4   6
HETATM    6  C   UNK N   1      31.522  21.903  -3.083  0.00  0.00     0.246 C 
HETATM    7  O   UNK N   1      32.190  21.734  -2.071  0.00  0.00    -0.268 OA
HETATM    8  N   UNK N   1      32.043  21.596  -4.301  0.00  0.00    -0.324 N 
HETATM    9  H   UNK N   1      31.542  21.872  -5.103  0.00  0.00     0.169 HD
BRANCH   8  10
HETATM   10  C   UNK N   1      33.275  20.897  -4.483  0.00  0.00     0.035 A 
HETATM   11  C   UNK N   1      34.495  21.591  -4.604  0.00  0.00     0.032 A 
HETATM   12  C   UNK N   1      35.699  20.901  -4.729  0.00  0.00     0.039 A 
HETATM   13  C   UNK N   1      35.703  19.508  -4.731  0.00  0.00     0.065 A 
HETATM   14  C   UNK N   1      34.500  18.805  -4.602  0.00  0.00     0.039 A 
HETATM   15  C   UNK N   1      33.289  19.499  -4.469  0.00  0.00     0.032 A 
BRANCH  13  16
HETATM   16  O   UNK N   1      36.863  18.843  -4.854  0.00  0.00    -0.361 OA
HETATM   17  H   UNK N   1      36.905  17.932  -4.642  0.00  0.00     0.217 HD
ENDBRANCH  13  16
ENDBRANCH   8  10
ENDBRANCH   4   6
ENDBRANCH   2   3
BRANCH   1  18
HETATM   18  C   UNK N   1      27.635  23.537  -5.316  0.00  0.00     0.007 C 
HETATM   19  C   UNK N   1      26.891  23.902  -6.375  0.00  0.00    -0.062 C 
HETATM   20  C   UNK N   1      27.141  23.225  -7.679  0.00  0.00     0.048 C 
BRANCH  19  21
HETATM   21  C   UNK N   1      25.723  24.804  -6.258  0.00  0.00     0.007 C 
HETATM   22  C   UNK N   1      25.719  26.106  -6.591  0.00  0.00     0.009 C 
BRANCH  22  23
HETATM   23  C   UNK N   1      26.733  26.801  -7.443  0.00  0.00    -0.048 C 
HETATM   24  C   UNK N   1      27.838  27.652  -6.780  0.00  0.00    -0.020 C 
HETATM   25  C   UNK N   1      28.796  28.302  -7.782  0.00  0.00     0.014 C 
HETATM   26  C   UNK N   1      28.648  26.755  -5.857  0.00  0.00     0.020 C 
HETATM   27  C   UNK N   1      27.292  28.791  -5.949  0.00  0.00     0.020 C 
HETATM   28  C   UNK N   1      29.101  27.374  -8.938  0.00  0.00     0.005 C 
HETATM   29  C   UNK N   1      27.797  27.154  -9.683  0.00  0.00     0.034 C 
HETATM   30  C   UNK N   1      26.746  26.562  -8.783  0.00  0.00    -0.077 C 
HETATM   31  C   UNK N   1      25.722  25.676  -9.423  0.00  0.00     0.044 C 
ENDBRANCH  22  23
ENDBRANCH  19  21
ENDBRANCH   1  18
TORSDOF 7
ENDMDL
MODEL 6
REMARK VINA RESULT:      -6.8      7.374     11.200
REMARK  7 active torsions:
REMARK  status: ('A' for Active; 'I' for Inactive)
REMARK    1  A    between atoms: O_2  and  C_29 
REMARK       I    between atoms: N_3  and  C_23 
REMARK    2  A    between atoms: N_3  and  C_24 
REMARK    3  A    between atoms: C_7  and  C_12 
REMARK    4  A    between atoms: C_14  and  C_15 
REMARK    5  A    between atoms: C_17  and  C_18 
REMARK    6  A    between atoms: C_19  and  C_20 
REMARK    7  A    between atoms: C_21  and  C_23 
ROOT
HETATM    1  C   UNK N   1      28.277  19.033   6.966  0.00  0.00     0.001 C 
HETATM    2  C   UNK N   1      27.587  19.983   6.297  0.00  0.00     0.007 C 
ENDROOT
BRANCH   2   3
HETATM    3  C   UNK N   1      26.639  19.744   5.172  0.00  0.00    -0.057 C 
HETATM    4  C   UNK N   1      25.552  18.973   5.382  0.00  0.00     0.081 C 
HETATM    5  C   UNK N   1      26.912  20.320   3.813  0.00  0.00     0.048 C 
BRANCH   4   6
HETATM    6  C   UNK N   1      24.557  18.636   4.329  0.00  0.00     0.246 C 
HETATM    7  O   UNK N   1      24.836  17.818   3.461  0.00  0.00    -0.268 OA
HETATM    8  N   UNK N   1      23.323  19.208   4.351  0.00  0.00    -0.324 N 
HETATM    9  H   UNK N   1      23.172  19.961   4.968  0.00  0.00     0.169 HD
BRANCH   8  10
HETATM   10  C   UNK N   1      22.235  18.780   3.531  0.00  0.00     0.035 A 
HETATM   11  C   UNK N   1      21.732  17.467   3.616  0.00  0.00     0.032 A 
HETATM   12  C   UNK N   1      20.637  17.072   2.849  0.00  0.00     0.039 A 
HETATM   13  C   UNK N   1      20.026  17.983   1.990  0.00  0.00     0.065 A 
HETATM   14  C   UNK N   1      20.510  19.294   1.903  0.00  0.00     0.039 A 
HETATM   15  C   UNK N   1      21.607  19.694   2.678  0.00  0.00     0.032 A 
BRANCH  13  16
HETATM   16  O   UNK N   1      18.973  17.602   1.251  0.00  0.00    -0.361 OA
HETATM   17  H   UNK N   1      18.826  16.693   1.079  0.00  0.00     0.217 HD
ENDBRANCH  13  16
ENDBRANCH   8  10
ENDBRANCH   4   6
ENDBRANCH   2   3
BRANCH   1  18
HETATM   18  C   UNK N   1      28.083  17.580   6.753  0.00  0.00     0.007 C 
HETATM   19  C   UNK N   1      28.882  16.809   5.993  0.00  0.00    -0.062 C 
HETATM   20  C   UNK N   1      28.445  15.416   5.701  0.00  0.00     0.048 C 
BRANCH  19  21
HETATM   21  C   UNK N   1      30.074  17.340   5.292  0.00  0.00     0.007 C 
HETATM   22  C   UNK N   1      31.343  17.178   5.700  0.00  0.00     0.009 C 
BRANCH  22  23
HETATM   23  C   UNK N   1      31.827  16.175   6.699  0.00  0.00    -0.048 C 
HETATM   24  C   UNK N   1      32.417  14.833   6.216  0.00  0.00    -0.020 C 
HETATM   25  C   UNK N   1      32.864  13.913   7.354  0.00  0.00     0.014 C 
HETATM   26  C   UNK N   1      33.622  15.126   5.336  0.00  0.00     0.020 C 
HETATM   27  C   UNK N   1      31.441  14.016   5.398  0.00  0.00     0.020 C 
HETATM   28  C   UNK N   1      33.505  14.695   8.480  0.00  0.00     0.005 C 
HETATM   29  C   UNK N   1      32.428  15.594   9.061  0.00  0.00     0.034 C 
HETATM   30  C   UNK N   1      31.865  16.519   8.016  0.00  0.00    -0.077 C 
HETATM   31  C   UNK N   1      31.365  17.851   8.484  0.00  0.00     0.044 C 
ENDBRANCH  22  23
ENDBRANCH  19  21
ENDBRANCH   1  18
TORSDOF 7
ENDMDL
MODEL 7
REMARK VINA RESULT:      -6.7      8.402     14.432
REMARK  7 active torsions:
REMARK  status: ('A' for Active; 'I' for Inactive)
REMARK    1  A    between atoms: O_2  and  C_29 
REMARK       I    between atoms: N_3  and  C_23 
REMARK    2  A    between atoms: N_3  and  C_24 
REMARK    3  A    between atoms: C_7  and  C_12 
REMARK    4  A    between atoms: C_14  and  C_15 
REMARK    5  A    between atoms: C_17  and  C_18 
REMARK    6  A    between atoms: C_19  and  C_20 
REMARK    7  A    between atoms: C_21  and  C_23 
ROOT
HETATM    1  C   UNK N   1      24.943  15.575   5.398  0.00  0.00     0.001 C 
HETATM    2  C   UNK N   1      25.973  15.190   6.184  0.00  0.00     0.007 C 
ENDROOT
BRANCH   2   3
HETATM    3  C   UNK N   1      27.200  15.988   6.466  0.00  0.00    -0.057 C 
HETATM    4  C   UNK N   1      28.246  15.905   5.618  0.00  0.00     0.081 C 
HETATM    5  C   UNK N   1      27.285  16.840   7.698  0.00  0.00     0.048 C 
BRANCH   4   6
HETATM    6  C   UNK N   1      29.533  16.626   5.815  0.00  0.00     0.246 C 
HETATM    7  O   UNK N   1      29.705  17.724   5.302  0.00  0.00    -0.268 OA
HETATM    8  N   UNK N   1      30.506  16.080   6.593  0.00  0.00    -0.324 N 
HETATM    9  H   UNK N   1      30.402  15.142   6.875  0.00  0.00     0.169 HD
BRANCH   8  10
HETATM   10  C   UNK N   1      31.668  16.789   7.025  0.00  0.00     0.035 A 
HETATM   11  C   UNK N   1      32.848  16.789   6.257  0.00  0.00     0.032 A 
HETATM   12  C   UNK N   1      33.961  17.526   6.659  0.00  0.00     0.039 A 
HETATM   13  C   UNK N   1      33.909  18.277   7.832  0.00  0.00     0.065 A 
HETATM   14  C   UNK N   1      32.739  18.294   8.600  0.00  0.00     0.039 A 
HETATM   15  C   UNK N   1      31.618  17.558   8.193  0.00  0.00     0.032 A 
BRANCH  13  16
HETATM   16  O   UNK N   1      34.981  18.985   8.220  0.00  0.00    -0.361 OA
HETATM   17  H   UNK N   1      35.172  19.084   9.132  0.00  0.00     0.217 HD
ENDBRANCH  13  16
ENDBRANCH   8  10
ENDBRANCH   4   6
ENDBRANCH   2   3
BRANCH   1  18
HETATM   18  C   UNK N   1      24.832  16.926   4.800  0.00  0.00     0.007 C 
HETATM   19  C   UNK N   1      23.718  17.680   4.826  0.00  0.00    -0.062 C 
HETATM   20  C   UNK N   1      23.689  18.921   4.003  0.00  0.00     0.048 C 
BRANCH  19  21
HETATM   21  C   UNK N   1      22.469  17.237   5.486  0.00  0.00     0.007 C 
HETATM   22  C   UNK N   1      21.299  17.028   4.859  0.00  0.00     0.009 C 
BRANCH  22  23
HETATM   23  C   UNK N   1      21.108  16.857   3.385  0.00  0.00    -0.048 C 
HETATM   24  C   UNK N   1      21.279  15.462   2.745  0.00  0.00    -0.020 C 
HETATM   25  C   UNK N   1      21.054  15.449   1.231  0.00  0.00     0.014 C 
HETATM   26  C   UNK N   1      20.279  14.513   3.386  0.00  0.00     0.020 C 
HETATM   27  C   UNK N   1      22.659  14.880   2.952  0.00  0.00     0.020 C 
HETATM   28  C   UNK N   1      19.918  16.365   0.832  0.00  0.00     0.005 C 
HETATM   29  C   UNK N   1      20.346  17.779   1.183  0.00  0.00     0.034 C 
HETATM   30  C   UNK N   1      20.651  17.909   2.651  0.00  0.00    -0.077 C 
HETATM   31  C   UNK N   1      20.409  19.246   3.281  0.00  0.00     0.044 C 
ENDBRANCH  22  23
ENDBRANCH  19  21
ENDBRANCH   1  18
TORSDOF 7
ENDMDL
MODEL 8
REMARK VINA RESULT:      -6.7      1.605      2.460
REMARK  7 active torsions:
REMARK  status: ('A' for Active; 'I' for Inactive)
REMARK    1  A    between atoms: O_2  and  C_29 
REMARK       I    between atoms: N_3  and  C_23 
REMARK    2  A    between atoms: N_3  and  C_24 
REMARK    3  A    between atoms: C_7  and  C_12 
REMARK    4  A    between atoms: C_14  and  C_15 
REMARK    5  A    between atoms: C_17  and  C_18 
REMARK    6  A    between atoms: C_19  and  C_20 
REMARK    7  A    between atoms: C_21  and  C_23 
ROOT
HETATM    1  C   UNK N   1      35.804  13.685  14.089  0.00  0.00     0.001 C 
HETATM    2  C   UNK N   1      36.103  14.623  13.163  0.00  0.00     0.007 C 
ENDROOT
BRANCH   2   3
HETATM    3  C   UNK N   1      35.801  14.537  11.706  0.00  0.00    -0.057 C 
HETATM    4  C   UNK N   1      34.737  15.206  11.216  0.00  0.00     0.081 C 
HETATM    5  C   UNK N   1      36.646  13.687  10.803  0.00  0.00     0.048 C 
BRANCH   4   6
HETATM    6  C   UNK N   1      34.317  15.168   9.788  0.00  0.00     0.246 C 
HETATM    7  O   UNK N   1      33.413  14.422   9.436  0.00  0.00    -0.268 OA
HETATM    8  N   UNK N   1      34.914  15.988   8.882  0.00  0.00    -0.324 N 
HETATM    9  H   UNK N   1      35.727  16.470   9.159  0.00  0.00     0.169 HD
BRANCH   8  10
HETATM   10  C   UNK N   1      34.429  16.189   7.554  0.00  0.00     0.035 A 
HETATM   11  C   UNK N   1      33.590  17.275   7.242  0.00  0.00     0.032 A 
HETATM   12  C   UNK N   1      33.162  17.494   5.934  0.00  0.00     0.039 A 
HETATM   13  C   UNK N   1      33.571  16.633   4.917  0.00  0.00     0.065 A 
HETATM   14  C   UNK N   1      34.413  15.554   5.211  0.00  0.00     0.039 A 
HETATM   15  C   UNK N   1      34.848  15.338   6.526  0.00  0.00     0.032 A 
BRANCH  13  16
HETATM   16  O   UNK N   1      33.157  16.843   3.658  0.00  0.00    -0.361 OA
HETATM   17  H   UNK N   1      33.739  16.683   2.941  0.00  0.00     0.217 HD
ENDBRANCH  13  16
ENDBRANCH   8  10
ENDBRANCH   4   6
ENDBRANCH   2   3
BRANCH   1  18
HETATM   18  C   UNK N   1      35.001  12.475  13.797  0.00  0.00     0.007 C 
HETATM   19  C   UNK N   1      35.463  11.215  13.890  0.00  0.00    -0.062 C 
HETATM   20  C   UNK N   1      34.612  10.112  13.363  0.00  0.00     0.048 C 
BRANCH  19  21
HETATM   21  C   UNK N   1      36.844  10.900  14.321  0.00  0.00     0.007 C 
HETATM   22  C   UNK N   1      37.178  10.364  15.507  0.00  0.00     0.009 C 
BRANCH  22  23
HETATM   23  C   UNK N   1      36.249   9.674  16.455  0.00  0.00    -0.048 C 
HETATM   24  C   UNK N   1      36.245   8.132  16.539  0.00  0.00    -0.020 C 
HETATM   25  C   UNK N   1      35.240   7.575  17.550  0.00  0.00     0.014 C 
HETATM   26  C   UNK N   1      37.636   7.668  16.941  0.00  0.00     0.020 C 
HETATM   27  C   UNK N   1      35.904   7.467  15.224  0.00  0.00     0.020 C 
HETATM   28  C   UNK N   1      35.174   8.432  18.795  0.00  0.00     0.005 C 
HETATM   29  C   UNK N   1      34.638   9.787  18.370  0.00  0.00     0.034 C 
HETATM   30  C   UNK N   1      35.519  10.421  17.327  0.00  0.00    -0.077 C 
HETATM   31  C   UNK N   1      35.576  11.918  17.302  0.00  0.00     0.044 C 
ENDBRANCH  22  23
ENDBRANCH  19  21
ENDBRANCH   1  18
TORSDOF 7
ENDMDL
MODEL 9
REMARK VINA RESULT:      -6.7     16.819     21.961
REMARK  7 active torsions:
REMARK  status: ('A' for Active; 'I' for Inactive)
REMARK    1  A    between atoms: O_2  and  C_29 
REMARK       I    between atoms: N_3  and  C_23 
REMARK    2  A    between atoms: N_3  and  C_24 
REMARK    3  A    between atoms: C_7  and  C_12 
REMARK    4  A    between atoms: C_14  and  C_15 
REMARK    5  A    between atoms: C_17  and  C_18 
REMARK    6  A    between atoms: C_19  and  C_20 
REMARK    7  A    between atoms: C_21  and  C_23 
ROOT
HETATM    1  C   UNK N   1      26.112  23.960  -7.230  0.00  0.00     0.001 C 
HETATM    2  C   UNK N   1      26.555  22.819  -6.657  0.00  0.00     0.007 C 
ENDROOT
BRANCH   2   3
HETATM    3  C   UNK N   1      27.940  22.276  -6.751  0.00  0.00    -0.057 C 
HETATM    4  C   UNK N   1      28.848  22.627  -5.817  0.00  0.00     0.081 C 
HETATM    5  C   UNK N   1      28.329  21.381  -7.891  0.00  0.00     0.048 C 
BRANCH   4   6
HETATM    6  C   UNK N   1      30.266  22.178  -5.827  0.00  0.00     0.246 C 
HETATM    7  O   UNK N   1      31.126  22.874  -6.352  0.00  0.00    -0.268 OA
HETATM    8  N   UNK N   1      30.614  21.010  -5.222  0.00  0.00    -0.324 N 
HETATM    9  H   UNK N   1      29.892  20.404  -4.934  0.00  0.00     0.169 HD
BRANCH   8  10
HETATM   10  C   UNK N   1      31.964  20.614  -4.979  0.00  0.00     0.035 A 
HETATM   11  C   UNK N   1      32.688  19.873  -5.934  0.00  0.00     0.032 A 
HETATM   12  C   UNK N   1      34.021  19.534  -5.712  0.00  0.00     0.039 A 
HETATM   13  C   UNK N   1      34.652  19.934  -4.536  0.00  0.00     0.065 A 
HETATM   14  C   UNK N   1      33.948  20.678  -3.583  0.00  0.00     0.039 A 
HETATM   15  C   UNK N   1      32.609  21.025  -3.808  0.00  0.00     0.032 A 
BRANCH  13  16
HETATM   16  O   UNK N   1      35.936  19.605  -4.322  0.00  0.00    -0.361 OA
HETATM   17  H   UNK N   1      36.406  19.991  -3.609  0.00  0.00     0.217 HD
ENDBRANCH  13  16
ENDBRANCH   8  10
ENDBRANCH   4   6
ENDBRANCH   2   3
BRANCH   1  18
HETATM   18  C   UNK N   1      26.996  24.914  -7.940  0.00  0.00     0.007 C 
HETATM   19  C   UNK N   1      26.907  26.252  -7.839  0.00  0.00    -0.062 C 
HETATM   20  C   UNK N   1      27.719  27.084  -8.770  0.00  0.00     0.048 C 
BRANCH  19  21
HETATM   21  C   UNK N   1      25.909  26.924  -6.975  0.00  0.00     0.007 C 
HETATM   22  C   UNK N   1      26.157  27.413  -5.749  0.00  0.00     0.009 C 
BRANCH  22  23
HETATM   23  C   UNK N   1      27.507  27.693  -5.167  0.00  0.00    -0.048 C 
HETATM   24  C   UNK N   1      28.132  29.097  -5.318  0.00  0.00    -0.020 C 
HETATM   25  C   UNK N   1      29.514  29.226  -4.675  0.00  0.00     0.014 C 
HETATM   26  C   UNK N   1      27.204  30.109  -4.665  0.00  0.00     0.020 C 
HETATM   27  C   UNK N   1      28.319  29.512  -6.760  0.00  0.00     0.020 C 
HETATM   28  C   UNK N   1      29.591  28.465  -3.369  0.00  0.00     0.005 C 
HETATM   29  C   UNK N   1      29.416  26.995  -3.704  0.00  0.00     0.034 C 
HETATM   30  C   UNK N   1      28.104  26.744  -4.396  0.00  0.00    -0.077 C 
HETATM   31  C   UNK N   1      27.467  25.405  -4.183  0.00  0.00     0.044 C 
ENDBRANCH  22  23
ENDBRANCH  19  21
ENDBRANCH   1  18
TORSDOF 7
ENDMDL
