MODEL 1
REMARK VINA RESULT:      -7.9      0.000      0.000
REMARK  21 active torsions:
REMARK  status: ('A' for Active; 'I' for Inactive)
REMARK    1  A    between atoms: C_2  and  C_3 
REMARK    2  A    between atoms: C_3  and  C_4 
REMARK    3  A    between atoms: C_4  and  C_5 
REMARK    4  A    between atoms: C_5  and  C_6 
REMARK    5  A    between atoms: C_5  and  N_29 
REMARK       I    between atoms: C_6  and  N_8 
REMARK    6  A    between atoms: C_9  and  N_8 
REMARK    7  A    between atoms: C_9  and  C_10 
REMARK    8  A    between atoms: C_9  and  C_18 
REMARK    9  A    between atoms: C_10  and  C_11 
REMARK   10  A    between atoms: C_11  and  C_12 
REMARK   11  A    between atoms: C_12  and  N_13 
REMARK       I    between atoms: N_13  and  C_14 
REMARK       I    between atoms: C_14  and  N_17 
REMARK       I    between atoms: C_18  and  N_20 
REMARK   12  A    between atoms: N_20  and  C_21 
REMARK   13  A    between atoms: C_21  and  C_22 
REMARK       I    between atoms: N_29  and  C_30 
REMARK   14  A    between atoms: C_30  and  C_32 
REMARK   15  A    between atoms: C_32  and  C_33 
REMARK   16  A    between atoms: C_32  and  N_40 
REMARK   17  A    between atoms: C_33  and  C_34 
REMARK       I    between atoms: N_40  and  C_41 
REMARK   18  A    between atoms: C_41  and  C_43 
REMARK   19  A    between atoms: C_43  and  C_44 
REMARK   20  A    between atoms: C_43  and  N_51 
REMARK   21  A    between atoms: C_44  and  C_45 
ROOT
HETATM    1  C   UNK N   1      25.665  15.350   5.792  0.00  0.00     0.176 C 
ENDROOT
BRANCH   1   2
HETATM    2  C   UNK N   1      26.207  14.212   4.927  0.00  0.00     0.035 C 
BRANCH   2   3
HETATM    3  C   UNK N   1      26.483  14.651   3.501  0.00  0.00     0.002 C 
BRANCH   3   4
HETATM    4  C   UNK N   1      27.791  14.043   3.039  0.00  0.00    -0.004 C 
HETATM    5  C   UNK N   1      28.427  14.948   2.009  0.00  0.00     0.005 C 
ENDBRANCH   3   4
ENDBRANCH   2   3
ENDBRANCH   1   2
BRANCH   1   6
HETATM    6  C   UNK N   1      24.194  15.127   5.923  0.00  0.00     0.241 C 
HETATM    7  O   UNK N   1      23.724  14.050   5.583  0.00  0.00    -0.271 OA
HETATM    8  N   UNK N   1      23.393  16.128   6.373  0.00  0.00    -0.346 N 
HETATM    9  H   UNK N   1      23.827  16.946   6.706  0.00  0.00     0.163 HD
BRANCH   8  10
HETATM   10  C   UNK N   1      21.945  16.076   6.399  0.00  0.00     0.176 C 
BRANCH  10  11
HETATM   11  C   UNK N   1      21.307  17.422   6.043  0.00  0.00     0.036 C 
BRANCH  11  12
HETATM   12  C   UNK N   1      22.217  18.302   5.201  0.00  0.00     0.023 C 
BRANCH  12  13
HETATM   13  C   UNK N   1      21.975  18.046   3.717  0.00  0.00     0.138 C 
BRANCH  13  14
HETATM   14  N   UNK N   1      20.814  18.756   3.234  0.00  0.00    -0.227 N 
HETATM   15  C   UNK N   1      19.681  18.083   2.708  0.00  0.00     0.665 C 
HETATM   16  N   UNK N   1      18.651  18.758   2.352  0.00  0.00    -0.235 N 
HETATM   17  N   UNK N   1      19.660  16.674   2.609  0.00  0.00    -0.235 N 
HETATM   18  H   UNK N   1      18.658  19.597   1.837  0.00  0.00     0.174 HD
ATOM     19  HN  UNK N   1      17.740  18.392   2.629  1.00  0.00     0.174 HD
HETATM   20  H   UNK N   1      19.316  15.850   2.194  0.00  0.00     0.174 HD
HETATM   21  H   UNK N   1      20.307  16.365   3.284  0.00  0.00     0.174 HD
HETATM   22  H   UNK N   1      20.808  19.740   3.271  0.00  0.00     0.177 HD
ENDBRANCH  13  14
ENDBRANCH  12  13
ENDBRANCH  11  12
ENDBRANCH  10  11
BRANCH  10  23
HETATM   23  C   UNK N   1      21.470  15.565   7.721  0.00  0.00     0.240 C 
HETATM   24  O   UNK N   1      21.029  16.360   8.538  0.00  0.00    -0.271 OA
HETATM   25  N   UNK N   1      21.566  14.242   8.021  0.00  0.00    -0.355 N 
HETATM   26  H   UNK N   1      21.876  13.619   7.324  0.00  0.00     0.162 HD
BRANCH  25  27
HETATM   27  C   UNK N   1      21.229  13.717   9.324  0.00  0.00     0.161 C 
BRANCH  27  28
HETATM   28  C   UNK N   1      22.450  13.120   9.942  0.00  0.00    -0.038 A 
HETATM   29  C   UNK N   1      22.342  12.408  11.137  0.00  0.00     0.025 A 
HETATM   30  C   UNK N   1      23.500  11.942  11.760  0.00  0.00     0.088 A 
HETATM   31  N   UNK N   1      24.720  12.189  11.209  0.00  0.00    -0.375 N 
HETATM   32  C   UNK N   1      24.845  12.877  10.042  0.00  0.00     0.088 A 
ATOM     33  HN  UNK N   1      25.557  11.850  11.681  1.00  0.00     0.164 HD
HETATM   34  C   UNK N   1      23.710  13.359   9.388  0.00  0.00     0.025 A 
ENDBRANCH  27  28
ENDBRANCH  25  27
ENDBRANCH  10  23
ENDBRANCH   8  10
ENDBRANCH   1   6
BRANCH   1  35
HETATM   35  N   UNK N   1      25.952  16.625   5.163  0.00  0.00    -0.346 N 
HETATM   36  C   UNK N   1      27.080  17.380   5.291  0.00  0.00     0.241 C 
HETATM   37  O   UNK N   1      27.207  18.339   4.544  0.00  0.00    -0.271 OA
HETATM   38  H   UNK N   1      25.249  16.989   4.576  0.00  0.00     0.163 HD
BRANCH  36  39
HETATM   39  C   UNK N   1      28.212  17.109   6.278  0.00  0.00     0.180 C 
BRANCH  39  40
HETATM   40  C   UNK N   1      29.097  15.885   5.966  0.00  0.00     0.073 C 
BRANCH  40  41
HETATM   41  C   UNK N   1      30.317  16.188   5.142  0.00  0.00    -0.056 A 
HETATM   42  C   UNK N   1      30.716  17.511   4.900  0.00  0.00     0.007 A 
HETATM   43  C   UNK N   1      31.821  17.773   4.087  0.00  0.00     0.001 A 
HETATM   44  C   UNK N   1      32.539  16.716   3.525  0.00  0.00     0.000 A 
HETATM   45  C   UNK N   1      32.154  15.396   3.776  0.00  0.00     0.001 A 
HETATM   46  C   UNK N   1      31.041  15.134   4.578  0.00  0.00     0.007 A 
ENDBRANCH  40  41
ENDBRANCH  39  40
BRANCH  39  47
HETATM   47  N   UNK N   1      27.665  17.047   7.622  0.00  0.00    -0.346 N 
HETATM   48  C   UNK N   1      28.350  17.304   8.768  0.00  0.00     0.240 C 
HETATM   49  O   UNK N   1      27.769  17.204   9.835  0.00  0.00    -0.271 OA
HETATM   50  H   UNK N   1      26.717  16.796   7.711  0.00  0.00     0.163 HD
BRANCH  48  51
HETATM   51  C   UNK N   1      29.797  17.726   8.779  0.00  0.00     0.171 C 
BRANCH  51  52
HETATM   52  C   UNK N   1      30.725  16.583   9.166  0.00  0.00     0.072 C 
BRANCH  52  53
HETATM   53  C   UNK N   1      31.984  16.619   8.368  0.00  0.00    -0.056 A 
HETATM   54  C   UNK N   1      32.570  15.424   7.927  0.00  0.00     0.007 A 
HETATM   55  C   UNK N   1      33.738  15.459   7.160  0.00  0.00     0.001 A 
HETATM   56  C   UNK N   1      34.321  16.686   6.831  0.00  0.00     0.000 A 
HETATM   57  C   UNK N   1      33.736  17.879   7.269  0.00  0.00     0.001 A 
HETATM   58  C   UNK N   1      32.567  17.846   8.036  0.00  0.00     0.007 A 
ENDBRANCH  52  53
ENDBRANCH  51  52
BRANCH  51  59
HETATM   59  N   UNK N   1      30.010  18.862   9.655  0.00  0.00    -0.418 N 
HETATM   60  H   UNK N   1      30.749  19.327  10.183  0.00  0.00     0.150 HD
HETATM   61  H   UNK N   1      29.130  19.362   9.787  0.00  0.00     0.150 HD
ENDBRANCH  51  59
ENDBRANCH  48  51
ENDBRANCH  39  47
ENDBRANCH  36  39
ENDBRANCH   1  35
TORSDOF 21
ENDMDL
MODEL 2
REMARK VINA RESULT:      -7.7      1.400      5.269
REMARK  21 active torsions:
REMARK  status: ('A' for Active; 'I' for Inactive)
REMARK    1  A    between atoms: C_2  and  C_3 
REMARK    2  A    between atoms: C_3  and  C_4 
REMARK    3  A    between atoms: C_4  and  C_5 
REMARK    4  A    between atoms: C_5  and  C_6 
REMARK    5  A    between atoms: C_5  and  N_29 
REMARK       I    between atoms: C_6  and  N_8 
REMARK    6  A    between atoms: C_9  and  N_8 
REMARK    7  A    between atoms: C_9  and  C_10 
REMARK    8  A    between atoms: C_9  and  C_18 
REMARK    9  A    between atoms: C_10  and  C_11 
REMARK   10  A    between atoms: C_11  and  C_12 
REMARK   11  A    between atoms: C_12  and  N_13 
REMARK       I    between atoms: N_13  and  C_14 
REMARK       I    between atoms: C_14  and  N_17 
REMARK       I    between atoms: C_18  and  N_20 
REMARK   12  A    between atoms: N_20  and  C_21 
REMARK   13  A    between atoms: C_21  and  C_22 
REMARK       I    between atoms: N_29  and  C_30 
REMARK   14  A    between atoms: C_30  and  C_32 
REMARK   15  A    between atoms: C_32  and  C_33 
REMARK   16  A    between atoms: C_32  and  N_40 
REMARK   17  A    between atoms: C_33  and  C_34 
REMARK       I    between atoms: N_40  and  C_41 
REMARK   18  A    between atoms: C_41  and  C_43 
REMARK   19  A    between atoms: C_43  and  C_44 
REMARK   20  A    between atoms: C_43  and  N_51 
REMARK   21  A    between atoms: C_44  and  C_45 
ROOT
HETATM    1  C   UNK N   1      26.675  15.863   4.445  0.00  0.00     0.176 C 
ENDROOT
BRANCH   1   2
HETATM    2  C   UNK N   1      26.016  15.388   3.150  0.00  0.00     0.035 C 
BRANCH   2   3
HETATM    3  C   UNK N   1      26.743  14.211   2.529  0.00  0.00     0.002 C 
BRANCH   3   4
HETATM    4  C   UNK N   1      28.237  14.444   2.625  0.00  0.00    -0.004 C 
HETATM    5  C   UNK N   1      28.942  13.609   1.580  0.00  0.00     0.005 C 
ENDBRANCH   3   4
ENDBRANCH   2   3
ENDBRANCH   1   2
BRANCH   1   6
HETATM    6  C   UNK N   1      25.687  15.631   5.540  0.00  0.00     0.241 C 
HETATM    7  O   UNK N   1      26.059  15.086   6.570  0.00  0.00    -0.271 OA
HETATM    8  N   UNK N   1      24.387  15.987   5.369  0.00  0.00    -0.346 N 
HETATM    9  H   UNK N   1      24.154  16.491   4.557  0.00  0.00     0.163 HD
BRANCH   8  10
HETATM   10  C   UNK N   1      23.318  15.677   6.297  0.00  0.00     0.176 C 
BRANCH  10  11
HETATM   11  C   UNK N   1      22.758  14.266   6.092  0.00  0.00     0.036 C 
BRANCH  11  12
HETATM   12  C   UNK N   1      22.609  13.495   7.393  0.00  0.00     0.023 C 
BRANCH  12  13
HETATM   13  C   UNK N   1      23.849  12.646   7.649  0.00  0.00     0.138 C 
BRANCH  13  14
HETATM   14  N   UNK N   1      24.768  13.299   8.553  0.00  0.00    -0.227 N 
HETATM   15  C   UNK N   1      24.838  12.966   9.931  0.00  0.00     0.665 C 
HETATM   16  N   UNK N   1      25.714  13.530  10.676  0.00  0.00    -0.235 N 
HETATM   17  N   UNK N   1      23.979  11.989  10.481  0.00  0.00    -0.235 N 
HETATM   18  H   UNK N   1      25.944  14.487  10.677  0.00  0.00     0.174 HD
ATOM     19  HN  UNK N   1      26.222  12.931  11.327  1.00  0.00     0.174 HD
HETATM   20  H   UNK N   1      23.511  11.598  11.255  0.00  0.00     0.174 HD
HETATM   21  H   UNK N   1      23.720  11.422   9.718  0.00  0.00     0.174 HD
HETATM   22  H   UNK N   1      25.364  13.999   8.202  0.00  0.00     0.177 HD
ENDBRANCH  13  14
ENDBRANCH  12  13
ENDBRANCH  11  12
ENDBRANCH  10  11
BRANCH  10  23
HETATM   23  C   UNK N   1      22.249  16.719   6.221  0.00  0.00     0.240 C 
HETATM   24  O   UNK N   1      21.287  16.634   6.971  0.00  0.00    -0.271 OA
HETATM   25  N   UNK N   1      22.330  17.720   5.304  0.00  0.00    -0.355 N 
HETATM   26  H   UNK N   1      23.140  17.792   4.751  0.00  0.00     0.162 HD
BRANCH  25  27
HETATM   27  C   UNK N   1      21.269  18.682   5.114  0.00  0.00     0.161 C 
BRANCH  27  28
HETATM   28  C   UNK N   1      21.003  18.835   3.653  0.00  0.00    -0.038 A 
HETATM   29  C   UNK N   1      21.099  20.095   3.061  0.00  0.00     0.025 A 
HETATM   30  C   UNK N   1      20.749  20.246   1.718  0.00  0.00     0.088 A 
HETATM   31  N   UNK N   1      20.312  19.175   1.001  0.00  0.00    -0.375 N 
HETATM   32  C   UNK N   1      20.216  17.938   1.559  0.00  0.00     0.088 A 
ATOM     33  HN  UNK N   1      20.052  19.303   0.024  1.00  0.00     0.164 HD
HETATM   34  C   UNK N   1      20.558  17.746   2.899  0.00  0.00     0.025 A 
ENDBRANCH  27  28
ENDBRANCH  25  27
ENDBRANCH  10  23
ENDBRANCH   8  10
ENDBRANCH   1   6
BRANCH   1  35
HETATM   35  N   UNK N   1      27.020  17.267   4.334  0.00  0.00    -0.346 N 
HETATM   36  C   UNK N   1      28.017  17.932   4.985  0.00  0.00     0.241 C 
HETATM   37  O   UNK N   1      28.264  19.075   4.628  0.00  0.00    -0.271 OA
HETATM   38  H   UNK N   1      26.470  17.804   3.717  0.00  0.00     0.163 HD
BRANCH  36  39
HETATM   39  C   UNK N   1      28.869  17.355   6.113  0.00  0.00     0.180 C 
BRANCH  39  40
HETATM   40  C   UNK N   1      29.604  16.038   5.792  0.00  0.00     0.073 C 
BRANCH  40  41
HETATM   41  C   UNK N   1      30.825  16.198   4.930  0.00  0.00    -0.056 A 
HETATM   42  C   UNK N   1      31.364  17.466   4.667  0.00  0.00     0.007 A 
HETATM   43  C   UNK N   1      32.468  17.598   3.820  0.00  0.00     0.001 A 
HETATM   44  C   UNK N   1      33.043  16.464   3.244  0.00  0.00     0.000 A 
HETATM   45  C   UNK N   1      32.519  15.198   3.515  0.00  0.00     0.001 A 
HETATM   46  C   UNK N   1      31.408  15.066   4.352  0.00  0.00     0.007 A 
ENDBRANCH  40  41
ENDBRANCH  39  40
BRANCH  39  47
HETATM   47  N   UNK N   1      28.053  17.236   7.309  0.00  0.00    -0.346 N 
HETATM   48  C   UNK N   1      28.483  17.442   8.583  0.00  0.00     0.240 C 
HETATM   49  O   UNK N   1      27.693  17.297   9.500  0.00  0.00    -0.271 OA
HETATM   50  H   UNK N   1      27.110  16.983   7.189  0.00  0.00     0.163 HD
BRANCH  48  51
HETATM   51  C   UNK N   1      29.893  17.862   8.914  0.00  0.00     0.171 C 
BRANCH  51  52
HETATM   52  C   UNK N   1      30.782  16.673   9.248  0.00  0.00     0.072 C 
BRANCH  52  53
HETATM   53  C   UNK N   1      32.036  16.695   8.442  0.00  0.00    -0.056 A 
HETATM   54  C   UNK N   1      32.599  15.495   7.986  0.00  0.00     0.007 A 
HETATM   55  C   UNK N   1      33.762  15.518   7.212  0.00  0.00     0.001 A 
HETATM   56  C   UNK N   1      34.364  16.738   6.890  0.00  0.00     0.000 A 
HETATM   57  C   UNK N   1      33.802  17.936   7.343  0.00  0.00     0.001 A 
HETATM   58  C   UNK N   1      32.637  17.915   8.117  0.00  0.00     0.007 A 
ENDBRANCH  52  53
ENDBRANCH  51  52
BRANCH  51  59
HETATM   59  N   UNK N   1      29.918  18.825   9.997  0.00  0.00    -0.418 N 
HETATM   60  H   UNK N   1      29.676  18.912  10.984  0.00  0.00     0.150 HD
HETATM   61  H   UNK N   1      30.305  19.708   9.661  0.00  0.00     0.150 HD
ENDBRANCH  51  59
ENDBRANCH  48  51
ENDBRANCH  39  47
ENDBRANCH  36  39
ENDBRANCH   1  35
TORSDOF 21
ENDMDL
MODEL 3
REMARK VINA RESULT:      -7.5      2.091      4.819
REMARK  21 active torsions:
REMARK  status: ('A' for Active; 'I' for Inactive)
REMARK    1  A    between atoms: C_2  and  C_3 
REMARK    2  A    between atoms: C_3  and  C_4 
REMARK    3  A    between atoms: C_4  and  C_5 
REMARK    4  A    between atoms: C_5  and  C_6 
REMARK    5  A    between atoms: C_5  and  N_29 
REMARK       I    between atoms: C_6  and  N_8 
REMARK    6  A    between atoms: C_9  and  N_8 
REMARK    7  A    between atoms: C_9  and  C_10 
REMARK    8  A    between atoms: C_9  and  C_18 
REMARK    9  A    between atoms: C_10  and  C_11 
REMARK   10  A    between atoms: C_11  and  C_12 
REMARK   11  A    between atoms: C_12  and  N_13 
REMARK       I    between atoms: N_13  and  C_14 
REMARK       I    between atoms: C_14  and  N_17 
REMARK       I    between atoms: C_18  and  N_20 
REMARK   12  A    between atoms: N_20  and  C_21 
REMARK   13  A    between atoms: C_21  and  C_22 
REMARK       I    between atoms: N_29  and  C_30 
REMARK   14  A    between atoms: C_30  and  C_32 
REMARK   15  A    between atoms: C_32  and  C_33 
REMARK   16  A    between atoms: C_32  and  N_40 
REMARK   17  A    between atoms: C_33  and  C_34 
REMARK       I    between atoms: N_40  and  C_41 
REMARK   18  A    between atoms: C_41  and  C_43 
REMARK   19  A    between atoms: C_43  and  C_44 
REMARK   20  A    between atoms: C_43  and  N_51 
REMARK   21  A    between atoms: C_44  and  C_45 
ROOT
HETATM    1  C   UNK N   1      25.832  16.714   4.737  0.00  0.00     0.176 C 
ENDROOT
BRANCH   1   2
HETATM    2  C   UNK N   1      25.827  16.011   3.380  0.00  0.00     0.035 C 
BRANCH   2   3
HETATM    3  C   UNK N   1      26.422  14.618   3.448  0.00  0.00     0.002 C 
BRANCH   3   4
HETATM    4  C   UNK N   1      27.056  14.284   2.113  0.00  0.00    -0.004 C 
HETATM    5  C   UNK N   1      28.389  14.988   2.002  0.00  0.00     0.005 C 
ENDBRANCH   3   4
ENDBRANCH   2   3
ENDBRANCH   1   2
BRANCH   1   6
HETATM    6  C   UNK N   1      24.405  16.837   5.163  0.00  0.00     0.241 C 
HETATM    7  O   UNK N   1      23.814  17.888   4.963  0.00  0.00    -0.271 OA
HETATM    8  N   UNK N   1      23.796  15.804   5.802  0.00  0.00    -0.346 N 
HETATM    9  H   UNK N   1      24.288  14.955   5.870  0.00  0.00     0.163 HD
BRANCH   8  10
HETATM   10  C   UNK N   1      22.473  15.864   6.390  0.00  0.00     0.176 C 
BRANCH  10  11
HETATM   11  C   UNK N   1      22.288  14.842   7.515  0.00  0.00     0.036 C 
BRANCH  11  12
HETATM   12  C   UNK N   1      20.851  14.757   8.004  0.00  0.00     0.023 C 
BRANCH  12  13
HETATM   13  C   UNK N   1      20.537  15.927   8.930  0.00  0.00     0.138 C 
BRANCH  13  14
HETATM   14  N   UNK N   1      19.118  16.183   9.007  0.00  0.00    -0.227 N 
HETATM   15  C   UNK N   1      18.593  17.494   9.144  0.00  0.00     0.665 C 
HETATM   16  N   UNK N   1      17.324  17.673   9.144  0.00  0.00    -0.235 N 
HETATM   17  N   UNK N   1      19.455  18.609   9.242  0.00  0.00    -0.235 N 
HETATM   18  H   UNK N   1      16.663  17.127   9.626  0.00  0.00     0.174 HD
ATOM     19  HN  UNK N   1      16.967  18.451   8.590  1.00  0.00     0.174 HD
HETATM   20  H   UNK N   1      19.627  19.536   9.529  0.00  0.00     0.174 HD
HETATM   21  H   UNK N   1      20.293  18.319   8.814  0.00  0.00     0.174 HD
HETATM   22  H   UNK N   1      18.494  15.423   8.963  0.00  0.00     0.177 HD
ENDBRANCH  13  14
ENDBRANCH  12  13
ENDBRANCH  11  12
ENDBRANCH  10  11
BRANCH  10  23
HETATM   23  C   UNK N   1      21.429  15.723   5.329  0.00  0.00     0.240 C 
HETATM   24  O   UNK N   1      21.401  14.700   4.660  0.00  0.00    -0.271 OA
HETATM   25  N   UNK N   1      20.553  16.735   5.088  0.00  0.00    -0.355 N 
HETATM   26  H   UNK N   1      20.567  17.524   5.677  0.00  0.00     0.162 HD
BRANCH  25  27
HETATM   27  C   UNK N   1      19.603  16.694   4.000  0.00  0.00     0.161 C 
BRANCH  27  28
HETATM   28  C   UNK N   1      20.021  17.668   2.949  0.00  0.00    -0.038 A 
HETATM   29  C   UNK N   1      20.351  18.974   3.309  0.00  0.00     0.025 A 
HETATM   30  C   UNK N   1      20.641  19.905   2.310  0.00  0.00     0.088 A 
HETATM   31  N   UNK N   1      20.592  19.539   1.000  0.00  0.00    -0.375 N 
HETATM   32  C   UNK N   1      20.277  18.269   0.629  0.00  0.00     0.088 A 
ATOM     33  HN  UNK N   1      20.798  20.232   0.281  1.00  0.00     0.164 HD
HETATM   34  C   UNK N   1      19.982  17.309   1.599  0.00  0.00     0.025 A 
ENDBRANCH  27  28
ENDBRANCH  25  27
ENDBRANCH  10  23
ENDBRANCH   8  10
ENDBRANCH   1   6
BRANCH   1  35
HETATM   35  N   UNK N   1      26.459  18.016   4.614  0.00  0.00    -0.346 N 
HETATM   36  C   UNK N   1      27.651  18.417   5.141  0.00  0.00     0.241 C 
HETATM   37  O   UNK N   1      28.094  19.498   4.780  0.00  0.00    -0.271 OA
HETATM   38  H   UNK N   1      25.966  18.689   4.091  0.00  0.00     0.163 HD
BRANCH  36  39
HETATM   39  C   UNK N   1      28.492  17.613   6.128  0.00  0.00     0.180 C 
BRANCH  39  40
HETATM   40  C   UNK N   1      29.035  16.267   5.607  0.00  0.00     0.073 C 
BRANCH  40  41
HETATM   41  C   UNK N   1      30.379  16.352   4.937  0.00  0.00    -0.056 A 
HETATM   42  C   UNK N   1      31.004  17.589   4.725  0.00  0.00     0.007 A 
HETATM   43  C   UNK N   1      32.227  17.652   4.053  0.00  0.00     0.001 A 
HETATM   44  C   UNK N   1      32.835  16.479   3.603  0.00  0.00     0.000 A 
HETATM   45  C   UNK N   1      32.224  15.242   3.826  0.00  0.00     0.001 A 
HETATM   46  C   UNK N   1      30.995  15.180   4.487  0.00  0.00     0.007 A 
ENDBRANCH  40  41
ENDBRANCH  39  40
BRANCH  39  47
HETATM   47  N   UNK N   1      27.744  17.447   7.363  0.00  0.00    -0.346 N 
HETATM   48  C   UNK N   1      28.259  17.539   8.618  0.00  0.00     0.240 C 
HETATM   49  O   UNK N   1      27.518  17.367   9.571  0.00  0.00    -0.271 OA
HETATM   50  H   UNK N   1      26.783  17.249   7.284  0.00  0.00     0.163 HD
BRANCH  48  51
HETATM   51  C   UNK N   1      29.706  17.865   8.887  0.00  0.00     0.171 C 
BRANCH  51  52
HETATM   52  C   UNK N   1      30.547  16.613   9.088  0.00  0.00     0.072 C 
BRANCH  52  53
HETATM   53  C   UNK N   1      31.839  16.708   8.350  0.00  0.00    -0.056 A 
HETATM   54  C   UNK N   1      32.444  17.956   8.148  0.00  0.00     0.007 A 
HETATM   55  C   UNK N   1      33.665  18.042   7.475  0.00  0.00     0.001 A 
HETATM   56  C   UNK N   1      34.287  16.882   7.005  0.00  0.00     0.000 A 
HETATM   57  C   UNK N   1      33.686  15.635   7.207  0.00  0.00     0.001 A 
HETATM   58  C   UNK N   1      32.463  15.547   7.881  0.00  0.00     0.007 A 
ENDBRANCH  52  53
ENDBRANCH  51  52
BRANCH  51  59
HETATM   59  N   UNK N   1      29.846  18.750  10.027  0.00  0.00    -0.418 N 
HETATM   60  H   UNK N   1      30.114  18.737  11.011  0.00  0.00     0.150 HD
HETATM   61  H   UNK N   1      29.594  19.701   9.755  0.00  0.00     0.150 HD
ENDBRANCH  51  59
ENDBRANCH  48  51
ENDBRANCH  39  47
ENDBRANCH  36  39
ENDBRANCH   1  35
TORSDOF 21
ENDMDL
MODEL 4
REMARK VINA RESULT:      -7.4      3.157      9.107
REMARK  21 active torsions:
REMARK  status: ('A' for Active; 'I' for Inactive)
REMARK    1  A    between atoms: C_2  and  C_3 
REMARK    2  A    between atoms: C_3  and  C_4 
REMARK    3  A    between atoms: C_4  and  C_5 
REMARK    4  A    between atoms: C_5  and  C_6 
REMARK    5  A    between atoms: C_5  and  N_29 
REMARK       I    between atoms: C_6  and  N_8 
REMARK    6  A    between atoms: C_9  and  N_8 
REMARK    7  A    between atoms: C_9  and  C_10 
REMARK    8  A    between atoms: C_9  and  C_18 
REMARK    9  A    between atoms: C_10  and  C_11 
REMARK   10  A    between atoms: C_11  and  C_12 
REMARK   11  A    between atoms: C_12  and  N_13 
REMARK       I    between atoms: N_13  and  C_14 
REMARK       I    between atoms: C_14  and  N_17 
REMARK       I    between atoms: C_18  and  N_20 
REMARK   12  A    between atoms: N_20  and  C_21 
REMARK   13  A    between atoms: C_21  and  C_22 
REMARK       I    between atoms: N_29  and  C_30 
REMARK   14  A    between atoms: C_30  and  C_32 
REMARK   15  A    between atoms: C_32  and  C_33 
REMARK   16  A    between atoms: C_32  and  N_40 
REMARK   17  A    between atoms: C_33  and  C_34 
REMARK       I    between atoms: N_40  and  C_41 
REMARK   18  A    between atoms: C_41  and  C_43 
REMARK   19  A    between atoms: C_43  and  C_44 
REMARK   20  A    between atoms: C_43  and  N_51 
REMARK   21  A    between atoms: C_44  and  C_45 
ROOT
HETATM    1  C   UNK N   1      21.945  16.811   4.885  0.00  0.00     0.176 C 
ENDROOT
BRANCH   1   2
HETATM    2  C   UNK N   1      21.969  17.810   6.040  0.00  0.00     0.035 C 
BRANCH   2   3
HETATM    3  C   UNK N   1      20.781  17.650   6.969  0.00  0.00     0.002 C 
BRANCH   3   4
HETATM    4  C   UNK N   1      20.970  16.402   7.806  0.00  0.00    -0.004 C 
HETATM    5  C   UNK N   1      19.780  16.230   8.723  0.00  0.00     0.005 C 
ENDBRANCH   3   4
ENDBRANCH   2   3
ENDBRANCH   1   2
BRANCH   1   6
HETATM    6  C   UNK N   1      23.357  16.384   4.654  0.00  0.00     0.241 C 
HETATM    7  O   UNK N   1      23.747  16.214   3.508  0.00  0.00    -0.271 OA
HETATM    8  N   UNK N   1      24.177  16.149   5.712  0.00  0.00    -0.346 N 
HETATM    9  H   UNK N   1      23.841  16.374   6.609  0.00  0.00     0.163 HD
BRANCH   8  10
HETATM   10  C   UNK N   1      25.511  15.591   5.613  0.00  0.00     0.176 C 
BRANCH  10  11
HETATM   11  C   UNK N   1      25.836  14.649   6.776  0.00  0.00     0.036 C 
BRANCH  11  12
HETATM   12  C   UNK N   1      24.606  13.950   7.332  0.00  0.00     0.023 C 
BRANCH  12  13
HETATM   13  C   UNK N   1      24.898  13.388   8.718  0.00  0.00     0.138 C 
BRANCH  13  14
HETATM   14  N   UNK N   1      23.827  12.541   9.189  0.00  0.00    -0.227 N 
HETATM   15  C   UNK N   1      23.793  12.030  10.512  0.00  0.00     0.665 C 
HETATM   16  N   UNK N   1      22.788  11.336  10.898  0.00  0.00    -0.235 N 
HETATM   17  N   UNK N   1      24.837  12.312  11.421  0.00  0.00    -0.235 N 
HETATM   18  H   UNK N   1      22.344  10.624  10.384  0.00  0.00     0.174 HD
ATOM     19  HN  UNK N   1      22.412  11.542  11.824  1.00  0.00     0.174 HD
HETATM   20  H   UNK N   1      25.358  12.082  12.225  0.00  0.00     0.174 HD
HETATM   21  H   UNK N   1      25.243  13.146  11.088  0.00  0.00     0.174 HD
HETATM   22  H   UNK N   1      23.096  12.310   8.571  0.00  0.00     0.177 HD
ENDBRANCH  13  14
ENDBRANCH  12  13
ENDBRANCH  11  12
ENDBRANCH  10  11
BRANCH  10  23
HETATM   23  C   UNK N   1      26.520  16.686   5.482  0.00  0.00     0.240 C 
HETATM   24  O   UNK N   1      27.142  16.794   4.434  0.00  0.00    -0.271 OA
HETATM   25  N   UNK N   1      26.769  17.521   6.526  0.00  0.00    -0.355 N 
HETATM   26  H   UNK N   1      26.217  17.443   7.337  0.00  0.00     0.162 HD
BRANCH  25  27
HETATM   27  C   UNK N   1      27.814  18.517   6.489  0.00  0.00     0.161 C 
BRANCH  27  28
HETATM   28  C   UNK N   1      28.831  18.200   7.535  0.00  0.00    -0.038 A 
HETATM   29  C   UNK N   1      28.678  18.710   8.824  0.00  0.00     0.025 A 
HETATM   30  C   UNK N   1      29.684  18.495   9.767  0.00  0.00     0.088 A 
HETATM   31  N   UNK N   1      30.804  17.801   9.425  0.00  0.00    -0.375 N 
HETATM   32  C   UNK N   1      30.969  17.292   8.174  0.00  0.00     0.088 A 
ATOM     33  HN  UNK N   1      31.534  17.659  10.122  1.00  0.00     0.164 HD
HETATM   34  C   UNK N   1      29.985  17.485   7.204  0.00  0.00     0.025 A 
ENDBRANCH  27  28
ENDBRANCH  25  27
ENDBRANCH  10  23
ENDBRANCH   8  10
ENDBRANCH   1   6
BRANCH   1  35
HETATM   35  N   UNK N   1      21.384  17.439   3.703  0.00  0.00    -0.346 N 
HETATM   36  C   UNK N   1      20.662  16.846   2.710  0.00  0.00     0.241 C 
HETATM   37  O   UNK N   1      20.127  17.575   1.887  0.00  0.00    -0.271 OA
HETATM   38  H   UNK N   1      21.546  18.406   3.606  0.00  0.00     0.163 HD
BRANCH  36  39
HETATM   39  C   UNK N   1      20.447  15.343   2.555  0.00  0.00     0.180 C 
BRANCH  39  40
HETATM   40  C   UNK N   1      20.443  14.811   1.107  0.00  0.00     0.073 C 
BRANCH  40  41
HETATM   41  C   UNK N   1      21.511  13.795   0.811  0.00  0.00    -0.056 A 
HETATM   42  C   UNK N   1      22.856  14.173   0.691  0.00  0.00     0.007 A 
HETATM   43  C   UNK N   1      23.826  13.223   0.363  0.00  0.00     0.001 A 
HETATM   44  C   UNK N   1      23.457  11.891   0.166  0.00  0.00     0.000 A 
HETATM   45  C   UNK N   1      22.121  11.507   0.299  0.00  0.00     0.001 A 
HETATM   46  C   UNK N   1      21.148  12.459   0.615  0.00  0.00     0.007 A 
ENDBRANCH  40  41
ENDBRANCH  39  40
BRANCH  39  47
HETATM   47  N   UNK N   1      19.242  14.960   3.270  0.00  0.00    -0.346 N 
HETATM   48  C   UNK N   1      19.183  14.080   4.305  0.00  0.00     0.240 C 
HETATM   49  O   UNK N   1      18.100  13.840   4.811  0.00  0.00    -0.271 OA
HETATM   50  H   UNK N   1      18.396  15.372   2.981  0.00  0.00     0.163 HD
BRANCH  48  51
HETATM   51  C   UNK N   1      20.402  13.398   4.871  0.00  0.00     0.171 C 
BRANCH  51  52
HETATM   52  C   UNK N   1      20.619  12.018   4.269  0.00  0.00     0.072 C 
BRANCH  52  53
HETATM   53  C   UNK N   1      22.069  11.748   4.047  0.00  0.00    -0.056 A 
HETATM   54  C   UNK N   1      22.505  10.449   3.751  0.00  0.00     0.007 A 
HETATM   55  C   UNK N   1      23.861  10.202   3.520  0.00  0.00     0.001 A 
HETATM   56  C   UNK N   1      24.783  11.251   3.582  0.00  0.00     0.000 A 
HETATM   57  C   UNK N   1      24.349  12.548   3.876  0.00  0.00     0.001 A 
HETATM   58  C   UNK N   1      22.991  12.797   4.106  0.00  0.00     0.007 A 
ENDBRANCH  52  53
ENDBRANCH  51  52
BRANCH  51  59
HETATM   59  N   UNK N   1      20.335  13.309   6.317  0.00  0.00    -0.418 N 
HETATM   60  H   UNK N   1      20.938  13.186   7.131  0.00  0.00     0.150 HD
HETATM   61  H   UNK N   1      19.365  13.399   6.621  0.00  0.00     0.150 HD
ENDBRANCH  51  59
ENDBRANCH  48  51
ENDBRANCH  39  47
ENDBRANCH  36  39
ENDBRANCH   1  35
TORSDOF 21
ENDMDL
MODEL 5
REMARK VINA RESULT:      -7.3      2.313      3.926
REMARK  21 active torsions:
REMARK  status: ('A' for Active; 'I' for Inactive)
REMARK    1  A    between atoms: C_2  and  C_3 
REMARK    2  A    between atoms: C_3  and  C_4 
REMARK    3  A    between atoms: C_4  and  C_5 
REMARK    4  A    between atoms: C_5  and  C_6 
REMARK    5  A    between atoms: C_5  and  N_29 
REMARK       I    between atoms: C_6  and  N_8 
REMARK    6  A    between atoms: C_9  and  N_8 
REMARK    7  A    between atoms: C_9  and  C_10 
REMARK    8  A    between atoms: C_9  and  C_18 
REMARK    9  A    between atoms: C_10  and  C_11 
REMARK   10  A    between atoms: C_11  and  C_12 
REMARK   11  A    between atoms: C_12  and  N_13 
REMARK       I    between atoms: N_13  and  C_14 
REMARK       I    between atoms: C_14  and  N_17 
REMARK       I    between atoms: C_18  and  N_20 
REMARK   12  A    between atoms: N_20  and  C_21 
REMARK   13  A    between atoms: C_21  and  C_22 
REMARK       I    between atoms: N_29  and  C_30 
REMARK   14  A    between atoms: C_30  and  C_32 
REMARK   15  A    between atoms: C_32  and  C_33 
REMARK   16  A    between atoms: C_32  and  N_40 
REMARK   17  A    between atoms: C_33  and  C_34 
REMARK       I    between atoms: N_40  and  C_41 
REMARK   18  A    between atoms: C_41  and  C_43 
REMARK   19  A    between atoms: C_43  and  C_44 
REMARK   20  A    between atoms: C_43  and  N_51 
REMARK   21  A    between atoms: C_44  and  C_45 
ROOT
HETATM    1  C   UNK N   1      25.864  15.332   5.232  0.00  0.00     0.176 C 
ENDROOT
BRANCH   1   2
HETATM    2  C   UNK N   1      25.730  14.115   6.147  0.00  0.00     0.035 C 
BRANCH   2   3
HETATM    3  C   UNK N   1      24.754  13.089   5.604  0.00  0.00     0.002 C 
BRANCH   3   4
HETATM    4  C   UNK N   1      25.438  11.739   5.540  0.00  0.00    -0.004 C 
HETATM    5  C   UNK N   1      24.444  10.657   5.896  0.00  0.00     0.005 C 
ENDBRANCH   3   4
ENDBRANCH   2   3
ENDBRANCH   1   2
BRANCH   1   6
HETATM    6  C   UNK N   1      24.478  15.810   4.944  0.00  0.00     0.241 C 
HETATM    7  O   UNK N   1      24.067  15.780   3.793  0.00  0.00    -0.271 OA
HETATM    8  N   UNK N   1      23.709  16.307   5.948  0.00  0.00    -0.346 N 
HETATM    9  H   UNK N   1      24.056  16.237   6.866  0.00  0.00     0.163 HD
BRANCH   8  10
HETATM   10  C   UNK N   1      22.416  16.932   5.762  0.00  0.00     0.176 C 
BRANCH  10  11
HETATM   11  C   UNK N   1      22.521  18.449   5.582  0.00  0.00     0.036 C 
BRANCH  11  12
HETATM   12  C   UNK N   1      22.442  18.877   4.126  0.00  0.00     0.023 C 
BRANCH  12  13
HETATM   13  C   UNK N   1      21.052  19.416   3.807  0.00  0.00     0.138 C 
BRANCH  13  14
HETATM   14  N   UNK N   1      21.075  20.327   2.687  0.00  0.00    -0.227 N 
HETATM   15  C   UNK N   1      20.636  19.945   1.393  0.00  0.00     0.665 C 
HETATM   16  N   UNK N   1      20.617  20.812   0.448  0.00  0.00    -0.235 N 
HETATM   17  N   UNK N   1      20.182  18.631   1.144  0.00  0.00    -0.235 N 
HETATM   18  H   UNK N   1      21.324  21.466   0.249  0.00  0.00     0.174 HD
ATOM     19  HN  UNK N   1      19.791  20.824  -0.150  1.00  0.00     0.174 HD
HETATM   20  H   UNK N   1      20.015  17.887   0.521  0.00  0.00     0.174 HD
HETATM   21  H   UNK N   1      19.889  18.295   2.022  0.00  0.00     0.174 HD
HETATM   22  H   UNK N   1      21.406  21.244   2.826  0.00  0.00     0.177 HD
ENDBRANCH  13  14
ENDBRANCH  12  13
ENDBRANCH  11  12
ENDBRANCH  10  11
BRANCH  10  23
HETATM   23  C   UNK N   1      21.499  16.566   6.885  0.00  0.00     0.240 C 
HETATM   24  O   UNK N   1      20.646  17.368   7.237  0.00  0.00    -0.271 OA
HETATM   25  N   UNK N   1      21.641  15.375   7.527  0.00  0.00    -0.355 N 
HETATM   26  H   UNK N   1      22.301  14.729   7.187  0.00  0.00     0.162 HD
BRANCH  25  27
HETATM   27  C   UNK N   1      20.858  15.024   8.689  0.00  0.00     0.161 C 
BRANCH  27  28
HETATM   28  C   UNK N   1      21.405  13.772   9.289  0.00  0.00    -0.038 A 
HETATM   29  C   UNK N   1      20.793  13.219  10.414  0.00  0.00     0.025 A 
HETATM   30  C   UNK N   1      21.371  12.107  11.028  0.00  0.00     0.088 A 
HETATM   31  N   UNK N   1      22.525  11.577  10.537  0.00  0.00    -0.375 N 
HETATM   32  C   UNK N   1      23.134  12.099   9.438  0.00  0.00     0.088 A 
ATOM     33  HN  UNK N   1      22.940  10.770  11.001  1.00  0.00     0.164 HD
HETATM   34  C   UNK N   1      22.586  13.210   8.795  0.00  0.00     0.025 A 
ENDBRANCH  27  28
ENDBRANCH  25  27
ENDBRANCH  10  23
ENDBRANCH   8  10
ENDBRANCH   1   6
BRANCH   1  35
HETATM   35  N   UNK N   1      26.556  14.957   4.013  0.00  0.00    -0.346 N 
HETATM   36  C   UNK N   1      27.592  15.608   3.411  0.00  0.00     0.241 C 
HETATM   37  O   UNK N   1      28.156  15.041   2.487  0.00  0.00    -0.271 OA
HETATM   38  H   UNK N   1      26.239  14.137   3.567  0.00  0.00     0.163 HD
BRANCH  36  39
HETATM   39  C   UNK N   1      28.122  16.981   3.815  0.00  0.00     0.180 C 
BRANCH  39  40
HETATM   40  C   UNK N   1      27.212  18.178   3.475  0.00  0.00     0.073 C 
BRANCH  40  41
HETATM   41  C   UNK N   1      27.078  19.194   4.576  0.00  0.00    -0.056 A 
HETATM   42  C   UNK N   1      25.818  19.564   5.068  0.00  0.00     0.007 A 
HETATM   43  C   UNK N   1      25.710  20.548   6.054  0.00  0.00     0.001 A 
HETATM   44  C   UNK N   1      26.860  21.156   6.559  0.00  0.00     0.000 A 
HETATM   45  C   UNK N   1      28.119  20.779   6.083  0.00  0.00     0.001 A 
HETATM   46  C   UNK N   1      28.226  19.804   5.089  0.00  0.00     0.007 A 
ENDBRANCH  40  41
ENDBRANCH  39  40
BRANCH  39  47
HETATM   47  N   UNK N   1      29.459  17.151   3.272  0.00  0.00    -0.346 N 
HETATM   48  C   UNK N   1      30.616  16.800   3.893  0.00  0.00     0.240 C 
HETATM   49  O   UNK N   1      31.674  17.010   3.325  0.00  0.00    -0.271 OA
HETATM   50  H   UNK N   1      29.533  17.557   2.378  0.00  0.00     0.163 HD
BRANCH  48  51
HETATM   51  C   UNK N   1      30.651  16.144   5.249  0.00  0.00     0.171 C 
BRANCH  51  52
HETATM   52  C   UNK N   1      31.193  17.075   6.324  0.00  0.00     0.072 C 
BRANCH  52  53
HETATM   53  C   UNK N   1      30.149  17.391   7.340  0.00  0.00    -0.056 A 
HETATM   54  C   UNK N   1      30.483  18.124   8.487  0.00  0.00     0.007 A 
HETATM   55  C   UNK N   1      29.500  18.440   9.428  0.00  0.00     0.001 A 
HETATM   56  C   UNK N   1      28.179  18.026   9.224  0.00  0.00     0.000 A 
HETATM   57  C   UNK N   1      27.844  17.296   8.079  0.00  0.00     0.001 A 
HETATM   58  C   UNK N   1      28.828  16.981   7.136  0.00  0.00     0.007 A 
ENDBRANCH  52  53
ENDBRANCH  51  52
BRANCH  51  59
HETATM   59  N   UNK N   1      31.416  14.912   5.222  0.00  0.00    -0.418 N 
HETATM   60  H   UNK N   1      32.036  14.380   4.612  0.00  0.00     0.150 HD
HETATM   61  H   UNK N   1      31.295  14.415   6.104  0.00  0.00     0.150 HD
ENDBRANCH  51  59
ENDBRANCH  48  51
ENDBRANCH  39  47
ENDBRANCH  36  39
ENDBRANCH   1  35
TORSDOF 21
ENDMDL
MODEL 6
REMARK VINA RESULT:      -7.2      2.021      3.553
REMARK  21 active torsions:
REMARK  status: ('A' for Active; 'I' for Inactive)
REMARK    1  A    between atoms: C_2  and  C_3 
REMARK    2  A    between atoms: C_3  and  C_4 
REMARK    3  A    between atoms: C_4  and  C_5 
REMARK    4  A    between atoms: C_5  and  C_6 
REMARK    5  A    between atoms: C_5  and  N_29 
REMARK       I    between atoms: C_6  and  N_8 
REMARK    6  A    between atoms: C_9  and  N_8 
REMARK    7  A    between atoms: C_9  and  C_10 
REMARK    8  A    between atoms: C_9  and  C_18 
REMARK    9  A    between atoms: C_10  and  C_11 
REMARK   10  A    between atoms: C_11  and  C_12 
REMARK   11  A    between atoms: C_12  and  N_13 
REMARK       I    between atoms: N_13  and  C_14 
REMARK       I    between atoms: C_14  and  N_17 
REMARK       I    between atoms: C_18  and  N_20 
REMARK   12  A    between atoms: N_20  and  C_21 
REMARK   13  A    between atoms: C_21  and  C_22 
REMARK       I    between atoms: N_29  and  C_30 
REMARK   14  A    between atoms: C_30  and  C_32 
REMARK   15  A    between atoms: C_32  and  C_33 
REMARK   16  A    between atoms: C_32  and  N_40 
REMARK   17  A    between atoms: C_33  and  C_34 
REMARK       I    between atoms: N_40  and  C_41 
REMARK   18  A    between atoms: C_41  and  C_43 
REMARK   19  A    between atoms: C_43  and  C_44 
REMARK   20  A    between atoms: C_43  and  N_51 
REMARK   21  A    between atoms: C_44  and  C_45 
ROOT
HETATM    1  C   UNK N   1      25.585  17.148   5.018  0.00  0.00     0.176 C 
ENDROOT
BRANCH   1   2
HETATM    2  C   UNK N   1      25.292  18.608   4.676  0.00  0.00     0.035 C 
BRANCH   2   3
HETATM    3  C   UNK N   1      26.449  19.278   3.960  0.00  0.00     0.002 C 
BRANCH   3   4
HETATM    4  C   UNK N   1      26.714  20.626   4.597  0.00  0.00    -0.004 C 
HETATM    5  C   UNK N   1      27.649  20.449   5.772  0.00  0.00     0.005 C 
ENDBRANCH   3   4
ENDBRANCH   2   3
ENDBRANCH   1   2
BRANCH   1   6
HETATM    6  C   UNK N   1      24.270  16.441   5.051  0.00  0.00     0.241 C 
HETATM    7  O   UNK N   1      24.150  15.384   4.447  0.00  0.00    -0.271 OA
HETATM    8  N   UNK N   1      23.218  16.993   5.708  0.00  0.00    -0.346 N 
HETATM    9  H   UNK N   1      23.386  17.803   6.241  0.00  0.00     0.163 HD
BRANCH   8  10
HETATM   10  C   UNK N   1      21.865  16.475   5.680  0.00  0.00     0.176 C 
BRANCH  10  11
HETATM   11  C   UNK N   1      20.958  17.263   4.731  0.00  0.00     0.036 C 
BRANCH  11  12
HETATM   12  C   UNK N   1      20.964  16.711   3.315  0.00  0.00     0.023 C 
BRANCH  12  13
HETATM   13  C   UNK N   1      20.550  17.793   2.323  0.00  0.00     0.138 C 
BRANCH  13  14
HETATM   14  N   UNK N   1      20.812  19.117   2.837  0.00  0.00    -0.227 N 
HETATM   15  C   UNK N   1      20.800  20.267   2.005  0.00  0.00     0.665 C 
HETATM   16  N   UNK N   1      20.975  21.426   2.522  0.00  0.00    -0.235 N 
HETATM   17  N   UNK N   1      20.557  20.151   0.618  0.00  0.00    -0.235 N 
HETATM   18  H   UNK N   1      21.648  21.661   3.200  0.00  0.00     0.174 HD
ATOM     19  HN  UNK N   1      20.358  22.173   2.202  1.00  0.00     0.174 HD
HETATM   20  H   UNK N   1      20.644  20.500  -0.299  0.00  0.00     0.174 HD
HETATM   21  H   UNK N   1      20.055  19.308   0.520  0.00  0.00     0.174 HD
HETATM   22  H   UNK N   1      21.005  19.226   3.796  0.00  0.00     0.177 HD
ENDBRANCH  13  14
ENDBRANCH  12  13
ENDBRANCH  11  12
ENDBRANCH  10  11
BRANCH  10  23
HETATM   23  C   UNK N   1      21.306  16.415   7.066  0.00  0.00     0.240 C 
HETATM   24  O   UNK N   1      20.980  17.457   7.617  0.00  0.00    -0.271 OA
HETATM   25  N   UNK N   1      21.202  15.224   7.713  0.00  0.00    -0.355 N 
HETATM   26  H   UNK N   1      21.423  14.398   7.226  0.00  0.00     0.162 HD
BRANCH  25  27
HETATM   27  C   UNK N   1      20.778  15.127   9.091  0.00  0.00     0.161 C 
BRANCH  27  28
HETATM   28  C   UNK N   1      21.353  13.887   9.694  0.00  0.00    -0.038 A 
HETATM   29  C   UNK N   1      20.581  13.122  10.568  0.00  0.00     0.025 A 
HETATM   30  C   UNK N   1      21.160  12.024  11.206  0.00  0.00     0.088 A 
HETATM   31  N   UNK N   1      22.465  11.712  10.980  0.00  0.00    -0.375 N 
HETATM   32  C   UNK N   1      23.233  12.443  10.128  0.00  0.00     0.088 A 
ATOM     33  HN  UNK N   1      22.877  10.912  11.460  1.00  0.00     0.164 HD
HETATM   34  C   UNK N   1      22.690  13.548   9.470  0.00  0.00     0.025 A 
ENDBRANCH  27  28
ENDBRANCH  25  27
ENDBRANCH  10  23
ENDBRANCH   8  10
ENDBRANCH   1   6
BRANCH   1  35
HETATM   35  N   UNK N   1      26.257  17.070   6.302  0.00  0.00    -0.346 N 
HETATM   36  C   UNK N   1      27.556  16.729   6.540  0.00  0.00     0.241 C 
HETATM   37  O   UNK N   1      27.985  16.891   7.674  0.00  0.00    -0.271 OA
HETATM   38  H   UNK N   1      25.712  17.287   7.093  0.00  0.00     0.163 HD
BRANCH  36  39
HETATM   39  C   UNK N   1      28.528  16.183   5.499  0.00  0.00     0.180 C 
BRANCH  39  40
HETATM   40  C   UNK N   1      29.339  17.237   4.719  0.00  0.00     0.073 C 
BRANCH  40  41
HETATM   41  C   UNK N   1      30.797  17.300   5.082  0.00  0.00    -0.056 A 
HETATM   42  C   UNK N   1      31.214  17.194   6.416  0.00  0.00     0.007 A 
HETATM   43  C   UNK N   1      32.569  17.308   6.739  0.00  0.00     0.001 A 
HETATM   44  C   UNK N   1      33.511  17.515   5.730  0.00  0.00     0.000 A 
HETATM   45  C   UNK N   1      33.101  17.605   4.397  0.00  0.00     0.001 A 
HETATM   46  C   UNK N   1      31.745  17.504   4.075  0.00  0.00     0.007 A 
ENDBRANCH  40  41
ENDBRANCH  39  40
BRANCH  39  47
HETATM   47  N   UNK N   1      27.812  15.289   4.605  0.00  0.00    -0.346 N 
HETATM   48  C   UNK N   1      28.256  14.077   4.176  0.00  0.00     0.240 C 
HETATM   49  O   UNK N   1      27.556  13.431   3.416  0.00  0.00    -0.271 OA
HETATM   50  H   UNK N   1      26.931  15.585   4.281  0.00  0.00     0.163 HD
BRANCH  48  51
HETATM   51  C   UNK N   1      29.571  13.485   4.613  0.00  0.00     0.171 C 
BRANCH  51  52
HETATM   52  C   UNK N   1      30.700  13.822   3.650  0.00  0.00     0.072 C 
BRANCH  52  53
HETATM   53  C   UNK N   1      32.010  13.896   4.360  0.00  0.00    -0.056 A 
HETATM   54  C   UNK N   1      32.062  13.762   5.754  0.00  0.00     0.007 A 
HETATM   55  C   UNK N   1      33.292  13.809   6.416  0.00  0.00     0.001 A 
HETATM   56  C   UNK N   1      34.472  13.986   5.687  0.00  0.00     0.000 A 
HETATM   57  C   UNK N   1      34.421  14.118   4.295  0.00  0.00     0.001 A 
HETATM   58  C   UNK N   1      33.190  14.070   3.631  0.00  0.00     0.007 A 
ENDBRANCH  52  53
ENDBRANCH  51  52
BRANCH  51  59
HETATM   59  N   UNK N   1      29.473  12.049   4.787  0.00  0.00    -0.418 N 
HETATM   60  H   UNK N   1      29.122  11.217   4.313  0.00  0.00     0.150 HD
HETATM   61  H   UNK N   1      29.896  11.782   5.677  0.00  0.00     0.150 HD
ENDBRANCH  51  59
ENDBRANCH  48  51
ENDBRANCH  39  47
ENDBRANCH  36  39
ENDBRANCH   1  35
TORSDOF 21
ENDMDL
MODEL 7
REMARK VINA RESULT:      -7.2      2.638      4.419
REMARK  21 active torsions:
REMARK  status: ('A' for Active; 'I' for Inactive)
REMARK    1  A    between atoms: C_2  and  C_3 
REMARK    2  A    between atoms: C_3  and  C_4 
REMARK    3  A    between atoms: C_4  and  C_5 
REMARK    4  A    between atoms: C_5  and  C_6 
REMARK    5  A    between atoms: C_5  and  N_29 
REMARK       I    between atoms: C_6  and  N_8 
REMARK    6  A    between atoms: C_9  and  N_8 
REMARK    7  A    between atoms: C_9  and  C_10 
REMARK    8  A    between atoms: C_9  and  C_18 
REMARK    9  A    between atoms: C_10  and  C_11 
REMARK   10  A    between atoms: C_11  and  C_12 
REMARK   11  A    between atoms: C_12  and  N_13 
REMARK       I    between atoms: N_13  and  C_14 
REMARK       I    between atoms: C_14  and  N_17 
REMARK       I    between atoms: C_18  and  N_20 
REMARK   12  A    between atoms: N_20  and  C_21 
REMARK   13  A    between atoms: C_21  and  C_22 
REMARK       I    between atoms: N_29  and  C_30 
REMARK   14  A    between atoms: C_30  and  C_32 
REMARK   15  A    between atoms: C_32  and  C_33 
REMARK   16  A    between atoms: C_32  and  N_40 
REMARK   17  A    between atoms: C_33  and  C_34 
REMARK       I    between atoms: N_40  and  C_41 
REMARK   18  A    between atoms: C_41  and  C_43 
REMARK   19  A    between atoms: C_43  and  C_44 
REMARK   20  A    between atoms: C_43  and  N_51 
REMARK   21  A    between atoms: C_44  and  C_45 
ROOT
HETATM    1  C   UNK N   1      22.408  17.160   4.552  0.00  0.00     0.176 C 
ENDROOT
BRANCH   1   2
HETATM    2  C   UNK N   1      21.148  17.590   3.802  0.00  0.00     0.035 C 
BRANCH   2   3
HETATM    3  C   UNK N   1      20.917  16.776   2.543  0.00  0.00     0.002 C 
BRANCH   3   4
HETATM    4  C   UNK N   1      21.751  15.513   2.609  0.00  0.00    -0.004 C 
HETATM    5  C   UNK N   1      20.844  14.308   2.509  0.00  0.00     0.005 C 
ENDBRANCH   3   4
ENDBRANCH   2   3
ENDBRANCH   1   2
BRANCH   1   6
HETATM    6  C   UNK N   1      21.954  16.489   5.807  0.00  0.00     0.241 C 
HETATM    7  O   UNK N   1      22.792  16.061   6.588  0.00  0.00    -0.271 OA
HETATM    8  N   UNK N   1      20.627  16.325   6.047  0.00  0.00    -0.346 N 
HETATM    9  H   UNK N   1      19.994  16.754   5.428  0.00  0.00     0.163 HD
BRANCH   8  10
HETATM   10  C   UNK N   1      20.078  15.562   7.150  0.00  0.00     0.176 C 
BRANCH  10  11
HETATM   11  C   UNK N   1      20.294  16.250   8.500  0.00  0.00     0.036 C 
BRANCH  11  12
HETATM   12  C   UNK N   1      19.035  16.289   9.351  0.00  0.00     0.023 C 
BRANCH  12  13
HETATM   13  C   UNK N   1      18.172  17.485   8.964  0.00  0.00     0.138 C 
BRANCH  13  14
HETATM   14  N   UNK N   1      17.349  17.930  10.065  0.00  0.00    -0.227 N 
HETATM   15  C   UNK N   1      17.735  19.001  10.912  0.00  0.00     0.665 C 
HETATM   16  N   UNK N   1      16.939  19.398  11.835  0.00  0.00    -0.235 N 
HETATM   17  N   UNK N   1      18.970  19.661  10.723  0.00  0.00    -0.235 N 
HETATM   18  H   UNK N   1      16.424  18.821  12.443  0.00  0.00     0.174 HD
ATOM     19  HN  UNK N   1      16.829  20.406  11.947  1.00  0.00     0.174 HD
HETATM   20  H   UNK N   1      19.715  20.200  11.076  0.00  0.00     0.174 HD
HETATM   21  H   UNK N   1      19.197  19.505   9.777  0.00  0.00     0.174 HD
HETATM   22  H   UNK N   1      16.493  17.475  10.233  0.00  0.00     0.177 HD
ENDBRANCH  13  14
ENDBRANCH  12  13
ENDBRANCH  11  12
ENDBRANCH  10  11
BRANCH  10  23
HETATM   23  C   UNK N   1      20.623  14.170   7.138  0.00  0.00     0.240 C 
HETATM   24  O   UNK N   1      20.101  13.337   6.413  0.00  0.00    -0.271 OA
HETATM   25  N   UNK N   1      21.658  13.831   7.953  0.00  0.00    -0.355 N 
HETATM   26  H   UNK N   1      22.092  14.536   8.486  0.00  0.00     0.162 HD
BRANCH  25  27
HETATM   27  C   UNK N   1      22.145  12.475   8.063  0.00  0.00     0.161 C 
BRANCH  27  28
HETATM   28  C   UNK N   1      22.780  12.291   9.402  0.00  0.00    -0.038 A 
HETATM   29  C   UNK N   1      21.980  12.227  10.543  0.00  0.00     0.025 A 
HETATM   30  C   UNK N   1      22.586  12.158  11.798  0.00  0.00     0.088 A 
HETATM   31  N   UNK N   1      23.943  12.160  11.903  0.00  0.00    -0.375 N 
HETATM   32  C   UNK N   1      24.740  12.217  10.801  0.00  0.00     0.088 A 
ATOM     33  HN  UNK N   1      24.372  12.118  12.827  1.00  0.00     0.164 HD
HETATM   34  C   UNK N   1      24.171  12.287   9.529  0.00  0.00     0.025 A 
ENDBRANCH  27  28
ENDBRANCH  25  27
ENDBRANCH  10  23
ENDBRANCH   8  10
ENDBRANCH   1   6
BRANCH   1  35
HETATM   35  N   UNK N   1      23.229  18.320   4.841  0.00  0.00    -0.346 N 
HETATM   36  C   UNK N   1      24.583  18.429   4.729  0.00  0.00     0.241 C 
HETATM   37  O   UNK N   1      25.074  19.543   4.851  0.00  0.00    -0.271 OA
HETATM   38  H   UNK N   1      22.752  19.123   5.157  0.00  0.00     0.163 HD
BRANCH  36  39
HETATM   39  C   UNK N   1      25.538  17.275   4.438  0.00  0.00     0.180 C 
BRANCH  39  40
HETATM   40  C   UNK N   1      25.202  16.422   3.198  0.00  0.00     0.073 C 
BRANCH  40  41
HETATM   41  C   UNK N   1      26.271  15.440   2.807  0.00  0.00    -0.056 A 
HETATM   42  C   UNK N   1      27.614  15.833   2.707  0.00  0.00     0.007 A 
HETATM   43  C   UNK N   1      28.584  14.919   2.290  0.00  0.00     0.001 A 
HETATM   44  C   UNK N   1      28.219  13.607   1.984  0.00  0.00     0.000 A 
HETATM   45  C   UNK N   1      26.886  13.206   2.097  0.00  0.00     0.001 A 
HETATM   46  C   UNK N   1      25.913  14.123   2.502  0.00  0.00     0.007 A 
ENDBRANCH  40  41
ENDBRANCH  39  40
BRANCH  39  47
HETATM   47  N   UNK N   1      25.669  16.457   5.632  0.00  0.00    -0.346 N 
HETATM   48  C   UNK N   1      26.675  16.543   6.543  0.00  0.00     0.240 C 
HETATM   49  O   UNK N   1      26.669  15.786   7.498  0.00  0.00    -0.271 OA
HETATM   50  H   UNK N   1      24.972  15.781   5.794  0.00  0.00     0.163 HD
BRANCH  48  51
HETATM   51  C   UNK N   1      27.792  17.550   6.437  0.00  0.00     0.171 C 
BRANCH  51  52
HETATM   52  C   UNK N   1      29.043  17.098   7.176  0.00  0.00     0.072 C 
BRANCH  52  53
HETATM   53  C   UNK N   1      30.237  17.129   6.283  0.00  0.00    -0.056 A 
HETATM   54  C   UNK N   1      30.080  17.351   4.907  0.00  0.00     0.007 A 
HETATM   55  C   UNK N   1      31.201  17.402   4.075  0.00  0.00     0.001 A 
HETATM   56  C   UNK N   1      32.480  17.235   4.613  0.00  0.00     0.000 A 
HETATM   57  C   UNK N   1      32.638  17.015   5.986  0.00  0.00     0.001 A 
HETATM   58  C   UNK N   1      31.517  16.965   6.821  0.00  0.00     0.007 A 
ENDBRANCH  52  53
ENDBRANCH  51  52
BRANCH  51  59
HETATM   59  N   UNK N   1      27.374  18.855   6.910  0.00  0.00    -0.418 N 
HETATM   60  H   UNK N   1      27.382  19.837   6.633  0.00  0.00     0.150 HD
HETATM   61  H   UNK N   1      26.923  18.761   7.821  0.00  0.00     0.150 HD
ENDBRANCH  51  59
ENDBRANCH  48  51
ENDBRANCH  39  47
ENDBRANCH  36  39
ENDBRANCH   1  35
TORSDOF 21
ENDMDL
MODEL 8
REMARK VINA RESULT:      -7.2      7.119     12.002
REMARK  21 active torsions:
REMARK  status: ('A' for Active; 'I' for Inactive)
REMARK    1  A    between atoms: C_2  and  C_3 
REMARK    2  A    between atoms: C_3  and  C_4 
REMARK    3  A    between atoms: C_4  and  C_5 
REMARK    4  A    between atoms: C_5  and  C_6 
REMARK    5  A    between atoms: C_5  and  N_29 
REMARK       I    between atoms: C_6  and  N_8 
REMARK    6  A    between atoms: C_9  and  N_8 
REMARK    7  A    between atoms: C_9  and  C_10 
REMARK    8  A    between atoms: C_9  and  C_18 
REMARK    9  A    between atoms: C_10  and  C_11 
REMARK   10  A    between atoms: C_11  and  C_12 
REMARK   11  A    between atoms: C_12  and  N_13 
REMARK       I    between atoms: N_13  and  C_14 
REMARK       I    between atoms: C_14  and  N_17 
REMARK       I    between atoms: C_18  and  N_20 
REMARK   12  A    between atoms: N_20  and  C_21 
REMARK   13  A    between atoms: C_21  and  C_22 
REMARK       I    between atoms: N_29  and  C_30 
REMARK   14  A    between atoms: C_30  and  C_32 
REMARK   15  A    between atoms: C_32  and  C_33 
REMARK   16  A    between atoms: C_32  and  N_40 
REMARK   17  A    between atoms: C_33  and  C_34 
REMARK       I    between atoms: N_40  and  C_41 
REMARK   18  A    between atoms: C_41  and  C_43 
REMARK   19  A    between atoms: C_43  and  C_44 
REMARK   20  A    between atoms: C_43  and  N_51 
REMARK   21  A    between atoms: C_44  and  C_45 
ROOT
HETATM    1  C   UNK N   1      35.466  14.896  11.498  0.00  0.00     0.176 C 
ENDROOT
BRANCH   1   2
HETATM    2  C   UNK N   1      36.403  13.902  10.813  0.00  0.00     0.035 C 
BRANCH   2   3
HETATM    3  C   UNK N   1      35.717  12.588  10.490  0.00  0.00     0.002 C 
BRANCH   3   4
HETATM    4  C   UNK N   1      35.534  12.480   8.990  0.00  0.00    -0.004 C 
HETATM    5  C   UNK N   1      35.785  11.054   8.557  0.00  0.00     0.005 C 
ENDBRANCH   3   4
ENDBRANCH   2   3
ENDBRANCH   1   2
BRANCH   1   6
HETATM    6  C   UNK N   1      35.285  16.038  10.553  0.00  0.00     0.241 C 
HETATM    7  O   UNK N   1      35.932  17.061  10.727  0.00  0.00    -0.271 OA
HETATM    8  N   UNK N   1      34.381  15.947   9.543  0.00  0.00    -0.346 N 
HETATM    9  H   UNK N   1      33.943  15.078   9.398  0.00  0.00     0.163 HD
BRANCH   8  10
HETATM   10  C   UNK N   1      34.016  17.039   8.663  0.00  0.00     0.176 C 
BRANCH  10  11
HETATM   11  C   UNK N   1      32.521  17.363   8.724  0.00  0.00     0.036 C 
BRANCH  11  12
HETATM   12  C   UNK N   1      31.645  16.181   8.340  0.00  0.00     0.023 C 
BRANCH  12  13
HETATM   13  C   UNK N   1      30.730  16.556   7.180  0.00  0.00     0.138 C 
BRANCH  13  14
HETATM   14  N   UNK N   1      31.459  17.192   6.107  0.00  0.00    -0.227 N 
HETATM   15  C   UNK N   1      30.915  17.335   4.804  0.00  0.00     0.665 C 
HETATM   16  N   UNK N   1      31.579  17.963   3.905  0.00  0.00    -0.235 N 
HETATM   17  N   UNK N   1      29.634  16.826   4.498  0.00  0.00    -0.235 N 
HETATM   18  H   UNK N   1      32.541  17.869   3.725  0.00  0.00     0.174 HD
ATOM     19  HN  UNK N   1      31.060  18.622   3.325  1.00  0.00     0.174 HD
HETATM   20  H   UNK N   1      28.979  16.493   3.841  0.00  0.00     0.174 HD
HETATM   21  H   UNK N   1      29.166  16.783   5.364  0.00  0.00     0.174 HD
HETATM   22  H   UNK N   1      32.363  17.538   6.286  0.00  0.00     0.177 HD
ENDBRANCH  13  14
ENDBRANCH  12  13
ENDBRANCH  11  12
ENDBRANCH  10  11
BRANCH  10  23
HETATM   23  C   UNK N   1      34.469  16.752   7.267  0.00  0.00     0.240 C 
HETATM   24  O   UNK N   1      34.446  17.653   6.441  0.00  0.00    -0.271 OA
HETATM   25  N   UNK N   1      34.861  15.498   6.917  0.00  0.00    -0.355 N 
HETATM   26  H   UNK N   1      34.919  14.806   7.615  0.00  0.00     0.162 HD
BRANCH  25  27
HETATM   27  C   UNK N   1      35.196  15.143   5.557  0.00  0.00     0.161 C 
BRANCH  27  28
HETATM   28  C   UNK N   1      33.971  14.642   4.866  0.00  0.00    -0.038 A 
HETATM   29  C   UNK N   1      33.738  14.987   3.535  0.00  0.00     0.025 A 
HETATM   30  C   UNK N   1      32.542  14.601   2.928  0.00  0.00     0.088 A 
HETATM   31  N   UNK N   1      31.612  13.902   3.635  0.00  0.00    -0.375 N 
HETATM   32  C   UNK N   1      31.823  13.552   4.933  0.00  0.00     0.088 A 
ATOM     33  HN  UNK N   1      30.739  13.634   3.181  1.00  0.00     0.164 HD
HETATM   34  C   UNK N   1      33.007  13.919   5.574  0.00  0.00     0.025 A 
ENDBRANCH  27  28
ENDBRANCH  25  27
ENDBRANCH  10  23
ENDBRANCH   8  10
ENDBRANCH   1   6
BRANCH   1  35
HETATM   35  N   UNK N   1      36.047  15.336  12.752  0.00  0.00    -0.346 N 
HETATM   36  C   UNK N   1      36.394  14.566  13.823  0.00  0.00     0.241 C 
HETATM   37  O   UNK N   1      37.032  15.098  14.720  0.00  0.00    -0.271 OA
HETATM   38  H   UNK N   1      36.209  16.304  12.841  0.00  0.00     0.163 HD
BRANCH  36  39
HETATM   39  C   UNK N   1      36.070  13.084  13.982  0.00  0.00     0.180 C 
BRANCH  39  40
HETATM   40  C   UNK N   1      34.794  12.758  14.785  0.00  0.00     0.073 C 
BRANCH  40  41
HETATM   41  C   UNK N   1      35.024  12.505  16.249  0.00  0.00    -0.056 A 
HETATM   42  C   UNK N   1      35.187  11.202  16.741  0.00  0.00     0.007 A 
HETATM   43  C   UNK N   1      35.346  10.983  18.112  0.00  0.00     0.001 A 
HETATM   44  C   UNK N   1      35.356  12.065  18.993  0.00  0.00     0.000 A 
HETATM   45  C   UNK N   1      35.210  13.367  18.506  0.00  0.00     0.001 A 
HETATM   46  C   UNK N   1      35.038  13.585  17.137  0.00  0.00     0.007 A 
ENDBRANCH  40  41
ENDBRANCH  39  40
BRANCH  39  47
HETATM   47  N   UNK N   1      37.233  12.400  14.522  0.00  0.00    -0.346 N 
HETATM   48  C   UNK N   1      37.708  11.197  14.103  0.00  0.00     0.240 C 
HETATM   49  O   UNK N   1      38.691  10.730  14.653  0.00  0.00    -0.271 OA
HETATM   50  H   UNK N   1      37.717  12.844  15.255  0.00  0.00     0.163 HD
BRANCH  48  51
HETATM   51  C   UNK N   1      37.085  10.419  12.973  0.00  0.00     0.171 C 
BRANCH  51  52
HETATM   52  C   UNK N   1      35.975   9.496  13.455  0.00  0.00     0.072 C 
BRANCH  52  53
HETATM   53  C   UNK N   1      34.987   9.229  12.371  0.00  0.00    -0.056 A 
HETATM   54  C   UNK N   1      35.061   8.043  11.628  0.00  0.00     0.007 A 
HETATM   55  C   UNK N   1      34.121   7.783  10.628  0.00  0.00     0.001 A 
HETATM   56  C   UNK N   1      33.103   8.706  10.368  0.00  0.00     0.000 A 
HETATM   57  C   UNK N   1      33.027   9.890  11.110  0.00  0.00     0.001 A 
HETATM   58  C   UNK N   1      33.967  10.150  12.113  0.00  0.00     0.007 A 
ENDBRANCH  52  53
ENDBRANCH  51  52
BRANCH  51  59
HETATM   59  N   UNK N   1      38.081   9.663  12.238  0.00  0.00    -0.418 N 
HETATM   60  H   UNK N   1      39.092   9.571  12.143  0.00  0.00     0.150 HD
HETATM   61  H   UNK N   1      37.617   9.007  11.609  0.00  0.00     0.150 HD
ENDBRANCH  51  59
ENDBRANCH  48  51
ENDBRANCH  39  47
ENDBRANCH  36  39
ENDBRANCH   1  35
TORSDOF 21
ENDMDL
MODEL 9
REMARK VINA RESULT:      -7.1      3.068      8.429
REMARK  21 active torsions:
REMARK  status: ('A' for Active; 'I' for Inactive)
REMARK    1  A    between atoms: C_2  and  C_3 
REMARK    2  A    between atoms: C_3  and  C_4 
REMARK    3  A    between atoms: C_4  and  C_5 
REMARK    4  A    between atoms: C_5  and  C_6 
REMARK    5  A    between atoms: C_5  and  N_29 
REMARK       I    between atoms: C_6  and  N_8 
REMARK    6  A    between atoms: C_9  and  N_8 
REMARK    7  A    between atoms: C_9  and  C_10 
REMARK    8  A    between atoms: C_9  and  C_18 
REMARK    9  A    between atoms: C_10  and  C_11 
REMARK   10  A    between atoms: C_11  and  C_12 
REMARK   11  A    between atoms: C_12  and  N_13 
REMARK       I    between atoms: N_13  and  C_14 
REMARK       I    between atoms: C_14  and  N_17 
REMARK       I    between atoms: C_18  and  N_20 
REMARK   12  A    between atoms: N_20  and  C_21 
REMARK   13  A    between atoms: C_21  and  C_22 
REMARK       I    between atoms: N_29  and  C_30 
REMARK   14  A    between atoms: C_30  and  C_32 
REMARK   15  A    between atoms: C_32  and  C_33 
REMARK   16  A    between atoms: C_32  and  N_40 
REMARK   17  A    between atoms: C_33  and  C_34 
REMARK       I    between atoms: N_40  and  C_41 
REMARK   18  A    between atoms: C_41  and  C_43 
REMARK   19  A    between atoms: C_43  and  C_44 
REMARK   20  A    between atoms: C_43  and  N_51 
REMARK   21  A    between atoms: C_44  and  C_45 
ROOT
HETATM    1  C   UNK N   1      21.711  15.689   6.162  0.00  0.00     0.176 C 
ENDROOT
BRANCH   1   2
HETATM    2  C   UNK N   1      21.987  15.253   7.600  0.00  0.00     0.035 C 
BRANCH   2   3
HETATM    3  C   UNK N   1      21.526  13.833   7.873  0.00  0.00     0.002 C 
BRANCH   3   4
HETATM    4  C   UNK N   1      22.528  13.152   8.782  0.00  0.00    -0.004 C 
HETATM    5  C   UNK N   1      22.835  11.773   8.245  0.00  0.00     0.005 C 
ENDBRANCH   3   4
ENDBRANCH   2   3
ENDBRANCH   1   2
BRANCH   1   6
HETATM    6  C   UNK N   1      22.585  16.870   5.896  0.00  0.00     0.241 C 
HETATM    7  O   UNK N   1      22.119  17.994   6.017  0.00  0.00    -0.271 OA
HETATM    8  N   UNK N   1      23.867  16.687   5.484  0.00  0.00    -0.346 N 
HETATM    9  H   UNK N   1      24.218  15.768   5.476  0.00  0.00     0.163 HD
BRANCH   8  10
HETATM   10  C   UNK N   1      24.754  17.749   5.054  0.00  0.00     0.176 C 
BRANCH  10  11
HETATM   11  C   UNK N   1      24.376  18.305   3.678  0.00  0.00     0.036 C 
BRANCH  11  12
HETATM   12  C   UNK N   1      24.256  19.820   3.666  0.00  0.00     0.023 C 
BRANCH  12  13
HETATM   13  C   UNK N   1      22.969  20.243   2.966  0.00  0.00     0.138 C 
BRANCH  13  14
HETATM   14  N   UNK N   1      21.839  19.456   3.403  0.00  0.00    -0.227 N 
HETATM   15  C   UNK N   1      20.679  19.292   2.604  0.00  0.00     0.665 C 
HETATM   16  N   UNK N   1      19.731  18.532   3.012  0.00  0.00    -0.235 N 
HETATM   17  N   UNK N   1      20.573  19.926   1.346  0.00  0.00    -0.235 N 
HETATM   18  H   UNK N   1      19.366  18.500   3.925  0.00  0.00     0.174 HD
ATOM     19  HN  UNK N   1      19.317  17.901   2.325  1.00  0.00     0.174 HD
HETATM   20  H   UNK N   1      20.024  20.289   0.614  0.00  0.00     0.174 HD
HETATM   21  H   UNK N   1      21.504  20.081   1.063  0.00  0.00     0.174 HD
HETATM   22  H   UNK N   1      21.876  19.020   4.285  0.00  0.00     0.177 HD
ENDBRANCH  13  14
ENDBRANCH  12  13
ENDBRANCH  11  12
ENDBRANCH  10  11
BRANCH  10  23
HETATM   23  C   UNK N   1      26.174  17.285   5.099  0.00  0.00     0.240 C 
HETATM   24  O   UNK N   1      26.765  17.088   4.047  0.00  0.00    -0.271 OA
HETATM   25  N   UNK N   1      26.783  17.050   6.292  0.00  0.00    -0.355 N 
HETATM   26  H   UNK N   1      26.300  17.268   7.122  0.00  0.00     0.162 HD
BRANCH  25  27
HETATM   27  C   UNK N   1      28.112  16.492   6.386  0.00  0.00     0.161 C 
BRANCH  27  28
HETATM   28  C   UNK N   1      28.872  17.215   7.449  0.00  0.00    -0.038 A 
HETATM   29  C   UNK N   1      30.267  17.213   7.424  0.00  0.00     0.025 A 
HETATM   30  C   UNK N   1      30.969  17.802   8.476  0.00  0.00     0.088 A 
HETATM   31  N   UNK N   1      30.296  18.364   9.517  0.00  0.00    -0.375 N 
HETATM   32  C   UNK N   1      28.937  18.380   9.557  0.00  0.00     0.088 A 
ATOM     33  HN  UNK N   1      30.823  18.783  10.283  1.00  0.00     0.164 HD
HETATM   34  C   UNK N   1      28.199  17.801   8.524  0.00  0.00     0.025 A 
ENDBRANCH  27  28
ENDBRANCH  25  27
ENDBRANCH  10  23
ENDBRANCH   8  10
ENDBRANCH   1   6
BRANCH   1  35
HETATM   35  N   UNK N   1      20.308  16.027   6.012  0.00  0.00    -0.346 N 
HETATM   36  C   UNK N   1      19.399  15.452   5.175  0.00  0.00     0.241 C 
HETATM   37  O   UNK N   1      18.224  15.756   5.319  0.00  0.00    -0.271 OA
HETATM   38  H   UNK N   1      19.973  16.759   6.581  0.00  0.00     0.163 HD
BRANCH  36  39
HETATM   39  C   UNK N   1      19.728  14.436   4.084  0.00  0.00     0.180 C 
BRANCH  39  40
HETATM   40  C   UNK N   1      19.887  15.008   2.661  0.00  0.00     0.073 C 
BRANCH  40  41
HETATM   41  C   UNK N   1      21.205  14.701   2.006  0.00  0.00    -0.056 A 
HETATM   42  C   UNK N   1      21.291  13.781   0.951  0.00  0.00     0.007 A 
HETATM   43  C   UNK N   1      22.533  13.469   0.392  0.00  0.00     0.001 A 
HETATM   44  C   UNK N   1      23.689  14.083   0.876  0.00  0.00     0.000 A 
HETATM   45  C   UNK N   1      23.606  15.012   1.917  0.00  0.00     0.001 A 
HETATM   46  C   UNK N   1      22.366  15.315   2.485  0.00  0.00     0.007 A 
ENDBRANCH  40  41
ENDBRANCH  39  40
BRANCH  39  47
HETATM   47  N   UNK N   1      18.749  13.363   4.124  0.00  0.00    -0.346 N 
HETATM   48  C   UNK N   1      19.011  12.065   4.430  0.00  0.00     0.240 C 
HETATM   49  O   UNK N   1      18.094  11.261   4.416  0.00  0.00    -0.271 OA
HETATM   50  H   UNK N   1      17.816  13.596   3.912  0.00  0.00     0.163 HD
BRANCH  48  51
HETATM   51  C   UNK N   1      20.386  11.573   4.803  0.00  0.00     0.171 C 
BRANCH  51  52
HETATM   52  C   UNK N   1      21.216  11.205   3.582  0.00  0.00     0.072 C 
BRANCH  52  53
HETATM   53  C   UNK N   1      22.635  11.631   3.745  0.00  0.00    -0.056 A 
HETATM   54  C   UNK N   1      22.972  12.600   4.700  0.00  0.00     0.007 A 
HETATM   55  C   UNK N   1      24.305  12.983   4.869  0.00  0.00     0.001 A 
HETATM   56  C   UNK N   1      25.305  12.398   4.086  0.00  0.00     0.000 A 
HETATM   57  C   UNK N   1      24.970  11.430   3.133  0.00  0.00     0.001 A 
HETATM   58  C   UNK N   1      23.635  11.045   2.964  0.00  0.00     0.007 A 
ENDBRANCH  52  53
ENDBRANCH  51  52
BRANCH  51  59
HETATM   59  N   UNK N   1      20.316  10.450   5.718  0.00  0.00    -0.418 N 
HETATM   60  H   UNK N   1      20.200   9.436   5.719  0.00  0.00     0.150 HD
HETATM   61  H   UNK N   1      20.417  10.783   6.677  0.00  0.00     0.150 HD
ENDBRANCH  51  59
ENDBRANCH  48  51
ENDBRANCH  39  47
ENDBRANCH  36  39
ENDBRANCH   1  35
TORSDOF 21
ENDMDL
