MODEL 1
REMARK VINA RESULT:      -8.7      0.000      0.000
REMARK  6 active torsions:
REMARK  status: ('A' for Active; 'I' for Inactive)
REMARK    1  A    between atoms: O_2  and  C_3 
REMARK    2  A    between atoms: C_8  and  C_9 
REMARK       I    between atoms: C_17  and  N_28 
REMARK    3  A    between atoms: N_28  and  C_29 
REMARK    4  A    between atoms: C_32  and  C_37 
REMARK    5  A    between atoms: C_33  and  O_35 
REMARK    6  A    between atoms: C_37  and  O_39 
ROOT
HETATM    1  C   UNK N   1      27.114  16.543   6.513  0.00  0.00     0.055 A 
HETATM    2  N   UNK N   1      26.657  15.536   7.183  0.00  0.00    -0.384 N 
ATOM      3  HN  UNK N   1      27.397  15.188   7.791  1.00  0.00     0.160 HD
HETATM    4  C   UNK N   1      25.479  14.725   7.382  0.00  0.00     0.162 A 
HETATM    5  C   UNK N   1      24.230  14.903   6.616  0.00  0.00     0.004 A 
HETATM    6  C   UNK N   1      23.199  13.963   6.879  0.00  0.00     0.117 A 
HETATM    7  N   UNK N   1      21.985  14.030   6.245  0.00  0.00    -0.201 N 
ATOM      8  HN  UNK N   1      21.256  13.345   6.444  1.00  0.00     0.183 HD
HETATM    9  C   UNK N   1      21.773  15.022   5.352  0.00  0.00     0.683 A 
HETATM   10  N   UNK N   1      22.763  15.886   5.099  0.00  0.00    -0.190 N 
ATOM     11  HN  UNK N   1      22.579  16.603   4.397  1.00  0.00     0.184 HD
HETATM   12  C   UNK N   1      23.977  15.901   5.680  0.00  0.00     0.069 A 
HETATM   13  C   UNK N   1      24.857  17.003   5.200  0.00  0.00     0.004 A 
HETATM   14  C   UNK N   1      26.225  17.292   5.518  0.00  0.00     0.005 A 
HETATM   15  C   UNK N   1      26.792  18.358   4.815  0.00  0.00     0.038 A 
HETATM   16  C   UNK N   1      26.116  19.161   3.904  0.00  0.00     0.035 A 
HETATM   17  C   UNK N   1      24.797  18.914   3.640  0.00  0.00     0.025 A 
HETATM   18  C   UNK N   1      24.196  17.851   4.270  0.00  0.00     0.016 A 
HETATM   19 Cl   UNK N   1      26.927  20.484   3.095  0.00  0.00    -0.084 Cl
HETATM   20  N   UNK N   1      20.537  15.191   4.642  0.00  0.00    -0.192 N 
HETATM   21  H   UNK N   1      19.830  14.507   4.688  0.00  0.00     0.184 HD
ENDROOT
BRANCH  20  22
HETATM   22  C   UNK N   1      20.363  16.386   3.865  0.00  0.00     0.051 A 
HETATM   23  C   UNK N   1      20.596  17.636   4.458  0.00  0.00     0.031 A 
HETATM   24  C   UNK N   1      20.758  18.780   3.701  0.00  0.00     0.023 A 
HETATM   25  C   UNK N   1      20.663  18.729   2.314  0.00  0.00     0.071 A 
HETATM   26  C   UNK N   1      20.317  17.504   1.689  0.00  0.00     0.087 A 
HETATM   27  C   UNK N   1      20.184  16.328   2.477  0.00  0.00     0.067 A 
BRANCH  25  28
HETATM   28  C   UNK N   1      20.965  19.971   1.556  0.00  0.00     0.178 C 
HETATM   29  O   UNK N   1      21.631  20.856   2.076  0.00  0.00    -0.646 OA
BRANCH  28  30
HETATM   30  O   UNK N   1      20.571  20.116   0.277  0.00  0.00    -0.773 OA
HETATM   31  H   UNK N   1      19.901  19.686  -0.216  0.00  0.00     0.167 HD
ENDBRANCH  28  30
ENDBRANCH  25  28
BRANCH  26  32
HETATM   32  O   UNK N   1      20.160  17.462   0.343  0.00  0.00    -0.355 OA
HETATM   33  C   UNK N   1      19.389  16.522  -0.302  0.00  0.00     0.210 C 
ENDBRANCH  26  32
ENDBRANCH  20  22
BRANCH   1  34
HETATM   34  C   UNK N   1      28.618  16.878   6.851  0.00  0.00     0.063 A 
HETATM   35  C   UNK N   1      28.850  17.624   8.067  0.00  0.00     0.131 A 
HETATM   36  C   UNK N   1      30.128  17.991   8.479  0.00  0.00     0.043 A 
HETATM   37  F   UNK N   1      27.845  18.004   8.895  0.00  0.00    -0.205 F 
HETATM   38  C   UNK N   1      31.238  17.657   7.740  0.00  0.00     0.006 A 
HETATM   39  C   UNK N   1      31.084  16.950   6.569  0.00  0.00     0.038 A 
HETATM   40  C   UNK N   1      29.821  16.553   6.091  0.00  0.00     0.083 A 
BRANCH  40  41
HETATM   41  O   UNK N   1      29.801  15.903   4.911  0.00  0.00    -0.355 OA
HETATM   42  C   UNK N   1      29.795  16.516   3.675  0.00  0.00     0.210 C 
ENDBRANCH  40  41
ENDBRANCH   1  34
TORSDOF 6
ENDMDL
MODEL 2
REMARK VINA RESULT:      -8.7      4.615     11.070
REMARK  6 active torsions:
REMARK  status: ('A' for Active; 'I' for Inactive)
REMARK    1  A    between atoms: O_2  and  C_3 
REMARK    2  A    between atoms: C_8  and  C_9 
REMARK       I    between atoms: C_17  and  N_28 
REMARK    3  A    between atoms: N_28  and  C_29 
REMARK    4  A    between atoms: C_32  and  C_37 
REMARK    5  A    between atoms: C_33  and  O_35 
REMARK    6  A    between atoms: C_37  and  O_39 
ROOT
HETATM    1  C   UNK N   1      28.673  17.519   4.283  0.00  0.00     0.055 A 
HETATM    2  N   UNK N   1      29.211  17.078   3.193  0.00  0.00    -0.384 N 
ATOM      3  HN  UNK N   1      28.626  17.358   2.406  1.00  0.00     0.160 HD
HETATM    4  C   UNK N   1      30.339  16.333   2.685  0.00  0.00     0.162 A 
HETATM    5  C   UNK N   1      31.362  15.717   3.552  0.00  0.00     0.004 A 
HETATM    6  C   UNK N   1      32.356  14.946   2.891  0.00  0.00     0.117 A 
HETATM    7  N   UNK N   1      33.371  14.335   3.582  0.00  0.00    -0.201 N 
ATOM      8  HN  UNK N   1      34.075  13.784   3.091  1.00  0.00     0.183 HD
HETATM    9  C   UNK N   1      33.421  14.479   4.924  0.00  0.00     0.683 A 
HETATM   10  N   UNK N   1      32.464  15.189   5.534  0.00  0.00    -0.190 N 
ATOM     11  HN  UNK N   1      32.515  15.252   6.551  1.00  0.00     0.184 HD
HETATM   12  C   UNK N   1      31.441  15.829   4.937  0.00  0.00     0.069 A 
HETATM   13  C   UNK N   1      30.550  16.552   5.886  0.00  0.00     0.004 A 
HETATM   14  C   UNK N   1      29.332  17.268   5.640  0.00  0.00     0.005 A 
HETATM   15  C   UNK N   1      28.684  17.757   6.778  0.00  0.00     0.038 A 
HETATM   16  C   UNK N   1      29.163  17.646   8.078  0.00  0.00     0.035 A 
HETATM   17  C   UNK N   1      30.350  17.006   8.303  0.00  0.00     0.025 A 
HETATM   18  C   UNK N   1      31.013  16.466   7.227  0.00  0.00     0.016 A 
HETATM   19 Cl   UNK N   1      28.271  18.315   9.426  0.00  0.00    -0.084 Cl
HETATM   20  N   UNK N   1      34.444  13.893   5.741  0.00  0.00    -0.192 N 
HETATM   21  H   UNK N   1      35.089  13.252   5.362  0.00  0.00     0.184 HD
ENDROOT
BRANCH  20  22
HETATM   22  C   UNK N   1      34.502  14.271   7.127  0.00  0.00     0.051 A 
HETATM   23  C   UNK N   1      34.729  13.287   8.101  0.00  0.00     0.031 A 
HETATM   24  C   UNK N   1      35.110  13.616   9.388  0.00  0.00     0.023 A 
HETATM   25  C   UNK N   1      35.249  14.948   9.766  0.00  0.00     0.071 A 
HETATM   26  C   UNK N   1      34.918  15.968   8.838  0.00  0.00     0.087 A 
HETATM   27  C   UNK N   1      34.558  15.617   7.509  0.00  0.00     0.067 A 
BRANCH  25  28
HETATM   28  C   UNK N   1      35.774  15.226  11.127  0.00  0.00     0.178 C 
HETATM   29  O   UNK N   1      35.299  14.647  12.095  0.00  0.00    -0.646 OA
BRANCH  28  30
HETATM   30  O   UNK N   1      36.813  16.062  11.312  0.00  0.00    -0.773 OA
HETATM   31  H   UNK N   1      36.845  16.990  11.433  0.00  0.00     0.167 HD
ENDBRANCH  28  30
ENDBRANCH  25  28
BRANCH  26  32
HETATM   32  O   UNK N   1      34.989  17.266   9.220  0.00  0.00    -0.355 OA
HETATM   33  C   UNK N   1      34.563  18.313   8.435  0.00  0.00     0.210 C 
ENDBRANCH  26  32
ENDBRANCH  20  22
BRANCH   1  34
HETATM   34  C   UNK N   1      27.332  18.312   4.033  0.00  0.00     0.063 A 
HETATM   35  C   UNK N   1      27.392  19.744   4.213  0.00  0.00     0.131 A 
HETATM   36  C   UNK N   1      26.280  20.562   4.032  0.00  0.00     0.043 A 
HETATM   37  F   UNK N   1      28.534  20.391   4.557  0.00  0.00    -0.205 F 
HETATM   38  C   UNK N   1      25.062  20.037   3.668  0.00  0.00     0.006 A 
HETATM   39  C   UNK N   1      24.939  18.679   3.484  0.00  0.00     0.038 A 
HETATM   40  C   UNK N   1      26.019  17.795   3.658  0.00  0.00     0.083 A 
BRANCH  40  41
HETATM   41  O   UNK N   1      25.759  16.484   3.490  0.00  0.00    -0.355 OA
HETATM   42  C   UNK N   1      25.953  15.788   2.314  0.00  0.00     0.210 C 
ENDBRANCH  40  41
ENDBRANCH   1  34
TORSDOF 6
ENDMDL
MODEL 3
REMARK VINA RESULT:      -8.5      4.190     10.094
REMARK  6 active torsions:
REMARK  status: ('A' for Active; 'I' for Inactive)
REMARK    1  A    between atoms: O_2  and  C_3 
REMARK    2  A    between atoms: C_8  and  C_9 
REMARK       I    between atoms: C_17  and  N_28 
REMARK    3  A    between atoms: N_28  and  C_29 
REMARK    4  A    between atoms: C_32  and  C_37 
REMARK    5  A    between atoms: C_33  and  O_35 
REMARK    6  A    between atoms: C_37  and  O_39 
ROOT
HETATM    1  C   UNK N   1      26.710  15.677   5.108  0.00  0.00     0.055 A 
HETATM    2  N   UNK N   1      26.852  14.992   4.021  0.00  0.00    -0.384 N 
ATOM      3  HN  UNK N   1      25.928  14.794   3.638  1.00  0.00     0.160 HD
HETATM    4  C   UNK N   1      27.844  14.404   3.152  0.00  0.00     0.162 A 
HETATM    5  C   UNK N   1      29.293  14.437   3.432  0.00  0.00     0.004 A 
HETATM    6  C   UNK N   1      30.121  13.735   2.516  0.00  0.00     0.117 A 
HETATM    7  N   UNK N   1      31.485  13.704   2.656  0.00  0.00    -0.201 N 
ATOM      8  HN  UNK N   1      32.064  13.193   1.991  1.00  0.00     0.183 HD
HETATM    9  C   UNK N   1      32.046  14.364   3.693  0.00  0.00     0.683 A 
HETATM   10  N   UNK N   1      31.250  15.002   4.560  0.00  0.00    -0.190 N 
ATOM     11  HN  UNK N   1      31.705  15.463   5.348  1.00  0.00     0.184 HD
HETATM   12  C   UNK N   1      29.908  15.093   4.494  0.00  0.00     0.069 A 
HETATM   13  C   UNK N   1      29.307  15.890   5.599  0.00  0.00     0.004 A 
HETATM   14  C   UNK N   1      27.929  16.137   5.909  0.00  0.00     0.005 A 
HETATM   15  C   UNK N   1      27.699  16.858   7.085  0.00  0.00     0.038 A 
HETATM   16  C   UNK N   1      28.691  17.377   7.908  0.00  0.00     0.035 A 
HETATM   17  C   UNK N   1      30.005  17.182   7.582  0.00  0.00     0.025 A 
HETATM   18  C   UNK N   1      30.294  16.444   6.459  0.00  0.00     0.016 A 
HETATM   19 Cl   UNK N   1      28.282  18.281   9.349  0.00  0.00    -0.084 Cl
HETATM   20  N   UNK N   1      33.461  14.406   3.926  0.00  0.00    -0.192 N 
HETATM   21  H   UNK N   1      34.077  13.844   3.403  0.00  0.00     0.184 HD
ENDROOT
BRANCH  20  22
HETATM   22  C   UNK N   1      33.952  15.292   4.946  0.00  0.00     0.051 A 
HETATM   23  C   UNK N   1      33.627  16.656   4.890  0.00  0.00     0.031 A 
HETATM   24  C   UNK N   1      33.790  17.485   5.982  0.00  0.00     0.023 A 
HETATM   25  C   UNK N   1      34.315  16.993   7.173  0.00  0.00     0.071 A 
HETATM   26  C   UNK N   1      34.758  15.646   7.228  0.00  0.00     0.087 A 
HETATM   27  C   UNK N   1      34.556  14.795   6.108  0.00  0.00     0.067 A 
BRANCH  25  28
HETATM   28  C   UNK N   1      34.352  17.909   8.342  0.00  0.00     0.178 C 
HETATM   29  O   UNK N   1      34.885  19.005   8.240  0.00  0.00    -0.646 OA
BRANCH  28  30
HETATM   30  O   UNK N   1      33.751  17.580   9.500  0.00  0.00    -0.773 OA
HETATM   31  H   UNK N   1      33.994  16.975  10.172  0.00  0.00     0.167 HD
ENDBRANCH  28  30
ENDBRANCH  25  28
BRANCH  26  32
HETATM   32  O   UNK N   1      35.330  15.178   8.364  0.00  0.00    -0.355 OA
HETATM   33  C   UNK N   1      34.775  14.186   9.140  0.00  0.00     0.210 C 
ENDBRANCH  26  32
ENDBRANCH  20  22
BRANCH   1  34
HETATM   34  C   UNK N   1      25.200  15.962   5.465  0.00  0.00     0.063 A 
HETATM   35  C   UNK N   1      24.650  17.204   4.973  0.00  0.00     0.131 A 
HETATM   36  C   UNK N   1      23.333  17.583   5.222  0.00  0.00     0.043 A 
HETATM   37  F   UNK N   1      25.370  18.078   4.226  0.00  0.00    -0.205 F 
HETATM   38  C   UNK N   1      22.489  16.781   5.954  0.00  0.00     0.006 A 
HETATM   39  C   UNK N   1      22.954  15.587   6.455  0.00  0.00     0.038 A 
HETATM   40  C   UNK N   1      24.275  15.148   6.247  0.00  0.00     0.083 A 
BRANCH  40  41
HETATM   41  O   UNK N   1      24.620  13.980   6.824  0.00  0.00    -0.355 OA
HETATM   42  C   UNK N   1      25.245  13.862   8.048  0.00  0.00     0.210 C 
ENDBRANCH  40  41
ENDBRANCH   1  34
TORSDOF 6
ENDMDL
MODEL 4
REMARK VINA RESULT:      -8.5      3.782     10.054
REMARK  6 active torsions:
REMARK  status: ('A' for Active; 'I' for Inactive)
REMARK    1  A    between atoms: O_2  and  C_3 
REMARK    2  A    between atoms: C_8  and  C_9 
REMARK       I    between atoms: C_17  and  N_28 
REMARK    3  A    between atoms: N_28  and  C_29 
REMARK    4  A    between atoms: C_32  and  C_37 
REMARK    5  A    between atoms: C_33  and  O_35 
REMARK    6  A    between atoms: C_37  and  O_39 
ROOT
HETATM    1  C   UNK N   1      26.687  15.706   5.118  0.00  0.00     0.055 A 
HETATM    2  N   UNK N   1      26.822  15.037   4.020  0.00  0.00    -0.384 N 
ATOM      3  HN  UNK N   1      25.895  14.844   3.641  1.00  0.00     0.160 HD
HETATM    4  C   UNK N   1      27.808  14.463   3.135  0.00  0.00     0.162 A 
HETATM    5  C   UNK N   1      29.259  14.494   3.406  0.00  0.00     0.004 A 
HETATM    6  C   UNK N   1      30.081  13.806   2.473  0.00  0.00     0.117 A 
HETATM    7  N   UNK N   1      31.446  13.774   2.604  0.00  0.00    -0.201 N 
ATOM      8  HN  UNK N   1      32.021  13.274   1.927  1.00  0.00     0.183 HD
HETATM    9  C   UNK N   1      32.013  14.420   3.646  0.00  0.00     0.683 A 
HETATM   10  N   UNK N   1      31.223  15.044   4.528  0.00  0.00    -0.190 N 
ATOM     11  HN  UNK N   1      31.683  15.495   5.319  1.00  0.00     0.184 HD
HETATM   12  C   UNK N   1      29.881  15.135   4.473  0.00  0.00     0.069 A 
HETATM   13  C   UNK N   1      29.287  15.915   5.593  0.00  0.00     0.004 A 
HETATM   14  C   UNK N   1      27.911  16.157   5.918  0.00  0.00     0.005 A 
HETATM   15  C   UNK N   1      27.689  16.859   7.105  0.00  0.00     0.038 A 
HETATM   16  C   UNK N   1      28.687  17.368   7.928  0.00  0.00     0.035 A 
HETATM   17  C   UNK N   1      29.998  17.179   7.590  0.00  0.00     0.025 A 
HETATM   18  C   UNK N   1      30.280  16.458   6.454  0.00  0.00     0.016 A 
HETATM   19 Cl   UNK N   1      28.288  18.250   9.385  0.00  0.00    -0.084 Cl
HETATM   20  N   UNK N   1      33.430  14.460   3.870  0.00  0.00    -0.192 N 
HETATM   21  H   UNK N   1      34.043  13.906   3.333  0.00  0.00     0.184 HD
ENDROOT
BRANCH  20  22
HETATM   22  C   UNK N   1      33.928  15.332   4.898  0.00  0.00     0.051 A 
HETATM   23  C   UNK N   1      33.603  16.697   4.863  0.00  0.00     0.031 A 
HETATM   24  C   UNK N   1      33.773  17.511   5.965  0.00  0.00     0.023 A 
HETATM   25  C   UNK N   1      34.305  17.001   7.146  0.00  0.00     0.071 A 
HETATM   26  C   UNK N   1      34.748  15.654   7.180  0.00  0.00     0.087 A 
HETATM   27  C   UNK N   1      34.539  14.819   6.050  0.00  0.00     0.067 A 
BRANCH  25  28
HETATM   28  C   UNK N   1      34.350  17.901   8.327  0.00  0.00     0.178 C 
HETATM   29  O   UNK N   1      34.789  19.037   8.212  0.00  0.00    -0.646 OA
BRANCH  28  30
HETATM   30  O   UNK N   1      33.854  17.511   9.516  0.00  0.00    -0.773 OA
HETATM   31  H   UNK N   1      32.998  17.223   9.765  0.00  0.00     0.167 HD
ENDBRANCH  28  30
ENDBRANCH  25  28
BRANCH  26  32
HETATM   32  O   UNK N   1      35.326  15.170   8.306  0.00  0.00    -0.355 OA
HETATM   33  C   UNK N   1      34.842  14.087   9.003  0.00  0.00     0.210 C 
ENDBRANCH  26  32
ENDBRANCH  20  22
BRANCH   1  34
HETATM   34  C   UNK N   1      25.179  15.985   5.490  0.00  0.00     0.063 A 
HETATM   35  C   UNK N   1      24.544  15.016   6.355  0.00  0.00     0.131 A 
HETATM   36  C   UNK N   1      23.216  15.137   6.754  0.00  0.00     0.043 A 
HETATM   37  F   UNK N   1      25.198  13.934   6.846  0.00  0.00    -0.205 F 
HETATM   38  C   UNK N   1      22.442  16.196   6.341  0.00  0.00     0.006 A 
HETATM   39  C   UNK N   1      22.988  17.151   5.513  0.00  0.00     0.038 A 
HETATM   40  C   UNK N   1      24.320  17.085   5.066  0.00  0.00     0.083 A 
BRANCH  40  41
HETATM   41  O   UNK N   1      24.722  18.059   4.225  0.00  0.00    -0.355 OA
HETATM   42  C   UNK N   1      25.355  19.222   4.614  0.00  0.00     0.210 C 
ENDBRANCH  40  41
ENDBRANCH   1  34
TORSDOF 6
ENDMDL
MODEL 5
REMARK VINA RESULT:      -8.3      3.120      4.748
REMARK  6 active torsions:
REMARK  status: ('A' for Active; 'I' for Inactive)
REMARK    1  A    between atoms: O_2  and  C_3 
REMARK    2  A    between atoms: C_8  and  C_9 
REMARK       I    between atoms: C_17  and  N_28 
REMARK    3  A    between atoms: N_28  and  C_29 
REMARK    4  A    between atoms: C_32  and  C_37 
REMARK    5  A    between atoms: C_33  and  O_35 
REMARK    6  A    between atoms: C_37  and  O_39 
ROOT
HETATM    1  C   UNK N   1      27.813  17.454   5.543  0.00  0.00     0.055 A 
HETATM    2  N   UNK N   1      27.980  18.525   4.838  0.00  0.00    -0.384 N 
ATOM      3  HN  UNK N   1      28.966  18.784   4.870  1.00  0.00     0.160 HD
HETATM    4  C   UNK N   1      27.279  19.489   4.024  0.00  0.00     0.162 A 
HETATM    5  C   UNK N   1      25.819  19.463   3.810  0.00  0.00     0.004 A 
HETATM    6  C   UNK N   1      25.282  20.537   3.051  0.00  0.00     0.117 A 
HETATM    7  N   UNK N   1      23.942  20.619   2.768  0.00  0.00    -0.201 N 
ATOM      8  HN  UNK N   1      23.572  21.398   2.224  1.00  0.00     0.183 HD
HETATM    9  C   UNK N   1      23.122  19.647   3.224  0.00  0.00     0.683 A 
HETATM   10  N   UNK N   1      23.640  18.654   3.957  0.00  0.00    -0.190 N 
ATOM     11  HN  UNK N   1      22.988  17.954   4.311  1.00  0.00     0.184 HD
HETATM   12  C   UNK N   1      24.939  18.490   4.273  0.00  0.00     0.069 A 
HETATM   13  C   UNK N   1      25.207  17.272   5.087  0.00  0.00     0.004 A 
HETATM   14  C   UNK N   1      26.431  16.811   5.675  0.00  0.00     0.005 A 
HETATM   15  C   UNK N   1      26.322  15.665   6.468  0.00  0.00     0.038 A 
HETATM   16  C   UNK N   1      25.151  14.941   6.665  0.00  0.00     0.035 A 
HETATM   17  C   UNK N   1      23.996  15.356   6.062  0.00  0.00     0.025 A 
HETATM   18  C   UNK N   1      24.033  16.501   5.303  0.00  0.00     0.016 A 
HETATM   19 Cl   UNK N   1      25.138  13.508   7.667  0.00  0.00    -0.084 Cl
HETATM   20  N   UNK N   1      21.708  19.630   2.977  0.00  0.00    -0.192 N 
HETATM   21  H   UNK N   1      21.257  20.401   2.564  0.00  0.00     0.184 HD
ENDROOT
BRANCH  20  22
HETATM   22  C   UNK N   1      20.972  18.452   3.347  0.00  0.00     0.051 A 
HETATM   23  C   UNK N   1      20.619  17.519   2.361  0.00  0.00     0.031 A 
HETATM   24  C   UNK N   1      20.206  16.242   2.686  0.00  0.00     0.023 A 
HETATM   25  C   UNK N   1      20.096  15.851   4.017  0.00  0.00     0.071 A 
HETATM   26  C   UNK N   1      20.337  16.804   5.039  0.00  0.00     0.087 A 
HETATM   27  C   UNK N   1      20.792  18.105   4.692  0.00  0.00     0.067 A 
BRANCH  25  28
HETATM   28  C   UNK N   1      19.761  14.430   4.293  0.00  0.00     0.178 C 
HETATM   29  O   UNK N   1      20.516  13.542   3.922  0.00  0.00    -0.646 OA
BRANCH  28  30
HETATM   30  O   UNK N   1      18.666  14.101   5.003  0.00  0.00    -0.773 OA
HETATM   31  H   UNK N   1      18.143  14.600   5.599  0.00  0.00     0.167 HD
ENDBRANCH  28  30
ENDBRANCH  25  28
BRANCH  26  32
HETATM   32  O   UNK N   1      20.169  16.448   6.336  0.00  0.00    -0.355 OA
HETATM   33  C   UNK N   1      20.735  17.129   7.390  0.00  0.00     0.210 C 
ENDBRANCH  26  32
ENDBRANCH  20  22
BRANCH   1  34
HETATM   34  C   UNK N   1      29.150  16.929   6.196  0.00  0.00     0.063 A 
HETATM   35  C   UNK N   1      29.827  15.860   5.498  0.00  0.00     0.131 A 
HETATM   36  C   UNK N   1      31.011  15.300   5.969  0.00  0.00     0.043 A 
HETATM   37  F   UNK N   1      29.365  15.339   4.334  0.00  0.00    -0.205 F 
HETATM   38  C   UNK N   1      31.596  15.745   7.131  0.00  0.00     0.006 A 
HETATM   39  C   UNK N   1      30.998  16.759   7.845  0.00  0.00     0.038 A 
HETATM   40  C   UNK N   1      29.797  17.363   7.430  0.00  0.00     0.083 A 
BRANCH  40  41
HETATM   41  O   UNK N   1      29.292  18.316   8.238  0.00  0.00    -0.355 OA
HETATM   42  C   UNK N   1      28.225  18.135   9.094  0.00  0.00     0.210 C 
ENDBRANCH  40  41
ENDBRANCH   1  34
TORSDOF 6
ENDMDL
MODEL 6
REMARK VINA RESULT:      -8.1      2.074      2.670
REMARK  6 active torsions:
REMARK  status: ('A' for Active; 'I' for Inactive)
REMARK    1  A    between atoms: O_2  and  C_3 
REMARK    2  A    between atoms: C_8  and  C_9 
REMARK       I    between atoms: C_17  and  N_28 
REMARK    3  A    between atoms: N_28  and  C_29 
REMARK    4  A    between atoms: C_32  and  C_37 
REMARK    5  A    between atoms: C_33  and  O_35 
REMARK    6  A    between atoms: C_37  and  O_39 
ROOT
HETATM    1  C   UNK N   1      28.646  16.064   4.718  0.00  0.00     0.055 A 
HETATM    2  N   UNK N   1      28.490  14.817   5.024  0.00  0.00    -0.384 N 
ATOM      3  HN  UNK N   1      29.406  14.414   5.219  1.00  0.00     0.160 HD
HETATM    4  C   UNK N   1      27.491  13.788   5.189  0.00  0.00     0.162 A 
HETATM    5  C   UNK N   1      26.054  14.000   4.925  0.00  0.00     0.004 A 
HETATM    6  C   UNK N   1      25.222  12.857   5.056  0.00  0.00     0.117 A 
HETATM    7  N   UNK N   1      23.867  12.926   4.853  0.00  0.00    -0.201 N 
ATOM      8  HN  UNK N   1      23.285  12.095   4.948  1.00  0.00     0.183 HD
HETATM    9  C   UNK N   1      23.320  14.117   4.525  0.00  0.00     0.683 A 
HETATM   10  N   UNK N   1      24.121  15.179   4.384  0.00  0.00    -0.190 N 
ATOM     11  HN  UNK N   1      23.679  16.056   4.105  1.00  0.00     0.184 HD
HETATM   12  C   UNK N   1      25.454  15.205   4.572  0.00  0.00     0.069 A 
HETATM   13  C   UNK N   1      26.064  16.546   4.357  0.00  0.00     0.004 A 
HETATM   14  C   UNK N   1      27.441  16.945   4.384  0.00  0.00     0.005 A 
HETATM   15  C   UNK N   1      27.687  18.278   4.043  0.00  0.00     0.038 A 
HETATM   16  C   UNK N   1      26.706  19.219   3.748  0.00  0.00     0.035 A 
HETATM   17  C   UNK N   1      25.390  18.847   3.772  0.00  0.00     0.025 A 
HETATM   18  C   UNK N   1      25.089  17.538   4.060  0.00  0.00     0.016 A 
HETATM   19 Cl   UNK N   1      27.132  20.868   3.352  0.00  0.00    -0.084 Cl
HETATM   20  N   UNK N   1      21.915  14.303   4.302  0.00  0.00    -0.192 N 
HETATM   21  H   UNK N   1      21.303  13.532   4.258  0.00  0.00     0.184 HD
ENDROOT
BRANCH  20  22
HETATM   22  C   UNK N   1      21.427  15.645   4.146  0.00  0.00     0.051 A 
HETATM   23  C   UNK N   1      21.606  16.570   5.186  0.00  0.00     0.031 A 
HETATM   24  C   UNK N   1      21.456  17.928   4.983  0.00  0.00     0.023 A 
HETATM   25  C   UNK N   1      21.088  18.420   3.735  0.00  0.00     0.071 A 
HETATM   26  C   UNK N   1      20.790  17.506   2.692  0.00  0.00     0.087 A 
HETATM   27  C   UNK N   1      20.979  16.114   2.905  0.00  0.00     0.067 A 
BRANCH  25  28
HETATM   28  C   UNK N   1      21.060  19.895   3.556  0.00  0.00     0.178 C 
HETATM   29  O   UNK N   1      20.062  20.528   3.870  0.00  0.00    -0.646 OA
BRANCH  28  30
HETATM   30  O   UNK N   1      22.141  20.560   3.110  0.00  0.00    -0.773 OA
HETATM   31  H   UNK N   1      22.567  21.332   3.427  0.00  0.00     0.167 HD
ENDBRANCH  28  30
ENDBRANCH  25  28
BRANCH  26  32
HETATM   32  O   UNK N   1      20.369  17.976   1.492  0.00  0.00    -0.355 OA
HETATM   33  C   UNK N   1      20.028  17.163   0.436  0.00  0.00     0.210 C 
ENDBRANCH  26  32
ENDBRANCH  20  22
BRANCH   1  34
HETATM   34  C   UNK N   1      30.155  16.522   4.744  0.00  0.00     0.063 A 
HETATM   35  C   UNK N   1      30.791  16.707   3.459  0.00  0.00     0.131 A 
HETATM   36  C   UNK N   1      32.120  17.102   3.340  0.00  0.00     0.043 A 
HETATM   37  F   UNK N   1      30.136  16.521   2.286  0.00  0.00    -0.205 F 
HETATM   38  C   UNK N   1      32.895  17.339   4.451  0.00  0.00     0.006 A 
HETATM   39  C   UNK N   1      32.349  17.177   5.704  0.00  0.00     0.038 A 
HETATM   40  C   UNK N   1      31.016  16.773   5.896  0.00  0.00     0.083 A 
BRANCH  40  41
HETATM   41  O   UNK N   1      30.613  16.610   7.172  0.00  0.00    -0.355 OA
HETATM   42  C   UNK N   1      30.499  17.628   8.096  0.00  0.00     0.210 C 
ENDBRANCH  40  41
ENDBRANCH   1  34
TORSDOF 6
ENDMDL
MODEL 7
REMARK VINA RESULT:      -7.7     10.024     14.507
REMARK  6 active torsions:
REMARK  status: ('A' for Active; 'I' for Inactive)
REMARK    1  A    between atoms: O_2  and  C_3 
REMARK    2  A    between atoms: C_8  and  C_9 
REMARK       I    between atoms: C_17  and  N_28 
REMARK    3  A    between atoms: N_28  and  C_29 
REMARK    4  A    between atoms: C_32  and  C_37 
REMARK    5  A    between atoms: C_33  and  O_35 
REMARK    6  A    between atoms: C_37  and  O_39 
ROOT
HETATM    1  C   UNK N   1      35.652  10.456  15.030  0.00  0.00     0.055 A 
HETATM    2  N   UNK N   1      35.098   9.450  14.436  0.00  0.00    -0.384 N 
ATOM      3  HN  UNK N   1      35.124   8.647  15.065  1.00  0.00     0.160 HD
HETATM    4  C   UNK N   1      34.456   9.049  13.207  0.00  0.00     0.162 A 
HETATM    5  C   UNK N   1      34.300   9.943  12.042  0.00  0.00     0.004 A 
HETATM    6  C   UNK N   1      33.722   9.360  10.883  0.00  0.00     0.117 A 
HETATM    7  N   UNK N   1      33.509  10.089   9.741  0.00  0.00    -0.201 N 
ATOM      8  HN  UNK N   1      33.095   9.654   8.917  1.00  0.00     0.183 HD
HETATM    9  C   UNK N   1      33.858  11.394   9.729  0.00  0.00     0.683 A 
HETATM   10  N   UNK N   1      34.423  11.922  10.822  0.00  0.00    -0.190 N 
ATOM     11  HN  UNK N   1      34.703  12.902  10.768  1.00  0.00     0.184 HD
HETATM   12  C   UNK N   1      34.659  11.286  11.985  0.00  0.00     0.069 A 
HETATM   13  C   UNK N   1      35.283  12.151  13.024  0.00  0.00     0.004 A 
HETATM   14  C   UNK N   1      35.750  11.817  14.339  0.00  0.00     0.005 A 
HETATM   15  C   UNK N   1      36.379  12.854  15.033  0.00  0.00     0.038 A 
HETATM   16  C   UNK N   1      36.521  14.156  14.565  0.00  0.00     0.035 A 
HETATM   17  C   UNK N   1      36.030  14.483  13.331  0.00  0.00     0.025 A 
HETATM   18  C   UNK N   1      35.438  13.493  12.583  0.00  0.00     0.016 A 
HETATM   19 Cl   UNK N   1      37.313  15.379  15.533  0.00  0.00    -0.084 Cl
HETATM   20  N   UNK N   1      33.669  12.249   8.593  0.00  0.00    -0.192 N 
HETATM   21  H   UNK N   1      33.387  11.881   7.724  0.00  0.00     0.184 HD
ENDROOT
BRANCH  20  22
HETATM   22  C   UNK N   1      33.902  13.657   8.760  0.00  0.00     0.051 A 
HETATM   23  C   UNK N   1      35.205  14.162   8.633  0.00  0.00     0.031 A 
HETATM   24  C   UNK N   1      35.447  15.511   8.465  0.00  0.00     0.023 A 
HETATM   25  C   UNK N   1      34.395  16.422   8.448  0.00  0.00     0.071 A 
HETATM   26  C   UNK N   1      33.076  15.959   8.686  0.00  0.00     0.087 A 
HETATM   27  C   UNK N   1      32.837  14.565   8.826  0.00  0.00     0.067 A 
BRANCH  25  28
HETATM   28  C   UNK N   1      34.716  17.840   8.145  0.00  0.00     0.178 C 
HETATM   29  O   UNK N   1      34.436  18.308   7.049  0.00  0.00    -0.646 OA
BRANCH  28  30
HETATM   30  O   UNK N   1      35.254  18.644   9.080  0.00  0.00    -0.773 OA
HETATM   31  H   UNK N   1      35.558  19.529   9.034  0.00  0.00     0.167 HD
ENDBRANCH  28  30
ENDBRANCH  25  28
BRANCH  26  32
HETATM   32  O   UNK N   1      32.055  16.848   8.735  0.00  0.00    -0.355 OA
HETATM   33  C   UNK N   1      30.957  16.791   7.906  0.00  0.00     0.210 C 
ENDBRANCH  26  32
ENDBRANCH  20  22
BRANCH   1  34
HETATM   34  C   UNK N   1      36.170  10.110  16.479  0.00  0.00     0.063 A 
HETATM   35  C   UNK N   1      35.616  10.892  17.561  0.00  0.00     0.131 A 
HETATM   36  C   UNK N   1      35.992  10.695  18.887  0.00  0.00     0.043 A 
HETATM   37  F   UNK N   1      34.686  11.860  17.363  0.00  0.00    -0.205 F 
HETATM   38  C   UNK N   1      36.915   9.735  19.230  0.00  0.00     0.006 A 
HETATM   39  C   UNK N   1      37.482   8.959  18.245  0.00  0.00     0.038 A 
HETATM   40  C   UNK N   1      37.154   9.111  16.885  0.00  0.00     0.083 A 
BRANCH  40  41
HETATM   41  O   UNK N   1      37.810   8.319  16.014  0.00  0.00    -0.355 OA
HETATM   42  C   UNK N   1      38.668   7.300  16.371  0.00  0.00     0.210 C 
ENDBRANCH  40  41
ENDBRANCH   1  34
TORSDOF 6
ENDMDL
MODEL 8
REMARK VINA RESULT:      -7.6      2.796      3.862
REMARK  6 active torsions:
REMARK  status: ('A' for Active; 'I' for Inactive)
REMARK    1  A    between atoms: O_2  and  C_3 
REMARK    2  A    between atoms: C_8  and  C_9 
REMARK       I    between atoms: C_17  and  N_28 
REMARK    3  A    between atoms: N_28  and  C_29 
REMARK    4  A    between atoms: C_32  and  C_37 
REMARK    5  A    between atoms: C_33  and  O_35 
REMARK    6  A    between atoms: C_37  and  O_39 
ROOT
HETATM    1  C   UNK N   1      30.061  15.887   5.664  0.00  0.00     0.055 A 
HETATM    2  N   UNK N   1      30.229  14.628   5.421  0.00  0.00    -0.384 N 
ATOM      3  HN  UNK N   1      31.201  14.388   5.614  1.00  0.00     0.160 HD
HETATM    4  C   UNK N   1      29.542  13.439   4.976  0.00  0.00     0.162 A 
HETATM    5  C   UNK N   1      28.130  13.430   4.546  0.00  0.00     0.004 A 
HETATM    6  C   UNK N   1      27.637  12.191   4.056  0.00  0.00     0.117 A 
HETATM    7  N   UNK N   1      26.337  12.048   3.641  0.00  0.00    -0.201 N 
ATOM      8  HN  UNK N   1      26.000  11.152   3.290  1.00  0.00     0.183 HD
HETATM    9  C   UNK N   1      25.513  13.116   3.708  0.00  0.00     0.683 A 
HETATM   10  N   UNK N   1      25.999  14.281   4.150  0.00  0.00    -0.190 N 
ATOM     11  HN  UNK N   1      25.358  15.075   4.158  1.00  0.00     0.184 HD
HETATM   12  C   UNK N   1      27.253  14.509   4.586  0.00  0.00     0.069 A 
HETATM   13  C   UNK N   1      27.486  15.910   5.034  0.00  0.00     0.004 A 
HETATM   14  C   UNK N   1      28.693  16.545   5.479  0.00  0.00     0.005 A 
HETATM   15  C   UNK N   1      28.589  17.913   5.741  0.00  0.00     0.038 A 
HETATM   16  C   UNK N   1      27.416  18.655   5.656  0.00  0.00     0.035 A 
HETATM   17  C   UNK N   1      26.256  18.035   5.280  0.00  0.00     0.025 A 
HETATM   18  C   UNK N   1      26.304  16.698   4.968  0.00  0.00     0.016 A 
HETATM   19 Cl   UNK N   1      27.403  20.364   6.028  0.00  0.00    -0.084 Cl
HETATM   20  N   UNK N   1      24.134  13.072   3.311  0.00  0.00    -0.192 N 
HETATM   21  H   UNK N   1      23.765  12.283   2.852  0.00  0.00     0.184 HD
ENDROOT
BRANCH  20  22
HETATM   22  C   UNK N   1      23.311  14.213   3.604  0.00  0.00     0.051 A 
HETATM   23  C   UNK N   1      22.982  15.109   2.576  0.00  0.00     0.031 A 
HETATM   24  C   UNK N   1      21.957  16.024   2.712  0.00  0.00     0.023 A 
HETATM   25  C   UNK N   1      21.232  16.103   3.897  0.00  0.00     0.071 A 
HETATM   26  C   UNK N   1      21.611  15.289   4.995  0.00  0.00     0.087 A 
HETATM   27  C   UNK N   1      22.647  14.331   4.832  0.00  0.00     0.067 A 
BRANCH  25  28
HETATM   28  C   UNK N   1      20.068  17.026   3.933  0.00  0.00     0.178 C 
HETATM   29  O   UNK N   1      20.195  18.183   3.557  0.00  0.00    -0.646 OA
BRANCH  28  30
HETATM   30  O   UNK N   1      18.852  16.593   4.315  0.00  0.00    -0.773 OA
HETATM   31  H   UNK N   1      18.440  15.756   4.234  0.00  0.00     0.167 HD
ENDBRANCH  28  30
ENDBRANCH  25  28
BRANCH  26  32
HETATM   32  O   UNK N   1      20.951  15.408   6.173  0.00  0.00    -0.355 OA
HETATM   33  C   UNK N   1      21.475  16.041   7.276  0.00  0.00     0.210 C 
ENDBRANCH  26  32
ENDBRANCH  20  22
BRANCH   1  34
HETATM   34  C   UNK N   1      31.378  16.603   6.157  0.00  0.00     0.063 A 
HETATM   35  C   UNK N   1      31.359  17.118   7.507  0.00  0.00     0.131 A 
HETATM   36  C   UNK N   1      32.451  17.778   8.064  0.00  0.00     0.043 A 
HETATM   37  F   UNK N   1      30.286  16.985   8.326  0.00  0.00    -0.205 F 
HETATM   38  C   UNK N   1      33.609  17.968   7.347  0.00  0.00     0.006 A 
HETATM   39  C   UNK N   1      33.689  17.504   6.053  0.00  0.00     0.038 A 
HETATM   40  C   UNK N   1      32.620  16.836   5.427  0.00  0.00     0.083 A 
BRANCH  40  41
HETATM   41  O   UNK N   1      32.808  16.468   4.145  0.00  0.00    -0.355 OA
HETATM   42  C   UNK N   1      32.224  17.082   3.057  0.00  0.00     0.210 C 
ENDBRANCH  40  41
ENDBRANCH   1  34
TORSDOF 6
ENDMDL
MODEL 9
REMARK VINA RESULT:      -7.4      8.231     11.991
REMARK  6 active torsions:
REMARK  status: ('A' for Active; 'I' for Inactive)
REMARK    1  A    between atoms: O_2  and  C_3 
REMARK    2  A    between atoms: C_8  and  C_9 
REMARK       I    between atoms: C_17  and  N_28 
REMARK    3  A    between atoms: N_28  and  C_29 
REMARK    4  A    between atoms: C_32  and  C_37 
REMARK    5  A    between atoms: C_33  and  O_35 
REMARK    6  A    between atoms: C_37  and  O_39 
ROOT
HETATM    1  C   UNK N   1      35.567  11.955  11.311  0.00  0.00     0.055 A 
HETATM    2  N   UNK N   1      36.094  12.997  11.866  0.00  0.00    -0.384 N 
ATOM      3  HN  UNK N   1      36.670  12.691  12.650  1.00  0.00     0.160 HD
HETATM    4  C   UNK N   1      36.164  14.437  11.779  0.00  0.00     0.162 A 
HETATM    5  C   UNK N   1      35.400  15.230  10.796  0.00  0.00     0.004 A 
HETATM    6  C   UNK N   1      35.520  16.641  10.907  0.00  0.00     0.117 A 
HETATM    7  N   UNK N   1      34.873  17.488  10.044  0.00  0.00    -0.201 N 
ATOM      8  HN  UNK N   1      34.968  18.499  10.139  1.00  0.00     0.183 HD
HETATM    9  C   UNK N   1      34.108  16.957   9.065  0.00  0.00     0.683 A 
HETATM   10  N   UNK N   1      33.987  15.626   8.989  0.00  0.00    -0.190 N 
ATOM     11  HN  UNK N   1      33.377  15.261   8.257  1.00  0.00     0.184 HD
HETATM   12  C   UNK N   1      34.592  14.723   9.784  0.00  0.00     0.069 A 
HETATM   13  C   UNK N   1      34.274  13.311   9.435  0.00  0.00     0.004 A 
HETATM   14  C   UNK N   1      34.655  12.093  10.091  0.00  0.00     0.005 A 
HETATM   15  C   UNK N   1      34.105  10.926   9.555  0.00  0.00     0.038 A 
HETATM   16  C   UNK N   1      33.287  10.872   8.432  0.00  0.00     0.035 A 
HETATM   17  C   UNK N   1      32.966  12.030   7.780  0.00  0.00     0.025 A 
HETATM   18  C   UNK N   1      33.444  13.216   8.284  0.00  0.00     0.016 A 
HETATM   19 Cl   UNK N   1      32.670   9.346   7.841  0.00  0.00    -0.084 Cl
HETATM   20  N   UNK N   1      33.398  17.751   8.103  0.00  0.00    -0.192 N 
HETATM   21  H   UNK N   1      33.341  18.729   8.197  0.00  0.00     0.184 HD
ENDROOT
BRANCH  20  22
HETATM   22  C   UNK N   1      32.774  17.075   6.999  0.00  0.00     0.051 A 
HETATM   23  C   UNK N   1      31.430  16.684   7.099  0.00  0.00     0.031 A 
HETATM   24  C   UNK N   1      30.693  16.330   5.986  0.00  0.00     0.023 A 
HETATM   25  C   UNK N   1      31.277  16.323   4.723  0.00  0.00     0.071 A 
HETATM   26  C   UNK N   1      32.662  16.605   4.601  0.00  0.00     0.087 A 
HETATM   27  C   UNK N   1      33.401  16.997   5.749  0.00  0.00     0.067 A 
BRANCH  25  28
HETATM   28  C   UNK N   1      30.398  16.048   3.558  0.00  0.00     0.178 C 
HETATM   29  O   UNK N   1      29.673  15.062   3.560  0.00  0.00    -0.646 OA
BRANCH  28  30
HETATM   30  O   UNK N   1      30.334  16.902   2.520  0.00  0.00    -0.773 OA
HETATM   31  H   UNK N   1      30.579  16.803   1.622  0.00  0.00     0.167 HD
ENDBRANCH  28  30
ENDBRANCH  25  28
BRANCH  26  32
HETATM   32  O   UNK N   1      33.252  16.536   3.382  0.00  0.00    -0.355 OA
HETATM   33  C   UNK N   1      33.783  15.379   2.860  0.00  0.00     0.210 C 
ENDBRANCH  26  32
ENDBRANCH  20  22
BRANCH   1  34
HETATM   34  C   UNK N   1      35.977  10.605  12.017  0.00  0.00     0.063 A 
HETATM   35  C   UNK N   1      37.272  10.067  11.666  0.00  0.00     0.131 A 
HETATM   36  C   UNK N   1      37.754   8.880  12.210  0.00  0.00     0.043 A 
HETATM   37  F   UNK N   1      38.110  10.686  10.797  0.00  0.00    -0.205 F 
HETATM   38  C   UNK N   1      37.011   8.159  13.116  0.00  0.00     0.006 A 
HETATM   39  C   UNK N   1      35.768   8.616  13.488  0.00  0.00     0.038 A 
HETATM   40  C   UNK N   1      35.218   9.804  12.972  0.00  0.00     0.083 A 
BRANCH  40  41
HETATM   41  O   UNK N   1      33.975  10.121  13.383  0.00  0.00    -0.355 OA
HETATM   42  C   UNK N   1      33.679  10.773  14.563  0.00  0.00     0.210 C 
ENDBRANCH  40  41
ENDBRANCH   1  34
TORSDOF 6
ENDMDL
