REMARK  6 active torsions:
REMARK  status: ('A' for Active; 'I' for Inactive)
REMARK    1  A    between atoms: C_6  and  C_5 
REMARK    2  A    between atoms: C_14  and  C_6 
REMARK    3  A    between atoms: C_20  and  C_11 
REMARK    4  A    between atoms: O_21  and  C_11 
REMARK    5  A    between atoms: C_15  and  O_22 
REMARK    6  A    between atoms: C_17  and  O_23 
ROOT
HETATM    1  C   UNK N   1      -0.894   0.756  -0.495  0.00  0.00     0.015 C 
HETATM    2  C   UNK N   1       2.529   1.229  -1.547  0.00  0.00     0.016 C 
HETATM    3  C   UNK N   1       4.381  -1.107  -2.133  0.00  0.00     0.020 C 
HETATM    4  C   UNK N   1       0.388  -1.293  -0.131  0.00  0.00     0.034 C 
HETATM    5  C   UNK N   1       1.743  -1.606  -0.773  0.00  0.00     0.010 C 
HETATM    6  C   UNK N   1       5.156   1.040  -0.066  0.00  0.00     0.033 C 
HETATM    7  C   UNK N   1       3.820   1.409   0.576  0.00  0.00     0.012 C 
HETATM    8  C   UNK N   1       0.198   0.189   0.012  0.00  0.00    -0.084 C 
HETATM    9  C   UNK N   1       1.326   0.971   0.665  0.00  0.00     0.025 C 
HETATM   10  C   UNK N   1       2.902  -0.855  -0.075  0.00  0.00     0.007 C 
HETATM   11  C   UNK N   1       5.409  -0.458   0.089  0.00  0.00     0.128 C 
HETATM   12  C   UNK N   1       2.647   0.697  -0.114  0.00  0.00    -0.032 C 
HETATM   13  C   UNK N   1       4.300  -1.293  -0.617  0.00  0.00     0.008 C 
ENDROOT
BRANCH   9  14
HETATM   14  C   UNK N   1       1.099   2.451   1.065  0.00  0.00     0.037 C 
BRANCH  14  15
HETATM   15  C   UNK N   1       0.296   3.440   0.268  0.00  0.00    -0.010 C 
HETATM   16  C   UNK N   1       0.835   4.605  -0.133  0.00  0.00     0.044 A 
HETATM   17  C   UNK N   1       2.256   5.032   0.005  0.00  0.00     0.181 A 
HETATM   18  C   UNK N   1       0.116   5.690  -0.737  0.00  0.00     0.291 A 
HETATM   19  C   UNK N   1       2.223   6.482  -0.558  0.00  0.00     0.215 A 
HETATM   20  O   UNK N   1       0.920   6.731  -0.962  0.00  0.00    -0.315 OA
HETATM   21  O   UNK N   1      -1.081   5.708  -0.964  0.00  0.00    -0.260 OA
BRANCH  17  22
HETATM   22  O   UNK N   1       3.080   4.236  -0.790  0.00  0.00    -0.389 OA
HETATM   23  H   UNK N   1       2.887   3.463  -1.343  0.00  0.00     0.210 HD
ENDBRANCH  17  22
ENDBRANCH  14  15
ENDBRANCH   9  14
BRANCH  13  24
HETATM   24  C   UNK N   1       4.485  -2.790  -0.295  0.00  0.00     0.176 C 
BRANCH  24  25
HETATM   25  O   UNK N   1       5.726  -3.276  -0.713  0.00  0.00    -0.400 OA
HETATM   26  H   UNK N   1       5.864  -4.191  -1.004  0.00  0.00     0.209 HD
ENDBRANCH  24  25
ENDBRANCH  13  24
BRANCH  11  27
HETATM   27  O   UNK N   1       6.672  -0.753  -0.431  0.00  0.00    -0.395 OA
HETATM   28  H   UNK N   1       6.932  -1.614  -0.793  0.00  0.00     0.210 HD
ENDBRANCH  11  27
TORSDOF 6
