MODEL 1
REMARK VINA RESULT:      -8.9      0.000      0.000
REMARK  10 active torsions:
REMARK  status: ('A' for Active; 'I' for Inactive)
REMARK    1  A    between atoms: C_16  and  O_1 
REMARK    2  A    between atoms: C_20  and  O_1 
REMARK    3  A    between atoms: C_15  and  O_4 
REMARK    4  A    between atoms: C_18  and  O_5 
REMARK    5  A    between atoms: O_5  and  C_28 
REMARK    6  A    between atoms: C_17  and  O_6 
REMARK    7  A    between atoms: C_22  and  O_7 
REMARK    8  A    between atoms: C_23  and  O_8 
REMARK    9  A    between atoms: O_11  and  C_36 
REMARK   10  A    between atoms: C_21  and  N_14 
ROOT
HETATM    1  O   UNK N   1      28.344  17.677   7.761  0.00  0.00    -0.351 OA
HETATM    2  C   UNK N   1      30.770  16.549   6.748  0.00  0.00     0.113 C 
HETATM    3  C   UNK N   1      29.437  16.509   5.936  0.00  0.00     0.216 C 
HETATM    4  C   UNK N   1      30.494  16.826   8.236  0.00  0.00     0.183 C 
HETATM    5  C   UNK N   1      28.554  17.708   6.370  0.00  0.00     0.298 C 
HETATM    6  C   UNK N   1      29.561  18.027   8.358  0.00  0.00     0.152 C 
HETATM    7  C   UNK N   1      31.483  15.210   6.692  0.00  0.00     0.051 C 
HETATM    8  C   UNK N   1      29.313  18.378   9.812  0.00  0.00     0.042 C 
ENDROOT
BRANCH   5   9
HETATM    9  O   UNK N   1      27.358  17.658   5.661  0.00  0.00    -0.317 OA
BRANCH   9  10
HETATM   10  C   UNK N   1      26.825  18.593   4.827  0.00  0.00     0.086 A 
HETATM   11  C   UNK N   1      25.437  18.557   4.531  0.00  0.00     0.045 A 
HETATM   12  C   UNK N   1      24.876  19.569   3.705  0.00  0.00     0.014 A 
HETATM   13  C   UNK N   1      24.589  17.556   5.062  0.00  0.00     0.105 A 
HETATM   14  C   UNK N   1      23.495  19.593   3.438  0.00  0.00     0.094 A 
HETATM   15  C   UNK N   1      25.704  20.563   3.165  0.00  0.00     0.015 A 
HETATM   16  C   UNK N   1      22.649  18.608   3.997  0.00  0.00     0.087 A 
HETATM   17  C   UNK N   1      23.210  17.599   4.798  0.00  0.00     0.032 A 
HETATM   18  C   UNK N   1      21.245  18.588   3.790  0.00  0.00     0.302 A 
HETATM   19  C   UNK N   1      22.386  16.621   5.360  0.00  0.00     0.029 A 
HETATM   20  C   UNK N   1      22.938  15.597   6.155  0.00  0.00     0.059 A 
HETATM   21  C   UNK N   1      21.004  16.677   5.115  0.00  0.00     0.091 A 
HETATM   22  C   UNK N   1      24.341  15.604   6.343  0.00  0.00     0.300 A 
HETATM   23  C   UNK N   1      22.068  14.624   6.718  0.00  0.00    -0.045 A 
HETATM   24  O   UNK N   1      25.086  16.570   5.810  0.00  0.00    -0.273 OA
HETATM   25  O   UNK N   1      24.890  14.730   6.989  0.00  0.00    -0.259 OA
HETATM   26  C   UNK N   1      20.693  14.701   6.473  0.00  0.00     0.011 A 
HETATM   27  C   UNK N   1      22.554  13.509   7.586  0.00  0.00     0.049 C 
HETATM   28  C   UNK N   1      20.163  15.716   5.675  0.00  0.00     0.039 A 
HETATM   29  O   UNK N   1      20.495  17.640   4.353  0.00  0.00    -0.274 OA
HETATM   30  O   UNK N   1      20.703  19.437   3.105  0.00  0.00    -0.259 OA
HETATM   31  C   UNK N   1      27.068  20.575   3.438  0.00  0.00     0.004 A 
HETATM   32  C   UNK N   1      27.623  19.605   4.268  0.00  0.00     0.038 A 
BRANCH  14  33
HETATM   33  O   UNK N   1      22.989  20.569   2.657  0.00  0.00    -0.359 OA
HETATM   34  H   UNK N   1      22.142  20.938   2.816  0.00  0.00     0.217 HD
ENDBRANCH  14  33
ENDBRANCH   9  10
ENDBRANCH   5   9
BRANCH   3  35
HETATM   35  O   UNK N   1      29.573  16.629   4.527  0.00  0.00    -0.346 OA
BRANCH  35  36
HETATM   36  C   UNK N   1      29.108  15.538   3.765  0.00  0.00     0.285 C 
HETATM   37  O   UNK N   1      27.708  15.316   3.805  0.00  0.00    -0.352 OA
HETATM   38  C   UNK N   1      27.271  15.192   2.475  0.00  0.00     0.152 C 
HETATM   39  C   UNK N   1      27.780  13.895   1.811  0.00  0.00     0.177 C 
HETATM   40  C   UNK N   1      25.778  15.423   2.338  0.00  0.00     0.042 C 
HETATM   41  C   UNK N   1      29.193  13.524   2.329  0.00  0.00     0.178 C 
HETATM   42  C   UNK N   1      29.953  14.813   2.688  0.00  0.00     0.161 C 
BRANCH  39  43
HETATM   43  O   UNK N   1      26.895  12.829   2.002  0.00  0.00    -0.390 OA
HETATM   44  H   UNK N   1      26.102  12.823   2.561  0.00  0.00     0.210 HD
ENDBRANCH  39  43
BRANCH  41  45
HETATM   45  O   UNK N   1      29.091  12.715   3.473  0.00  0.00    -0.386 OA
HETATM   46  C   UNK N   1      29.702  11.509   3.128  0.00  0.00     0.202 C 
ENDBRANCH  41  45
BRANCH  42  47
HETATM   47  N   UNK N   1      31.287  14.506   3.172  0.00  0.00    -0.420 N 
HETATM   48  H   UNK N   1      31.702  15.031   3.941  0.00  0.00     0.150 HD
HETATM   49  H   UNK N   1      31.817  13.752   2.737  0.00  0.00     0.150 HD
ENDBRANCH  42  47
ENDBRANCH  35  36
ENDBRANCH   3  35
BRANCH   2  50
HETATM   50  O   UNK N   1      31.599  17.553   6.237  0.00  0.00    -0.385 OA
HETATM   51  H   UNK N   1      32.475  17.810   5.907  0.00  0.00     0.210 HD
ENDBRANCH   2  50
BRANCH   4  52
HETATM   52  O   UNK N   1      31.692  17.049   8.923  0.00  0.00    -0.390 OA
HETATM   53  H   UNK N   1      31.745  16.883   9.877  0.00  0.00     0.210 HD
ENDBRANCH   4  52
TORSDOF 10
ENDMDL
MODEL 2
REMARK VINA RESULT:      -8.7      2.725      6.152
REMARK  10 active torsions:
REMARK  status: ('A' for Active; 'I' for Inactive)
REMARK    1  A    between atoms: C_16  and  O_1 
REMARK    2  A    between atoms: C_20  and  O_1 
REMARK    3  A    between atoms: C_15  and  O_4 
REMARK    4  A    between atoms: C_18  and  O_5 
REMARK    5  A    between atoms: O_5  and  C_28 
REMARK    6  A    between atoms: C_17  and  O_6 
REMARK    7  A    between atoms: C_22  and  O_7 
REMARK    8  A    between atoms: C_23  and  O_8 
REMARK    9  A    between atoms: O_11  and  C_36 
REMARK   10  A    between atoms: C_21  and  N_14 
ROOT
HETATM    1  O   UNK N   1      21.475  14.044   7.646  0.00  0.00    -0.351 OA
HETATM    2  C   UNK N   1      23.471  12.057   8.149  0.00  0.00     0.113 C 
HETATM    3  C   UNK N   1      23.333  12.758   6.761  0.00  0.00     0.216 C 
HETATM    4  C   UNK N   1      22.184  12.228   8.976  0.00  0.00     0.183 C 
HETATM    5  C   UNK N   1      22.704  14.161   6.972  0.00  0.00     0.298 C 
HETATM    6  C   UNK N   1      21.775  13.697   8.969  0.00  0.00     0.152 C 
HETATM    7  C   UNK N   1      23.674  10.561   7.986  0.00  0.00     0.051 C 
HETATM    8  C   UNK N   1      20.545  13.923   9.828  0.00  0.00     0.042 C 
ENDROOT
BRANCH   5   9
HETATM    9  O   UNK N   1      22.564  14.775   5.732  0.00  0.00    -0.317 OA
BRANCH   9  10
HETATM   10  C   UNK N   1      21.508  15.488   5.251  0.00  0.00     0.086 A 
HETATM   11  C   UNK N   1      21.733  16.757   4.655  0.00  0.00     0.045 A 
HETATM   12  C   UNK N   1      20.633  17.470   4.104  0.00  0.00     0.014 A 
HETATM   13  C   UNK N   1      23.029  17.318   4.568  0.00  0.00     0.105 A 
HETATM   14  C   UNK N   1      20.831  18.704   3.458  0.00  0.00     0.094 A 
HETATM   15  C   UNK N   1      19.342  16.931   4.191  0.00  0.00     0.015 A 
HETATM   16  C   UNK N   1      22.132  19.244   3.346  0.00  0.00     0.087 A 
HETATM   17  C   UNK N   1      23.214  18.544   3.908  0.00  0.00     0.032 A 
HETATM   18  C   UNK N   1      22.406  20.469   2.685  0.00  0.00     0.302 A 
HETATM   19  C   UNK N   1      24.506  19.064   3.803  0.00  0.00     0.029 A 
HETATM   20  C   UNK N   1      25.597  18.378   4.372  0.00  0.00     0.059 A 
HETATM   21  C   UNK N   1      24.695  20.279   3.124  0.00  0.00     0.091 A 
HETATM   22  C   UNK N   1      25.321  17.167   5.051  0.00  0.00     0.300 A 
HETATM   23  C   UNK N   1      26.899  18.932   4.238  0.00  0.00    -0.045 A 
HETATM   24  O   UNK N   1      24.078  16.695   5.106  0.00  0.00    -0.273 OA
HETATM   25  O   UNK N   1      26.210  16.540   5.598  0.00  0.00    -0.259 OA
HETATM   26  C   UNK N   1      27.071  20.138   3.548  0.00  0.00     0.011 A 
HETATM   27  C   UNK N   1      28.121  18.275   4.793  0.00  0.00     0.049 C 
HETATM   28  C   UNK N   1      25.978  20.809   2.998  0.00  0.00     0.039 A 
HETATM   29  O   UNK N   1      23.657  20.924   2.601  0.00  0.00    -0.274 OA
HETATM   30  O   UNK N   1      21.509  21.120   2.179  0.00  0.00    -0.259 OA
HETATM   31  C   UNK N   1      19.127  15.700   4.800  0.00  0.00     0.004 A 
HETATM   32  C   UNK N   1      20.200  14.980   5.318  0.00  0.00     0.038 A 
BRANCH  14  33
HETATM   33  O   UNK N   1      19.771  19.356   2.937  0.00  0.00    -0.359 OA
HETATM   34  H   UNK N   1      19.108  19.733   3.481  0.00  0.00     0.217 HD
ENDBRANCH  14  33
ENDBRANCH   9  10
ENDBRANCH   5   9
BRANCH   3  35
HETATM   35  O   UNK N   1      24.551  12.989   6.067  0.00  0.00    -0.346 OA
BRANCH  35  36
HETATM   36  C   UNK N   1      24.524  12.764   4.676  0.00  0.00     0.285 C 
HETATM   37  O   UNK N   1      23.518  11.874   4.219  0.00  0.00    -0.352 OA
HETATM   38  C   UNK N   1      22.854  12.510   3.157  0.00  0.00     0.152 C 
HETATM   39  C   UNK N   1      23.749  12.648   1.907  0.00  0.00     0.177 C 
HETATM   40  C   UNK N   1      21.489  11.905   2.890  0.00  0.00     0.042 C 
HETATM   41  C   UNK N   1      25.228  12.879   2.306  0.00  0.00     0.178 C 
HETATM   42  C   UNK N   1      25.278  13.639   3.643  0.00  0.00     0.161 C 
BRANCH  39  43
HETATM   43  O   UNK N   1      23.638  11.540   1.062  0.00  0.00    -0.390 OA
HETATM   44  H   UNK N   1      23.850  11.504   0.117  0.00  0.00     0.210 HD
ENDBRANCH  39  43
BRANCH  41  45
HETATM   45  O   UNK N   1      25.888  11.646   2.452  0.00  0.00    -0.386 OA
HETATM   46  C   UNK N   1      26.911  11.661   1.504  0.00  0.00     0.202 C 
ENDBRANCH  41  45
BRANCH  42  47
HETATM   47  N   UNK N   1      26.651  13.879   4.049  0.00  0.00    -0.420 N 
HETATM   48  H   UNK N   1      26.869  14.463   4.856  0.00  0.00     0.150 HD
HETATM   49  H   UNK N   1      27.412  13.456   3.517  0.00  0.00     0.150 HD
ENDBRANCH  42  47
ENDBRANCH  35  36
ENDBRANCH   3  35
BRANCH   2  50
HETATM   50  O   UNK N   1      24.547  12.613   8.849  0.00  0.00    -0.385 OA
HETATM   51  H   UNK N   1      25.196  13.330   8.928  0.00  0.00     0.210 HD
ENDBRANCH   2  50
BRANCH   4  52
HETATM   52  O   UNK N   1      22.377  11.766  10.283  0.00  0.00    -0.390 OA
HETATM   53  H   UNK N   1      21.621  11.466  10.810  0.00  0.00     0.210 HD
ENDBRANCH   4  52
TORSDOF 10
ENDMDL
MODEL 3
REMARK VINA RESULT:      -8.3      2.130      8.023
REMARK  10 active torsions:
REMARK  status: ('A' for Active; 'I' for Inactive)
REMARK    1  A    between atoms: C_16  and  O_1 
REMARK    2  A    between atoms: C_20  and  O_1 
REMARK    3  A    between atoms: C_15  and  O_4 
REMARK    4  A    between atoms: C_18  and  O_5 
REMARK    5  A    between atoms: O_5  and  C_28 
REMARK    6  A    between atoms: C_17  and  O_6 
REMARK    7  A    between atoms: C_22  and  O_7 
REMARK    8  A    between atoms: C_23  and  O_8 
REMARK    9  A    between atoms: O_11  and  C_36 
REMARK   10  A    between atoms: C_21  and  N_14 
ROOT
HETATM    1  O   UNK N   1      24.557  18.183   3.891  0.00  0.00    -0.351 OA
HETATM    2  C   UNK N   1      21.988  17.877   5.112  0.00  0.00     0.113 C 
HETATM    3  C   UNK N   1      23.099  16.787   5.237  0.00  0.00     0.216 C 
HETATM    4  C   UNK N   1      22.287  18.827   3.939  0.00  0.00     0.183 C 
HETATM    5  C   UNK N   1      24.485  17.471   5.102  0.00  0.00     0.298 C 
HETATM    6  C   UNK N   1      23.732  19.305   4.036  0.00  0.00     0.152 C 
HETATM    7  C   UNK N   1      20.639  17.247   4.814  0.00  0.00     0.051 C 
HETATM    8  C   UNK N   1      24.052  20.298   2.934  0.00  0.00     0.042 C 
ENDROOT
BRANCH   5   9
HETATM    9  O   UNK N   1      25.472  16.496   5.193  0.00  0.00    -0.317 OA
BRANCH   9  10
HETATM   10  C   UNK N   1      26.121  15.845   4.188  0.00  0.00     0.086 A 
HETATM   11  C   UNK N   1      27.537  15.737   4.222  0.00  0.00     0.045 A 
HETATM   12  C   UNK N   1      28.202  15.008   3.199  0.00  0.00     0.014 A 
HETATM   13  C   UNK N   1      28.301  16.312   5.265  0.00  0.00     0.105 A 
HETATM   14  C   UNK N   1      29.598  14.837   3.235  0.00  0.00     0.094 A 
HETATM   15  C   UNK N   1      27.460  14.441   2.155  0.00  0.00     0.015 A 
HETATM   16  C   UNK N   1      30.352  15.386   4.296  0.00  0.00     0.087 A 
HETATM   17  C   UNK N   1      29.692  16.122   5.296  0.00  0.00     0.032 A 
HETATM   18  C   UNK N   1      31.758  15.229   4.408  0.00  0.00     0.302 A 
HETATM   19  C   UNK N   1      30.424  16.669   6.353  0.00  0.00     0.029 A 
HETATM   20  C   UNK N   1      29.775  17.417   7.354  0.00  0.00     0.059 A 
HETATM   21  C   UNK N   1      31.812  16.459   6.395  0.00  0.00     0.091 A 
HETATM   22  C   UNK N   1      28.376  17.593   7.231  0.00  0.00     0.300 A 
HETATM   23  C   UNK N   1      30.550  17.951   8.419  0.00  0.00    -0.045 A 
HETATM   24  O   UNK N   1      27.714  17.034   6.221  0.00  0.00    -0.273 OA
HETATM   25  O   UNK N   1      27.755  18.259   8.040  0.00  0.00    -0.259 OA
HETATM   26  C   UNK N   1      31.930  17.724   8.453  0.00  0.00     0.011 A 
HETATM   27  C   UNK N   1      29.954  18.747   9.535  0.00  0.00     0.049 C 
HETATM   28  C   UNK N   1      32.559  16.987   7.447  0.00  0.00     0.039 A 
HETATM   29  O   UNK N   1      32.416  15.761   5.439  0.00  0.00    -0.274 OA
HETATM   30  O   UNK N   1      32.384  14.602   3.572  0.00  0.00    -0.259 OA
HETATM   31  C   UNK N   1      26.076  14.574   2.115  0.00  0.00     0.004 A 
HETATM   32  C   UNK N   1      25.411  15.262   3.126  0.00  0.00     0.038 A 
BRANCH  14  33
HETATM   33  O   UNK N   1      30.204  14.134   2.256  0.00  0.00    -0.359 OA
HETATM   34  H   UNK N   1      30.855  14.518   1.703  0.00  0.00     0.217 HD
ENDBRANCH  14  33
ENDBRANCH   9  10
ENDBRANCH   5   9
BRANCH   3  35
HETATM   35  O   UNK N   1      23.139  16.091   6.475  0.00  0.00    -0.346 OA
BRANCH  35  36
HETATM   36  C   UNK N   1      22.750  14.737   6.438  0.00  0.00     0.285 C 
HETATM   37  O   UNK N   1      21.354  14.499   6.503  0.00  0.00    -0.352 OA
HETATM   38  C   UNK N   1      21.035  13.621   5.453  0.00  0.00     0.152 C 
HETATM   39  C   UNK N   1      21.610  12.207   5.678  0.00  0.00     0.177 C 
HETATM   40  C   UNK N   1      19.557  13.652   5.109  0.00  0.00     0.042 C 
HETATM   41  C   UNK N   1      22.975  12.273   6.408  0.00  0.00     0.178 C 
HETATM   42  C   UNK N   1      23.691  13.579   6.022  0.00  0.00     0.161 C 
BRANCH  39  43
HETATM   43  O   UNK N   1      20.719  11.388   6.380  0.00  0.00    -0.390 OA
HETATM   44  H   UNK N   1      20.305  11.577   7.236  0.00  0.00     0.210 HD
ENDBRANCH  39  43
BRANCH  41  45
HETATM   45  O   UNK N   1      22.781  12.247   7.800  0.00  0.00    -0.386 OA
HETATM   46  C   UNK N   1      23.464  11.116   8.247  0.00  0.00     0.202 C 
ENDBRANCH  41  45
BRANCH  42  47
HETATM   47  N   UNK N   1      24.980  13.674   6.683  0.00  0.00    -0.420 N 
HETATM   48  H   UNK N   1      25.384  14.579   6.925  0.00  0.00     0.150 HD
HETATM   49  H   UNK N   1      25.491  12.821   6.911  0.00  0.00     0.150 HD
ENDBRANCH  42  47
ENDBRANCH  35  36
ENDBRANCH   3  35
BRANCH   2  50
HETATM   50  O   UNK N   1      21.921  18.614   6.298  0.00  0.00    -0.385 OA
HETATM   51  H   UNK N   1      22.029  19.470   6.743  0.00  0.00     0.210 HD
ENDBRANCH   2  50
BRANCH   4  52
HETATM   52  O   UNK N   1      21.398  19.908   3.946  0.00  0.00    -0.390 OA
HETATM   53  H   UNK N   1      21.001  20.205   4.779  0.00  0.00     0.210 HD
ENDBRANCH   4  52
TORSDOF 10
ENDMDL
MODEL 4
REMARK VINA RESULT:      -8.1      2.724      5.692
REMARK  10 active torsions:
REMARK  status: ('A' for Active; 'I' for Inactive)
REMARK    1  A    between atoms: C_16  and  O_1 
REMARK    2  A    between atoms: C_20  and  O_1 
REMARK    3  A    between atoms: C_15  and  O_4 
REMARK    4  A    between atoms: C_18  and  O_5 
REMARK    5  A    between atoms: O_5  and  C_28 
REMARK    6  A    between atoms: C_17  and  O_6 
REMARK    7  A    between atoms: C_22  and  O_7 
REMARK    8  A    between atoms: C_23  and  O_8 
REMARK    9  A    between atoms: O_11  and  C_36 
REMARK   10  A    between atoms: C_21  and  N_14 
ROOT
HETATM    1  O   UNK N   1      26.518  12.066   2.106  0.00  0.00    -0.351 OA
HETATM    2  C   UNK N   1      28.006  14.331   3.019  0.00  0.00     0.113 C 
HETATM    3  C   UNK N   1      26.470  14.198   3.263  0.00  0.00     0.216 C 
HETATM    4  C   UNK N   1      28.464  13.384   1.896  0.00  0.00     0.183 C 
HETATM    5  C   UNK N   1      26.100  12.692   3.294  0.00  0.00     0.298 C 
HETATM    6  C   UNK N   1      27.914  11.987   2.163  0.00  0.00     0.152 C 
HETATM    7  C   UNK N   1      28.366  15.734   2.563  0.00  0.00     0.051 C 
HETATM    8  C   UNK N   1      28.395  11.003   1.114  0.00  0.00     0.042 C 
ENDROOT
BRANCH   5   9
HETATM    9  O   UNK N   1      24.728  12.575   3.491  0.00  0.00    -0.317 OA
BRANCH   9  10
HETATM   10  C   UNK N   1      23.716  13.159   2.792  0.00  0.00     0.086 A 
HETATM   11  C   UNK N   1      22.613  13.717   3.491  0.00  0.00     0.045 A 
HETATM   12  C   UNK N   1      21.587  14.374   2.758  0.00  0.00     0.014 A 
HETATM   13  C   UNK N   1      22.522  13.663   4.901  0.00  0.00     0.105 A 
HETATM   14  C   UNK N   1      20.510  14.985   3.424  0.00  0.00     0.094 A 
HETATM   15  C   UNK N   1      21.659  14.429   1.359  0.00  0.00     0.015 A 
HETATM   16  C   UNK N   1      20.441  14.955   4.836  0.00  0.00     0.087 A 
HETATM   17  C   UNK N   1      21.448  14.289   5.556  0.00  0.00     0.032 A 
HETATM   18  C   UNK N   1      19.398  15.573   5.572  0.00  0.00     0.302 A 
HETATM   19  C   UNK N   1      21.395  14.252   6.951  0.00  0.00     0.029 A 
HETATM   20  C   UNK N   1      22.392  13.577   7.683  0.00  0.00     0.059 A 
HETATM   21  C   UNK N   1      20.333  14.897   7.606  0.00  0.00     0.091 A 
HETATM   22  C   UNK N   1      23.421  12.942   6.947  0.00  0.00     0.300 A 
HETATM   23  C   UNK N   1      22.311  13.569   9.102  0.00  0.00    -0.045 A 
HETATM   24  O   UNK N   1      23.446  13.022   5.619  0.00  0.00    -0.273 OA
HETATM   25  O   UNK N   1      24.295  12.310   7.512  0.00  0.00    -0.259 OA
HETATM   26  C   UNK N   1      21.252  14.226   9.739  0.00  0.00     0.011 A 
HETATM   27  C   UNK N   1      23.325  12.893   9.967  0.00  0.00     0.049 C 
HETATM   28  C   UNK N   1      20.268  14.882   8.998  0.00  0.00     0.039 A 
HETATM   29  O   UNK N   1      19.391  15.521   6.905  0.00  0.00    -0.274 OA
HETATM   30  O   UNK N   1      18.498  16.165   5.003  0.00  0.00    -0.259 OA
HETATM   31  C   UNK N   1      22.729  13.856   0.681  0.00  0.00     0.004 A 
HETATM   32  C   UNK N   1      23.753  13.235   1.390  0.00  0.00     0.038 A 
BRANCH  14  33
HETATM   33  O   UNK N   1      19.554  15.610   2.705  0.00  0.00    -0.359 OA
HETATM   34  H   UNK N   1      18.652  15.368   2.769  0.00  0.00     0.217 HD
ENDBRANCH  14  33
ENDBRANCH   9  10
ENDBRANCH   5   9
BRANCH   3  35
HETATM   35  O   UNK N   1      25.995  14.730   4.492  0.00  0.00    -0.346 OA
BRANCH  35  36
HETATM   36  C   UNK N   1      25.829  16.129   4.538  0.00  0.00     0.285 C 
HETATM   37  O   UNK N   1      24.813  16.653   3.699  0.00  0.00    -0.352 OA
HETATM   38  C   UNK N   1      24.018  17.498   4.491  0.00  0.00     0.152 C 
HETATM   39  C   UNK N   1      24.770  18.777   4.917  0.00  0.00     0.177 C 
HETATM   40  C   UNK N   1      22.654  17.747   3.874  0.00  0.00     0.042 C 
HETATM   41  C   UNK N   1      26.274  18.486   5.148  0.00  0.00     0.178 C 
HETATM   42  C   UNK N   1      26.438  17.036   5.637  0.00  0.00     0.161 C 
BRANCH  39  43
HETATM   43  O   UNK N   1      24.609  19.810   3.988  0.00  0.00    -0.390 OA
HETATM   44  H   UNK N   1      23.905  19.894   3.326  0.00  0.00     0.210 HD
ENDBRANCH  39  43
BRANCH  41  45
HETATM   45  O   UNK N   1      26.988  18.652   3.948  0.00  0.00    -0.386 OA
HETATM   46  C   UNK N   1      27.826  19.745   4.166  0.00  0.00     0.202 C 
ENDBRANCH  41  45
BRANCH  42  47
HETATM   47  N   UNK N   1      27.837  16.726   5.870  0.00  0.00    -0.420 N 
HETATM   48  H   UNK N   1      28.567  17.090   5.258  0.00  0.00     0.150 HD
HETATM   49  H   UNK N   1      28.095  16.135   6.660  0.00  0.00     0.150 HD
ENDBRANCH  42  47
ENDBRANCH  35  36
ENDBRANCH   3  35
BRANCH   2  50
HETATM   50  O   UNK N   1      28.696  14.020   4.196  0.00  0.00    -0.385 OA
HETATM   51  H   UNK N   1      29.477  14.161   4.755  0.00  0.00     0.210 HD
ENDBRANCH   2  50
BRANCH   4  52
HETATM   52  O   UNK N   1      29.860  13.367   1.809  0.00  0.00    -0.390 OA
HETATM   53  H   UNK N   1      30.293  13.209   0.957  0.00  0.00     0.210 HD
ENDBRANCH   4  52
TORSDOF 10
ENDMDL
MODEL 5
REMARK VINA RESULT:      -8.1      2.210      5.515
REMARK  10 active torsions:
REMARK  status: ('A' for Active; 'I' for Inactive)
REMARK    1  A    between atoms: C_16  and  O_1 
REMARK    2  A    between atoms: C_20  and  O_1 
REMARK    3  A    between atoms: C_15  and  O_4 
REMARK    4  A    between atoms: C_18  and  O_5 
REMARK    5  A    between atoms: O_5  and  C_28 
REMARK    6  A    between atoms: C_17  and  O_6 
REMARK    7  A    between atoms: C_22  and  O_7 
REMARK    8  A    between atoms: C_23  and  O_8 
REMARK    9  A    between atoms: O_11  and  C_36 
REMARK   10  A    between atoms: C_21  and  N_14 
ROOT
HETATM    1  O   UNK N   1      25.701  13.718   3.764  0.00  0.00    -0.351 OA
HETATM    2  C   UNK N   1      28.552  13.908   3.615  0.00  0.00     0.113 C 
HETATM    3  C   UNK N   1      27.702  14.885   4.487  0.00  0.00     0.216 C 
HETATM    4  C   UNK N   1      27.670  13.206   2.568  0.00  0.00     0.183 C 
HETATM    5  C   UNK N   1      26.391  14.169   4.904  0.00  0.00     0.298 C 
HETATM    6  C   UNK N   1      26.431  12.638   3.254  0.00  0.00     0.152 C 
HETATM    7  C   UNK N   1      29.617  14.659   2.836  0.00  0.00     0.051 C 
HETATM    8  C   UNK N   1      25.563  11.879   2.269  0.00  0.00     0.042 C 
ENDROOT
BRANCH   5   9
HETATM    9  O   UNK N   1      25.627  15.048   5.664  0.00  0.00    -0.317 OA
BRANCH   9  10
HETATM   10  C   UNK N   1      24.611  15.859   5.260  0.00  0.00     0.086 A 
HETATM   11  C   UNK N   1      23.363  15.809   5.934  0.00  0.00     0.045 A 
HETATM   12  C   UNK N   1      22.325  16.699   5.543  0.00  0.00     0.014 A 
HETATM   13  C   UNK N   1      23.133  14.915   7.006  0.00  0.00     0.105 A 
HETATM   14  C   UNK N   1      21.096  16.711   6.227  0.00  0.00     0.094 A 
HETATM   15  C   UNK N   1      22.535  17.584   4.477  0.00  0.00     0.015 A 
HETATM   16  C   UNK N   1      20.885  15.838   7.319  0.00  0.00     0.087 A 
HETATM   17  C   UNK N   1      21.906  14.947   7.690  0.00  0.00     0.032 A 
HETATM   18  C   UNK N   1      19.681  15.817   8.069  0.00  0.00     0.302 A 
HETATM   19  C   UNK N   1      21.713  14.080   8.768  0.00  0.00     0.029 A 
HETATM   20  C   UNK N   1      22.725  13.174   9.143  0.00  0.00     0.059 A 
HETATM   21  C   UNK N   1      20.495  14.127   9.465  0.00  0.00     0.091 A 
HETATM   22  C   UNK N   1      23.918  13.180   8.380  0.00  0.00     0.300 A 
HETATM   23  C   UNK N   1      22.497  12.313  10.250  0.00  0.00    -0.045 A 
HETATM   24  O   UNK N   1      24.070  14.040   7.376  0.00  0.00    -0.273 OA
HETATM   25  O   UNK N   1      24.820  12.400   8.625  0.00  0.00    -0.259 OA
HETATM   26  C   UNK N   1      21.282  12.381  10.941  0.00  0.00     0.011 A 
HETATM   27  C   UNK N   1      23.512  11.328  10.733  0.00  0.00     0.049 C 
HETATM   28  C   UNK N   1      20.286  13.278  10.551  0.00  0.00     0.039 A 
HETATM   29  O   UNK N   1      19.542  14.977   9.096  0.00  0.00    -0.274 OA
HETATM   30  O   UNK N   1      18.760  16.565   7.794  0.00  0.00    -0.259 OA
HETATM   31  C   UNK N   1      23.751  17.609   3.804  0.00  0.00     0.004 A 
HETATM   32  C   UNK N   1      24.784  16.761   4.196  0.00  0.00     0.038 A 
BRANCH  14  33
HETATM   33  O   UNK N   1      20.132  17.571   5.841  0.00  0.00    -0.359 OA
HETATM   34  H   UNK N   1      19.284  17.275   5.575  0.00  0.00     0.217 HD
ENDBRANCH  14  33
ENDBRANCH   9  10
ENDBRANCH   5   9
BRANCH   3  35
HETATM   35  O   UNK N   1      28.307  15.307   5.702  0.00  0.00    -0.346 OA
BRANCH  35  36
HETATM   36  C   UNK N   1      28.084  16.649   6.071  0.00  0.00     0.285 C 
HETATM   37  O   UNK N   1      27.556  16.847   7.373  0.00  0.00    -0.352 OA
HETATM   38  C   UNK N   1      28.358  17.814   8.001  0.00  0.00     0.152 C 
HETATM   39  C   UNK N   1      28.187  19.213   7.372  0.00  0.00     0.177 C 
HETATM   40  C   UNK N   1      28.217  17.782   9.511  0.00  0.00     0.042 C 
HETATM   41  C   UNK N   1      27.938  19.109   5.847  0.00  0.00     0.178 C 
HETATM   42  C   UNK N   1      28.659  17.864   5.302  0.00  0.00     0.161 C 
BRANCH  39  43
HETATM   43  O   UNK N   1      27.161  19.939   7.987  0.00  0.00    -0.390 OA
HETATM   44  H   UNK N   1      26.883  20.844   7.780  0.00  0.00     0.210 HD
ENDBRANCH  39  43
BRANCH  41  45
HETATM   45  O   UNK N   1      26.561  18.995   5.588  0.00  0.00    -0.386 OA
HETATM   46  C   UNK N   1      26.216  20.160   4.903  0.00  0.00     0.202 C 
ENDBRANCH  41  45
BRANCH  42  47
HETATM   47  N   UNK N   1      28.453  17.736   3.870  0.00  0.00    -0.420 N 
HETATM   48  H   UNK N   1      27.781  17.070   3.491  0.00  0.00     0.150 HD
HETATM   49  H   UNK N   1      28.991  18.323   3.231  0.00  0.00     0.150 HD
ENDBRANCH  42  47
ENDBRANCH  35  36
ENDBRANCH   3  35
BRANCH   2  50
HETATM   50  O   UNK N   1      29.148  12.946   4.436  0.00  0.00    -0.385 OA
HETATM   51  H   UNK N   1      29.117  12.432   5.259  0.00  0.00     0.210 HD
ENDBRANCH   2  50
BRANCH   4  52
HETATM   52  O   UNK N   1      28.391  12.197   1.918  0.00  0.00    -0.390 OA
HETATM   53  H   UNK N   1      29.142  12.425   1.350  0.00  0.00     0.210 HD
ENDBRANCH   4  52
TORSDOF 10
ENDMDL
MODEL 6
REMARK VINA RESULT:      -8.0      2.560      4.494
REMARK  10 active torsions:
REMARK  status: ('A' for Active; 'I' for Inactive)
REMARK    1  A    between atoms: C_16  and  O_1 
REMARK    2  A    between atoms: C_20  and  O_1 
REMARK    3  A    between atoms: C_15  and  O_4 
REMARK    4  A    between atoms: C_18  and  O_5 
REMARK    5  A    between atoms: O_5  and  C_28 
REMARK    6  A    between atoms: C_17  and  O_6 
REMARK    7  A    between atoms: C_22  and  O_7 
REMARK    8  A    between atoms: C_23  and  O_8 
REMARK    9  A    between atoms: O_11  and  C_36 
REMARK   10  A    between atoms: C_21  and  N_14 
ROOT
HETATM    1  O   UNK N   1      26.708  16.759   6.528  0.00  0.00    -0.351 OA
HETATM    2  C   UNK N   1      28.379  16.404   4.234  0.00  0.00     0.113 C 
HETATM    3  C   UNK N   1      26.925  15.839   4.294  0.00  0.00     0.216 C 
HETATM    4  C   UNK N   1      28.897  16.727   5.646  0.00  0.00     0.183 C 
HETATM    5  C   UNK N   1      26.090  16.714   5.266  0.00  0.00     0.298 C 
HETATM    6  C   UNK N   1      27.852  17.554   6.387  0.00  0.00     0.152 C 
HETATM    7  C   UNK N   1      29.338  15.380   3.654  0.00  0.00     0.051 C 
HETATM    8  C   UNK N   1      28.349  17.951   7.764  0.00  0.00     0.042 C 
ENDROOT
BRANCH   5   9
HETATM    9  O   UNK N   1      24.801  16.196   5.334  0.00  0.00    -0.317 OA
BRANCH   9  10
HETATM   10  C   UNK N   1      23.614  16.862   5.295  0.00  0.00     0.086 A 
HETATM   11  C   UNK N   1      22.563  16.471   6.166  0.00  0.00     0.045 A 
HETATM   12  C   UNK N   1      21.347  17.207   6.160  0.00  0.00     0.014 A 
HETATM   13  C   UNK N   1      22.706  15.386   7.063  0.00  0.00     0.105 A 
HETATM   14  C   UNK N   1      20.307  16.879   7.049  0.00  0.00     0.094 A 
HETATM   15  C   UNK N   1      21.187  18.279   5.272  0.00  0.00     0.015 A 
HETATM   16  C   UNK N   1      20.468  15.814   7.965  0.00  0.00     0.087 A 
HETATM   17  C   UNK N   1      21.665  15.078   7.955  0.00  0.00     0.032 A 
HETATM   18  C   UNK N   1      19.471  15.448   8.906  0.00  0.00     0.302 A 
HETATM   19  C   UNK N   1      21.840  14.025   8.855  0.00  0.00     0.029 A 
HETATM   20  C   UNK N   1      23.031  13.273   8.848  0.00  0.00     0.059 A 
HETATM   21  C   UNK N   1      20.808  13.731   9.763  0.00  0.00     0.091 A 
HETATM   22  C   UNK N   1      24.015  13.624   7.894  0.00  0.00     0.300 A 
HETATM   23  C   UNK N   1      23.177  12.213   9.784  0.00  0.00    -0.045 A 
HETATM   24  O   UNK N   1      23.818  14.651   7.070  0.00  0.00    -0.273 OA
HETATM   25  O   UNK N   1      25.054  12.994   7.806  0.00  0.00    -0.259 OA
HETATM   26  C   UNK N   1      22.144  11.941  10.689  0.00  0.00     0.011 A 
HETATM   27  C   UNK N   1      24.406  11.367   9.865  0.00  0.00     0.049 C 
HETATM   28  C   UNK N   1      20.967  12.691  10.677  0.00  0.00     0.039 A 
HETATM   29  O   UNK N   1      19.684  14.440   9.754  0.00  0.00    -0.274 OA
HETATM   30  O   UNK N   1      18.413  16.049   8.962  0.00  0.00    -0.259 OA
HETATM   31  C   UNK N   1      22.212  18.638   4.402  0.00  0.00     0.004 A 
HETATM   32  C   UNK N   1      23.418  17.943   4.420  0.00  0.00     0.038 A 
BRANCH  14  33
HETATM   33  O   UNK N   1      19.166  17.599   7.028  0.00  0.00    -0.359 OA
HETATM   34  H   UNK N   1      18.778  17.884   6.225  0.00  0.00     0.217 HD
ENDBRANCH  14  33
ENDBRANCH   9  10
ENDBRANCH   5   9
BRANCH   3  35
HETATM   35  O   UNK N   1      26.211  15.850   3.065  0.00  0.00    -0.346 OA
BRANCH  35  36
HETATM   36  C   UNK N   1      25.875  14.590   2.533  0.00  0.00     0.285 C 
HETATM   37  O   UNK N   1      26.933  13.891   1.897  0.00  0.00    -0.352 OA
HETATM   38  C   UNK N   1      26.948  12.591   2.429  0.00  0.00     0.152 C 
HETATM   39  C   UNK N   1      25.716  11.768   1.993  0.00  0.00     0.177 C 
HETATM   40  C   UNK N   1      28.278  11.896   2.208  0.00  0.00     0.042 C 
HETATM   41  C   UNK N   1      24.463  12.670   1.865  0.00  0.00     0.178 C 
HETATM   42  C   UNK N   1      24.570  13.828   2.873  0.00  0.00     0.161 C 
BRANCH  39  43
HETATM   43  O   UNK N   1      25.947  11.078   0.799  0.00  0.00    -0.390 OA
HETATM   44  H   UNK N   1      26.142  10.133   0.700  0.00  0.00     0.210 HD
ENDBRANCH  39  43
BRANCH  41  45
HETATM   45  O   UNK N   1      24.378  13.196   0.564  0.00  0.00    -0.386 OA
HETATM   46  C   UNK N   1      23.189  12.690   0.039  0.00  0.00     0.202 C 
ENDBRANCH  41  45
BRANCH  42  47
HETATM   47  N   UNK N   1      23.407  14.694   2.786  0.00  0.00    -0.420 N 
HETATM   48  H   UNK N   1      23.334  15.536   3.355  0.00  0.00     0.150 HD
HETATM   49  H   UNK N   1      22.652  14.456   2.143  0.00  0.00     0.150 HD
ENDBRANCH  42  47
ENDBRANCH  35  36
ENDBRANCH   3  35
BRANCH   2  50
HETATM   50  O   UNK N   1      28.396  17.568   3.458  0.00  0.00    -0.385 OA
HETATM   51  H   UNK N   1      28.898  18.331   3.129  0.00  0.00     0.210 HD
ENDBRANCH   2  50
BRANCH   4  52
HETATM   52  O   UNK N   1      30.119  17.406   5.576  0.00  0.00    -0.390 OA
HETATM   53  H   UNK N   1      30.219  18.168   4.986  0.00  0.00     0.210 HD
ENDBRANCH   4  52
TORSDOF 10
ENDMDL
MODEL 7
REMARK VINA RESULT:      -7.8      7.756     11.259
REMARK  10 active torsions:
REMARK  status: ('A' for Active; 'I' for Inactive)
REMARK    1  A    between atoms: C_16  and  O_1 
REMARK    2  A    between atoms: C_20  and  O_1 
REMARK    3  A    between atoms: C_15  and  O_4 
REMARK    4  A    between atoms: C_18  and  O_5 
REMARK    5  A    between atoms: O_5  and  C_28 
REMARK    6  A    between atoms: C_17  and  O_6 
REMARK    7  A    between atoms: C_22  and  O_7 
REMARK    8  A    between atoms: C_23  and  O_8 
REMARK    9  A    between atoms: O_11  and  C_36 
REMARK   10  A    between atoms: C_21  and  N_14 
ROOT
HETATM    1  O   UNK N   1      32.725   9.888   9.555  0.00  0.00    -0.351 OA
HETATM    2  C   UNK N   1      35.211   8.538   9.130  0.00  0.00     0.113 C 
HETATM    3  C   UNK N   1      35.065  10.081   8.945  0.00  0.00     0.216 C 
HETATM    4  C   UNK N   1      33.833   7.854   9.103  0.00  0.00     0.183 C 
HETATM    5  C   UNK N   1      33.911  10.585   9.851  0.00  0.00     0.298 C 
HETATM    6  C   UNK N   1      32.889   8.588  10.050  0.00  0.00     0.152 C 
HETATM    7  C   UNK N   1      36.009   7.925   7.993  0.00  0.00     0.051 C 
HETATM    8  C   UNK N   1      31.534   7.908  10.105  0.00  0.00     0.042 C 
ENDROOT
BRANCH   5   9
HETATM    9  O   UNK N   1      33.770  11.956   9.669  0.00  0.00    -0.317 OA
BRANCH   9  10
HETATM   10  C   UNK N   1      34.394  12.970  10.328  0.00  0.00     0.086 A 
HETATM   11  C   UNK N   1      34.509  14.243   9.709  0.00  0.00     0.045 A 
HETATM   12  C   UNK N   1      35.112  15.312  10.426  0.00  0.00     0.014 A 
HETATM   13  C   UNK N   1      34.011  14.483   8.407  0.00  0.00     0.105 A 
HETATM   14  C   UNK N   1      35.191  16.598   9.861  0.00  0.00     0.094 A 
HETATM   15  C   UNK N   1      35.618  15.087  11.713  0.00  0.00     0.015 A 
HETATM   16  C   UNK N   1      34.663  16.840   8.573  0.00  0.00     0.087 A 
HETATM   17  C   UNK N   1      34.084  15.775   7.860  0.00  0.00     0.032 A 
HETATM   18  C   UNK N   1      34.686  18.117   7.955  0.00  0.00     0.302 A 
HETATM   19  C   UNK N   1      33.556  15.999   6.587  0.00  0.00     0.029 A 
HETATM   20  C   UNK N   1      32.983  14.938   5.858  0.00  0.00     0.059 A 
HETATM   21  C   UNK N   1      33.609  17.296   6.049  0.00  0.00     0.091 A 
HETATM   22  C   UNK N   1      32.981  13.659   6.465  0.00  0.00     0.300 A 
HETATM   23  C   UNK N   1      32.447  15.204   4.569  0.00  0.00    -0.045 A 
HETATM   24  O   UNK N   1      33.473  13.495   7.690  0.00  0.00    -0.273 OA
HETATM   25  O   UNK N   1      32.535  12.689   5.879  0.00  0.00    -0.259 OA
HETATM   26  C   UNK N   1      32.498  16.504   4.053  0.00  0.00     0.011 A 
HETATM   27  C   UNK N   1      31.807  14.150   3.724  0.00  0.00     0.049 C 
HETATM   28  C   UNK N   1      33.077  17.542   4.784  0.00  0.00     0.039 A 
HETATM   29  O   UNK N   1      34.162  18.287   6.740  0.00  0.00    -0.274 OA
HETATM   30  O   UNK N   1      35.175  19.077   8.524  0.00  0.00    -0.259 OA
HETATM   31  C   UNK N   1      35.526  13.831  12.302  0.00  0.00     0.004 A 
HETATM   32  C   UNK N   1      34.912  12.784  11.621  0.00  0.00     0.038 A 
BRANCH  14  33
HETATM   33  O   UNK N   1      35.761  17.597  10.566  0.00  0.00    -0.359 OA
HETATM   34  H   UNK N   1      35.951  17.510  11.480  0.00  0.00     0.217 HD
ENDBRANCH  14  33
ENDBRANCH   9  10
ENDBRANCH   5   9
BRANCH   3  35
HETATM   35  O   UNK N   1      36.200  10.853   9.314  0.00  0.00    -0.346 OA
BRANCH  35  36
HETATM   36  C   UNK N   1      36.866  11.515   8.263  0.00  0.00     0.285 C 
HETATM   37  O   UNK N   1      36.680  10.959   6.972  0.00  0.00    -0.352 OA
HETATM   38  C   UNK N   1      36.313  12.012   6.117  0.00  0.00     0.152 C 
HETATM   39  C   UNK N   1      37.475  12.999   5.874  0.00  0.00     0.177 C 
HETATM   40  C   UNK N   1      35.635  11.516   4.854  0.00  0.00     0.042 C 
HETATM   41  C   UNK N   1      38.360  13.137   7.139  0.00  0.00     0.178 C 
HETATM   42  C   UNK N   1      37.488  12.929   8.389  0.00  0.00     0.161 C 
BRANCH  39  43
HETATM   43  O   UNK N   1      38.252  12.627   4.772  0.00  0.00    -0.390 OA
HETATM   44  H   UNK N   1      39.219  12.570   4.734  0.00  0.00     0.210 HD
ENDBRANCH  39  43
BRANCH  41  45
HETATM   45  O   UNK N   1      39.381  12.172   7.122  0.00  0.00    -0.386 OA
HETATM   46  C   UNK N   1      40.573  12.896   7.112  0.00  0.00     0.202 C 
ENDBRANCH  41  45
BRANCH  42  47
HETATM   47  N   UNK N   1      38.282  13.057   9.598  0.00  0.00    -0.420 N 
HETATM   48  H   UNK N   1      37.908  13.513  10.430  0.00  0.00     0.150 HD
HETATM   49  H   UNK N   1      39.231  12.683   9.616  0.00  0.00     0.150 HD
ENDBRANCH  42  47
ENDBRANCH  35  36
ENDBRANCH   3  35
BRANCH   2  50
HETATM   50  O   UNK N   1      35.835   8.270  10.352  0.00  0.00    -0.385 OA
HETATM   51  H   UNK N   1      36.464   7.726  10.855  0.00  0.00     0.210 HD
ENDBRANCH   2  50
BRANCH   4  52
HETATM   52  O   UNK N   1      33.949   6.505   9.457  0.00  0.00    -0.390 OA
HETATM   53  H   UNK N   1      33.154   5.977   9.629  0.00  0.00     0.210 HD
ENDBRANCH   4  52
TORSDOF 10
ENDMDL
MODEL 8
REMARK VINA RESULT:      -7.7      3.310      6.133
REMARK  10 active torsions:
REMARK  status: ('A' for Active; 'I' for Inactive)
REMARK    1  A    between atoms: C_16  and  O_1 
REMARK    2  A    between atoms: C_20  and  O_1 
REMARK    3  A    between atoms: C_15  and  O_4 
REMARK    4  A    between atoms: C_18  and  O_5 
REMARK    5  A    between atoms: O_5  and  C_28 
REMARK    6  A    between atoms: C_17  and  O_6 
REMARK    7  A    between atoms: C_22  and  O_7 
REMARK    8  A    between atoms: C_23  and  O_8 
REMARK    9  A    between atoms: O_11  and  C_36 
REMARK   10  A    between atoms: C_21  and  N_14 
ROOT
HETATM    1  O   UNK N   1      24.181  13.918   7.892  0.00  0.00    -0.351 OA
HETATM    2  C   UNK N   1      23.518  11.529   6.466  0.00  0.00     0.113 C 
HETATM    3  C   UNK N   1      23.626  12.914   5.754  0.00  0.00     0.216 C 
HETATM    4  C   UNK N   1      23.358  11.708   7.985  0.00  0.00     0.183 C 
HETATM    5  C   UNK N   1      24.606  13.811   6.556  0.00  0.00     0.298 C 
HETATM    6  C   UNK N   1      24.423  12.676   8.491  0.00  0.00     0.152 C 
HETATM    7  C   UNK N   1      22.289  10.770   5.997  0.00  0.00     0.051 C 
HETATM    8  C   UNK N   1      24.345  12.832   9.998  0.00  0.00     0.042 C 
ENDROOT
BRANCH   5   9
HETATM    9  O   UNK N   1      24.684  15.051   5.932  0.00  0.00    -0.317 OA
BRANCH   9  10
HETATM   10  C   UNK N   1      25.792  15.780   5.625  0.00  0.00     0.086 A 
HETATM   11  C   UNK N   1      25.659  16.974   4.869  0.00  0.00     0.045 A 
HETATM   12  C   UNK N   1      26.813  17.760   4.600  0.00  0.00     0.014 A 
HETATM   13  C   UNK N   1      24.400  17.419   4.400  0.00  0.00     0.105 A 
HETATM   14  C   UNK N   1      26.705  18.976   3.901  0.00  0.00     0.094 A 
HETATM   15  C   UNK N   1      28.067  17.327   5.051  0.00  0.00     0.015 A 
HETATM   16  C   UNK N   1      25.441  19.431   3.463  0.00  0.00     0.087 A 
HETATM   17  C   UNK N   1      24.304  18.642   3.715  0.00  0.00     0.032 A 
HETATM   18  C   UNK N   1      25.257  20.659   2.777  0.00  0.00     0.302 A 
HETATM   19  C   UNK N   1      23.048  19.080   3.290  0.00  0.00     0.029 A 
HETATM   20  C   UNK N   1      21.904  18.293   3.526  0.00  0.00     0.059 A 
HETATM   21  C   UNK N   1      22.950  20.313   2.625  0.00  0.00     0.091 A 
HETATM   22  C   UNK N   1      22.090  17.058   4.191  0.00  0.00     0.300 A 
HETATM   23  C   UNK N   1      20.640  18.775   3.088  0.00  0.00    -0.045 A 
HETATM   24  O   UNK N   1      23.302  16.690   4.600  0.00  0.00    -0.273 OA
HETATM   25  O   UNK N   1      21.151  16.310   4.396  0.00  0.00    -0.259 OA
HETATM   26  C   UNK N   1      20.558  20.011   2.437  0.00  0.00     0.011 A 
HETATM   27  C   UNK N   1      19.367  18.022   3.303  0.00  0.00     0.049 C 
HETATM   28  C   UNK N   1      21.703  20.774   2.203  0.00  0.00     0.039 A 
HETATM   29  O   UNK N   1      24.037  21.042   2.397  0.00  0.00    -0.274 OA
HETATM   30  O   UNK N   1      26.204  21.384   2.530  0.00  0.00    -0.259 OA
HETATM   31  C   UNK N   1      28.194  16.143   5.768  0.00  0.00     0.004 A 
HETATM   32  C   UNK N   1      27.067  15.380   6.061  0.00  0.00     0.038 A 
BRANCH  14  33
HETATM   33  O   UNK N   1      27.815  19.705   3.667  0.00  0.00    -0.359 OA
HETATM   34  H   UNK N   1      28.057  19.972   2.802  0.00  0.00     0.217 HD
ENDBRANCH  14  33
ENDBRANCH   9  10
ENDBRANCH   5   9
BRANCH   3  35
HETATM   35  O   UNK N   1      24.136  12.885   4.428  0.00  0.00    -0.346 OA
BRANCH  35  36
HETATM   36  C   UNK N   1      23.225  12.510   3.422  0.00  0.00     0.285 C 
HETATM   37  O   UNK N   1      22.231  13.471   3.105  0.00  0.00    -0.352 OA
HETATM   38  C   UNK N   1      22.230  13.620   1.708  0.00  0.00     0.152 C 
HETATM   39  C   UNK N   1      21.698  12.362   0.987  0.00  0.00     0.177 C 
HETATM   40  C   UNK N   1      21.579  14.918   1.270  0.00  0.00     0.042 C 
HETATM   41  C   UNK N   1      22.096  11.075   1.751  0.00  0.00     0.178 C 
HETATM   42  C   UNK N   1      23.437  11.307   2.468  0.00  0.00     0.161 C 
BRANCH  39  43
HETATM   43  O   UNK N   1      20.313  12.414   0.803  0.00  0.00    -0.390 OA
HETATM   44  H   UNK N   1      19.640  11.920   1.297  0.00  0.00     0.210 HD
ENDBRANCH  39  43
BRANCH  41  45
HETATM   45  O   UNK N   1      21.113  10.755   2.703  0.00  0.00    -0.386 OA
HETATM   46  C   UNK N   1      20.658   9.483   2.352  0.00  0.00     0.202 C 
ENDBRANCH  41  45
BRANCH  42  47
HETATM   47  N   UNK N   1      23.847  10.117   3.193  0.00  0.00    -0.420 N 
HETATM   48  H   UNK N   1      23.444   9.205   2.980  0.00  0.00     0.150 HD
HETATM   49  H   UNK N   1      24.551  10.195   3.927  0.00  0.00     0.150 HD
ENDBRANCH  42  47
ENDBRANCH  35  36
ENDBRANCH   3  35
BRANCH   2  50
HETATM   50  O   UNK N   1      24.670  10.779   6.207  0.00  0.00    -0.385 OA
HETATM   51  H   UNK N   1      25.496  10.685   5.706  0.00  0.00     0.210 HD
ENDBRANCH   2  50
BRANCH   4  52
HETATM   52  O   UNK N   1      23.453  10.472   8.636  0.00  0.00    -0.390 OA
HETATM   53  H   UNK N   1      22.815  10.237   9.328  0.00  0.00     0.210 HD
ENDBRANCH   4  52
TORSDOF 10
ENDMDL
MODEL 9
REMARK VINA RESULT:      -7.5      2.292      7.722
REMARK  10 active torsions:
REMARK  status: ('A' for Active; 'I' for Inactive)
REMARK    1  A    between atoms: C_16  and  O_1 
REMARK    2  A    between atoms: C_20  and  O_1 
REMARK    3  A    between atoms: C_15  and  O_4 
REMARK    4  A    between atoms: C_18  and  O_5 
REMARK    5  A    between atoms: O_5  and  C_28 
REMARK    6  A    between atoms: C_17  and  O_6 
REMARK    7  A    between atoms: C_22  and  O_7 
REMARK    8  A    between atoms: C_23  and  O_8 
REMARK    9  A    between atoms: O_11  and  C_36 
REMARK   10  A    between atoms: C_21  and  N_14 
ROOT
HETATM    1  O   UNK N   1      25.439  17.913   4.107  0.00  0.00    -0.351 OA
HETATM    2  C   UNK N   1      22.728  17.785   5.009  0.00  0.00     0.113 C 
HETATM    3  C   UNK N   1      23.749  16.639   5.293  0.00  0.00     0.216 C 
HETATM    4  C   UNK N   1      23.222  18.683   3.862  0.00  0.00     0.183 C 
HETATM    5  C   UNK N   1      25.179  17.240   5.314  0.00  0.00     0.298 C 
HETATM    6  C   UNK N   1      24.671  19.083   4.125  0.00  0.00     0.152 C 
HETATM    7  C   UNK N   1      21.390  17.225   4.561  0.00  0.00     0.051 C 
HETATM    8  C   UNK N   1      25.180  20.024   3.050  0.00  0.00     0.042 C 
ENDROOT
BRANCH   5   9
HETATM    9  O   UNK N   1      26.089  16.214   5.547  0.00  0.00    -0.317 OA
BRANCH   9  10
HETATM   10  C   UNK N   1      27.398  16.304   5.909  0.00  0.00     0.086 A 
HETATM   11  C   UNK N   1      28.355  15.452   5.297  0.00  0.00     0.045 A 
HETATM   12  C   UNK N   1      29.728  15.591   5.639  0.00  0.00     0.014 A 
HETATM   13  C   UNK N   1      27.981  14.488   4.331  0.00  0.00     0.105 A 
HETATM   14  C   UNK N   1      30.706  14.800   5.010  0.00  0.00     0.094 A 
HETATM   15  C   UNK N   1      30.112  16.535   6.600  0.00  0.00     0.015 A 
HETATM   16  C   UNK N   1      30.330  13.861   4.022  0.00  0.00     0.087 A 
HETATM   17  C   UNK N   1      28.969  13.714   3.700  0.00  0.00     0.032 A 
HETATM   18  C   UNK N   1      31.266  13.051   3.330  0.00  0.00     0.302 A 
HETATM   19  C   UNK N   1      28.582  12.792   2.725  0.00  0.00     0.029 A 
HETATM   20  C   UNK N   1      27.221  12.629   2.401  0.00  0.00     0.059 A 
HETATM   21  C   UNK N   1      29.573  12.035   2.078  0.00  0.00     0.091 A 
HETATM   22  C   UNK N   1      26.285  13.421   3.108  0.00  0.00     0.300 A 
HETATM   23  C   UNK N   1      26.865  11.687   1.398  0.00  0.00    -0.045 A 
HETATM   24  O   UNK N   1      26.699  14.305   4.013  0.00  0.00    -0.273 OA
HETATM   25  O   UNK N   1      25.090  13.306   2.906  0.00  0.00    -0.259 OA
HETATM   26  C   UNK N   1      27.865  10.949   0.755  0.00  0.00     0.011 A 
HETATM   27  C   UNK N   1      25.452  11.451   0.974  0.00  0.00     0.049 C 
HETATM   28  C   UNK N   1      29.209  11.117   1.094  0.00  0.00     0.039 A 
HETATM   29  O   UNK N   1      30.853  12.189   2.399  0.00  0.00    -0.274 OA
HETATM   30  O   UNK N   1      32.458  13.133   3.567  0.00  0.00    -0.259 OA
HETATM   31  C   UNK N   1      29.166  17.347   7.215  0.00  0.00     0.004 A 
HETATM   32  C   UNK N   1      27.822  17.240   6.867  0.00  0.00     0.038 A 
BRANCH  14  33
HETATM   33  O   UNK N   1      32.002  14.957   5.347  0.00  0.00    -0.359 OA
HETATM   34  H   UNK N   1      32.636  14.285   5.195  0.00  0.00     0.217 HD
ENDBRANCH  14  33
ENDBRANCH   9  10
ENDBRANCH   5   9
BRANCH   3  35
HETATM   35  O   UNK N   1      23.597  15.977   6.541  0.00  0.00    -0.346 OA
BRANCH  35  36
HETATM   36  C   UNK N   1      23.085  14.665   6.489  0.00  0.00     0.285 C 
HETATM   37  O   UNK N   1      21.679  14.551   6.629  0.00  0.00    -0.352 OA
HETATM   38  C   UNK N   1      21.223  13.741   5.575  0.00  0.00     0.152 C 
HETATM   39  C   UNK N   1      21.679  12.273   5.727  0.00  0.00     0.177 C 
HETATM   40  C   UNK N   1      19.738  13.914   5.320  0.00  0.00     0.042 C 
HETATM   41  C   UNK N   1      23.083  12.193   6.377  0.00  0.00     0.178 C 
HETATM   42  C   UNK N   1      23.892  13.442   5.986  0.00  0.00     0.161 C 
BRANCH  39  43
HETATM   43  O   UNK N   1      20.758  11.515   6.457  0.00  0.00    -0.390 OA
HETATM   44  H   UNK N   1      20.814  11.275   7.394  0.00  0.00     0.210 HD
ENDBRANCH  39  43
BRANCH  41  45
HETATM   45  O   UNK N   1      22.966  12.139   7.776  0.00  0.00    -0.386 OA
HETATM   46  C   UNK N   1      23.562  10.934   8.150  0.00  0.00     0.202 C 
ENDBRANCH  41  45
BRANCH  42  47
HETATM   47  N   UNK N   1      25.220  13.400   6.573  0.00  0.00    -0.420 N 
HETATM   48  H   UNK N   1      25.354  13.488   7.580  0.00  0.00     0.150 HD
HETATM   49  H   UNK N   1      26.032  13.281   5.967  0.00  0.00     0.150 HD
ENDBRANCH  42  47
ENDBRANCH  35  36
ENDBRANCH   3  35
BRANCH   2  50
HETATM   50  O   UNK N   1      22.561  18.559   6.162  0.00  0.00    -0.385 OA
HETATM   51  H   UNK N   1      22.077  19.269   6.615  0.00  0.00     0.210 HD
ENDBRANCH   2  50
BRANCH   4  52
HETATM   52  O   UNK N   1      22.405  19.812   3.737  0.00  0.00    -0.390 OA
HETATM   53  H   UNK N   1      21.440  19.719   3.759  0.00  0.00     0.210 HD
ENDBRANCH   4  52
TORSDOF 10
ENDMDL
