MODEL 1
REMARK VINA RESULT:      -8.5      0.000      0.000
REMARK  5 active torsions:
REMARK  status: ('A' for Active; 'I' for Inactive)
REMARK    1  A    between atoms: C_3  and  C_26 
REMARK    2  A    between atoms: C_4  and  N_8 
REMARK       I    between atoms: N_8  and  C_9 
REMARK       I    between atoms: C_9  and  N_11 
REMARK    3  A    between atoms: N_11  and  C_12 
REMARK    4  A    between atoms: C_14  and  C_22 
REMARK    5  A    between atoms: C_16  and  C_18 
ROOT
HETATM    1  N   UNK N   1      20.737  15.869   4.425  0.00  0.00    -0.308 N 
HETATM    2  C   UNK N   1      22.075  15.891   4.685  0.00  0.00     0.325 C 
HETATM    3  O   UNK N   1      22.879  15.854   3.766  0.00  0.00    -0.247 OA
HETATM    4  N   UNK N   1      22.548  15.985   5.948  0.00  0.00    -0.309 N 
HETATM    5  H   UNK N   1      20.100  15.851   5.176  0.00  0.00     0.170 HD
HETATM    6  H   UNK N   1      23.498  16.226   6.047  0.00  0.00     0.170 HD
ENDROOT
BRANCH   1   7
HETATM    7  C   UNK N   1      20.243  15.871   3.091  0.00  0.00     0.051 A 
HETATM    8  C   UNK N   1      20.219  17.048   2.277  0.00  0.00     0.037 A 
HETATM    9  C   UNK N   1      19.869  16.924   0.924  0.00  0.00     0.019 A 
HETATM   10  C   UNK N   1      19.528  15.685   0.382  0.00  0.00     0.020 A 
HETATM   11  C   UNK N   1      19.515  14.549   1.190  0.00  0.00     0.013 A 
HETATM   12  C   UNK N   1      19.874  14.644   2.534  0.00  0.00     0.049 A 
HETATM   13 Br   UNK N   1      19.083  12.851   0.444  0.00  0.00    -0.051 Br
BRANCH   8  14
HETATM   14  C   UNK N   1      20.552  18.409   2.781  0.00  0.00     0.146 A 
HETATM   15  N   UNK N   1      19.649  19.391   2.966  0.00  0.00    -0.271 N 
HETATM   16  N   UNK N   1      20.338  20.432   3.403  0.00  0.00    -0.225 N 
ATOM     17  HN  UNK N   1      18.644  19.343   2.802  1.00  0.00     0.190 HD
HETATM   18  N   UNK N   1      21.618  20.104   3.499  0.00  0.00    -0.005 NA
HETATM   19  H   UNK N   1      19.958  21.314   3.624  0.00  0.00     0.205 HD
HETATM   20  N   UNK N   1      21.777  18.848   3.124  0.00  0.00    -0.266 N 
ATOM     21  HN  UNK N   1      22.649  18.320   3.097  1.00  0.00     0.186 HD
ENDBRANCH   8  14
ENDBRANCH   1   7
BRANCH   4  22
HETATM   22  C   UNK N   1      21.821  15.774   7.142  0.00  0.00     0.037 A 
HETATM   23  C   UNK N   1      22.105  14.636   7.894  0.00  0.00     0.045 A 
HETATM   24  C   UNK N   1      21.289  14.262   8.963  0.00  0.00     0.050 A 
HETATM   25  C   UNK N   1      20.150  15.025   9.260  0.00  0.00     0.032 A 
HETATM   26  C   UNK N   1      19.845  16.168   8.500  0.00  0.00     0.050 A 
HETATM   27  C   UNK N   1      20.685  16.537   7.443  0.00  0.00     0.045 A 
BRANCH  24  28
HETATM   28  C   UNK N   1      21.590  13.006   9.729  0.00  0.00     0.417 C 
HETATM   29  F   UNK N   1      22.663  13.211  10.576  0.00  0.00    -0.166 F 
HETATM   30  F   UNK N   1      20.480  12.654  10.474  0.00  0.00    -0.166 F 
HETATM   31  F   UNK N   1      21.894  11.962   8.871  0.00  0.00    -0.166 F 
ENDBRANCH  24  28
BRANCH  26  32
HETATM   32  C   UNK N   1      18.584  16.946   8.740  0.00  0.00     0.417 C 
HETATM   33  F   UNK N   1      17.927  16.406   9.832  0.00  0.00    -0.166 F 
HETATM   34  F   UNK N   1      18.856  18.277   9.003  0.00  0.00    -0.166 F 
HETATM   35  F   UNK N   1      17.759  16.863   7.633  0.00  0.00    -0.166 F 
ENDBRANCH  26  32
ENDBRANCH   4  22
TORSDOF 5
ENDMDL
MODEL 2
REMARK VINA RESULT:      -8.3      2.897      3.868
REMARK  5 active torsions:
REMARK  status: ('A' for Active; 'I' for Inactive)
REMARK    1  A    between atoms: C_3  and  C_26 
REMARK    2  A    between atoms: C_4  and  N_8 
REMARK       I    between atoms: N_8  and  C_9 
REMARK       I    between atoms: C_9  and  N_11 
REMARK    3  A    between atoms: N_11  and  C_12 
REMARK    4  A    between atoms: C_14  and  C_22 
REMARK    5  A    between atoms: C_16  and  C_18 
ROOT
HETATM    1  N   UNK N   1      23.153  17.281   5.250  0.00  0.00    -0.308 N 
HETATM    2  C   UNK N   1      22.761  16.114   4.666  0.00  0.00     0.325 C 
HETATM    3  O   UNK N   1      22.918  15.945   3.466  0.00  0.00    -0.247 OA
HETATM    4  N   UNK N   1      22.222  15.107   5.391  0.00  0.00    -0.309 N 
HETATM    5  H   UNK N   1      22.978  17.424   6.208  0.00  0.00     0.170 HD
HETATM    6  H   UNK N   1      22.178  14.224   4.955  0.00  0.00     0.170 HD
ENDROOT
BRANCH   1   7
HETATM    7  C   UNK N   1      23.810  18.298   4.503  0.00  0.00     0.051 A 
HETATM    8  C   UNK N   1      23.104  19.227   3.674  0.00  0.00     0.037 A 
HETATM    9  C   UNK N   1      23.813  20.295   3.105  0.00  0.00     0.019 A 
HETATM   10  C   UNK N   1      25.183  20.443   3.321  0.00  0.00     0.020 A 
HETATM   11  C   UNK N   1      25.872  19.512   4.098  0.00  0.00     0.013 A 
HETATM   12  C   UNK N   1      25.187  18.450   4.686  0.00  0.00     0.049 A 
HETATM   13 Br   UNK N   1      27.735  19.731   4.422  0.00  0.00    -0.051 Br
BRANCH   8  14
HETATM   14  C   UNK N   1      21.648  19.130   3.379  0.00  0.00     0.146 A 
HETATM   15  N   UNK N   1      21.090  18.171   2.617  0.00  0.00    -0.271 N 
HETATM   16  N   UNK N   1      19.796  18.445   2.587  0.00  0.00    -0.225 N 
ATOM     17  HN  UNK N   1      21.565  17.395   2.156  1.00  0.00     0.190 HD
HETATM   18  N   UNK N   1      19.558  19.525   3.315  0.00  0.00    -0.005 NA
HETATM   19  H   UNK N   1      19.116  17.925   2.100  0.00  0.00     0.205 HD
HETATM   20  N   UNK N   1      20.694  19.969   3.824  0.00  0.00    -0.266 N 
ATOM     21  HN  UNK N   1      20.821  20.780   4.429  1.00  0.00     0.186 HD
ENDBRANCH   8  14
ENDBRANCH   1   7
BRANCH   4  22
HETATM   22  C   UNK N   1      21.717  15.188   6.708  0.00  0.00     0.037 A 
HETATM   23  C   UNK N   1      22.142  14.241   7.637  0.00  0.00     0.045 A 
HETATM   24  C   UNK N   1      21.529  14.137   8.887  0.00  0.00     0.050 A 
HETATM   25  C   UNK N   1      20.448  14.977   9.195  0.00  0.00     0.032 A 
HETATM   26  C   UNK N   1      20.000  15.928   8.261  0.00  0.00     0.050 A 
HETATM   27  C   UNK N   1      20.640  16.029   7.020  0.00  0.00     0.045 A 
BRANCH  24  28
HETATM   28  C   UNK N   1      21.975  13.078   9.853  0.00  0.00     0.417 C 
HETATM   29  F   UNK N   1      21.078  12.982  10.901  0.00  0.00    -0.166 F 
HETATM   30  F   UNK N   1      22.041  11.865   9.194  0.00  0.00    -0.166 F 
HETATM   31  F   UNK N   1      23.228  13.371  10.366  0.00  0.00    -0.166 F 
ENDBRANCH  24  28
BRANCH  26  32
HETATM   32  C   UNK N   1      18.789  16.773   8.532  0.00  0.00     0.417 C 
HETATM   33  F   UNK N   1      19.195  18.081   8.735  0.00  0.00    -0.166 F 
HETATM   34  F   UNK N   1      17.907  16.745   7.467  0.00  0.00    -0.166 F 
HETATM   35  F   UNK N   1      18.142  16.322   9.667  0.00  0.00    -0.166 F 
ENDBRANCH  26  32
ENDBRANCH   4  22
TORSDOF 5
ENDMDL
MODEL 3
REMARK VINA RESULT:      -8.3      3.104      4.287
REMARK  5 active torsions:
REMARK  status: ('A' for Active; 'I' for Inactive)
REMARK    1  A    between atoms: C_3  and  C_26 
REMARK    2  A    between atoms: C_4  and  N_8 
REMARK       I    between atoms: N_8  and  C_9 
REMARK       I    between atoms: C_9  and  N_11 
REMARK    3  A    between atoms: N_11  and  C_12 
REMARK    4  A    between atoms: C_14  and  C_22 
REMARK    5  A    between atoms: C_16  and  C_18 
ROOT
HETATM    1  N   UNK N   1      23.045  17.312   5.555  0.00  0.00    -0.308 N 
HETATM    2  C   UNK N   1      23.292  16.045   5.120  0.00  0.00     0.325 C 
HETATM    3  O   UNK N   1      23.677  15.852   3.976  0.00  0.00    -0.247 OA
HETATM    4  N   UNK N   1      23.152  14.977   5.937  0.00  0.00    -0.309 N 
HETATM    5  H   UNK N   1      22.690  17.450   6.463  0.00  0.00     0.170 HD
HETATM    6  H   UNK N   1      23.562  14.133   5.636  0.00  0.00     0.170 HD
ENDROOT
BRANCH   1   7
HETATM    7  C   UNK N   1      23.289  18.441   4.723  0.00  0.00     0.051 A 
HETATM    8  C   UNK N   1      24.600  18.975   4.509  0.00  0.00     0.037 A 
HETATM    9  C   UNK N   1      24.768  19.982   3.549  0.00  0.00     0.019 A 
HETATM   10  C   UNK N   1      23.680  20.475   2.827  0.00  0.00     0.020 A 
HETATM   11  C   UNK N   1      22.400  19.977   3.068  0.00  0.00     0.013 A 
HETATM   12  C   UNK N   1      22.210  18.965   4.007  0.00  0.00     0.049 A 
HETATM   13 Br   UNK N   1      20.919  20.623   2.060  0.00  0.00    -0.051 Br
BRANCH   8  14
HETATM   14  C   UNK N   1      25.809  18.518   5.249  0.00  0.00     0.146 A 
HETATM   15  N   UNK N   1      26.427  19.234   6.207  0.00  0.00    -0.271 N 
HETATM   16  N   UNK N   1      27.454  18.497   6.598  0.00  0.00    -0.225 N 
ATOM     17  HN  UNK N   1      26.162  20.154   6.558  1.00  0.00     0.190 HD
HETATM   18  N   UNK N   1      27.464  17.360   5.918  0.00  0.00    -0.005 NA
HETATM   19  H   UNK N   1      28.108  18.753   7.288  0.00  0.00     0.205 HD
HETATM   20  N   UNK N   1      26.447  17.346   5.075  0.00  0.00    -0.266 N 
ATOM     21  HN  UNK N   1      26.196  16.600   4.426  1.00  0.00     0.186 HD
ENDBRANCH   8  14
ENDBRANCH   1   7
BRANCH   4  22
HETATM   22  C   UNK N   1      22.480  14.945   7.180  0.00  0.00     0.037 A 
HETATM   23  C   UNK N   1      22.770  13.904   8.060  0.00  0.00     0.045 A 
HETATM   24  C   UNK N   1      21.998  13.697   9.204  0.00  0.00     0.050 A 
HETATM   25  C   UNK N   1      20.895  14.528   9.451  0.00  0.00     0.032 A 
HETATM   26  C   UNK N   1      20.583  15.573   8.563  0.00  0.00     0.050 A 
HETATM   27  C   UNK N   1      21.380  15.777   7.430  0.00  0.00     0.045 A 
BRANCH  24  28
HETATM   28  C   UNK N   1      22.303  12.541  10.113  0.00  0.00     0.417 C 
HETATM   29  F   UNK N   1      21.187  12.218  10.862  0.00  0.00    -0.166 F 
HETATM   30  F   UNK N   1      22.672  11.450   9.348  0.00  0.00    -0.166 F 
HETATM   31  F   UNK N   1      23.343  12.848  10.974  0.00  0.00    -0.166 F 
ENDBRANCH  24  28
BRANCH  26  32
HETATM   32  C   UNK N   1      19.356  16.417   8.757  0.00  0.00     0.417 C 
HETATM   33  F   UNK N   1      19.742  17.673   9.191  0.00  0.00    -0.166 F 
HETATM   34  F   UNK N   1      18.650  16.557   7.575  0.00  0.00    -0.166 F 
HETATM   35  F   UNK N   1      18.534  15.844   9.709  0.00  0.00    -0.166 F 
ENDBRANCH  26  32
ENDBRANCH   4  22
TORSDOF 5
ENDMDL
MODEL 4
REMARK VINA RESULT:      -8.0      2.071      3.942
REMARK  5 active torsions:
REMARK  status: ('A' for Active; 'I' for Inactive)
REMARK    1  A    between atoms: C_3  and  C_26 
REMARK    2  A    between atoms: C_4  and  N_8 
REMARK       I    between atoms: N_8  and  C_9 
REMARK       I    between atoms: C_9  and  N_11 
REMARK    3  A    between atoms: N_11  and  C_12 
REMARK    4  A    between atoms: C_14  and  C_22 
REMARK    5  A    between atoms: C_16  and  C_18 
ROOT
HETATM    1  N   UNK N   1      22.280  14.122   4.646  0.00  0.00    -0.308 N 
HETATM    2  C   UNK N   1      23.406  14.546   5.286  0.00  0.00     0.325 C 
HETATM    3  O   UNK N   1      24.456  14.660   4.671  0.00  0.00    -0.247 OA
HETATM    4  N   UNK N   1      23.391  14.880   6.596  0.00  0.00    -0.309 N 
HETATM    5  H   UNK N   1      21.453  13.989   5.163  0.00  0.00     0.170 HD
HETATM    6  H   UNK N   1      24.165  15.389   6.931  0.00  0.00     0.170 HD
ENDROOT
BRANCH   1   7
HETATM    7  C   UNK N   1      22.276  13.867   3.246  0.00  0.00     0.051 A 
HETATM    8  C   UNK N   1      21.730  14.786   2.295  0.00  0.00     0.037 A 
HETATM    9  C   UNK N   1      21.915  14.530   0.928  0.00  0.00     0.019 A 
HETATM   10  C   UNK N   1      22.599  13.393   0.497  0.00  0.00     0.020 A 
HETATM   11  C   UNK N   1      23.095  12.482   1.429  0.00  0.00     0.013 A 
HETATM   12  C   UNK N   1      22.936  12.722   2.793  0.00  0.00     0.049 A 
HETATM   13 Br   UNK N   1      24.059  10.948   0.844  0.00  0.00    -0.051 Br
BRANCH   8  14
HETATM   14  C   UNK N   1      20.972  16.012   2.670  0.00  0.00     0.146 A 
HETATM   15  N   UNK N   1      19.630  16.110   2.649  0.00  0.00    -0.271 N 
HETATM   16  N   UNK N   1      19.356  17.347   3.031  0.00  0.00    -0.225 N 
ATOM     17  HN  UNK N   1      18.962  15.384   2.392  1.00  0.00     0.190 HD
HETATM   18  N   UNK N   1      20.485  17.988   3.292  0.00  0.00    -0.005 NA
HETATM   19  H   UNK N   1      18.452  17.731   3.109  0.00  0.00     0.205 HD
HETATM   20  N   UNK N   1      21.506  17.177   3.081  0.00  0.00    -0.266 N 
ATOM     21  HN  UNK N   1      22.497  17.390   3.203  1.00  0.00     0.186 HD
ENDBRANCH   8  14
ENDBRANCH   1   7
BRANCH   4  22
HETATM   22  C   UNK N   1      22.380  14.576   7.536  0.00  0.00     0.037 A 
HETATM   23  C   UNK N   1      21.315  15.464   7.668  0.00  0.00     0.045 A 
HETATM   24  C   UNK N   1      20.398  15.334   8.713  0.00  0.00     0.050 A 
HETATM   25  C   UNK N   1      20.576  14.315   9.661  0.00  0.00     0.032 A 
HETATM   26  C   UNK N   1      21.655  13.421   9.547  0.00  0.00     0.050 A 
HETATM   27  C   UNK N   1      22.553  13.557   8.482  0.00  0.00     0.045 A 
BRANCH  24  28
HETATM   28  C   UNK N   1      19.284  16.330   8.860  0.00  0.00     0.417 C 
HETATM   29  F   UNK N   1      18.672  16.542   7.639  0.00  0.00    -0.166 F 
HETATM   30  F   UNK N   1      18.356  15.839   9.759  0.00  0.00    -0.166 F 
HETATM   31  F   UNK N   1      19.761  17.541   9.335  0.00  0.00    -0.166 F 
ENDBRANCH  24  28
BRANCH  26  32
HETATM   32  C   UNK N   1      21.918  12.382  10.599  0.00  0.00     0.417 C 
HETATM   33  F   UNK N   1      22.392  11.236   9.985  0.00  0.00    -0.166 F 
HETATM   34  F   UNK N   1      22.864  12.817  11.511  0.00  0.00    -0.166 F 
HETATM   35  F   UNK N   1      20.748  12.082  11.270  0.00  0.00    -0.166 F 
ENDBRANCH  26  32
ENDBRANCH   4  22
TORSDOF 5
ENDMDL
MODEL 5
REMARK VINA RESULT:      -8.0      5.835      7.294
REMARK  5 active torsions:
REMARK  status: ('A' for Active; 'I' for Inactive)
REMARK    1  A    between atoms: C_3  and  C_26 
REMARK    2  A    between atoms: C_4  and  N_8 
REMARK       I    between atoms: N_8  and  C_9 
REMARK       I    between atoms: C_9  and  N_11 
REMARK    3  A    between atoms: N_11  and  C_12 
REMARK    4  A    between atoms: C_14  and  C_22 
REMARK    5  A    between atoms: C_16  and  C_18 
ROOT
HETATM    1  N   UNK N   1      25.145  15.850   6.538  0.00  0.00    -0.308 N 
HETATM    2  C   UNK N   1      26.009  15.556   5.527  0.00  0.00     0.325 C 
HETATM    3  O   UNK N   1      25.850  14.547   4.857  0.00  0.00    -0.247 OA
HETATM    4  N   UNK N   1      27.038  16.377   5.215  0.00  0.00    -0.309 N 
HETATM    5  H   UNK N   1      25.311  16.641   7.100  0.00  0.00     0.170 HD
HETATM    6  H   UNK N   1      27.474  16.227   4.345  0.00  0.00     0.170 HD
ENDROOT
BRANCH   1   7
HETATM    7  C   UNK N   1      24.006  15.038   6.798  0.00  0.00     0.051 A 
HETATM    8  C   UNK N   1      22.714  15.319   6.250  0.00  0.00     0.037 A 
HETATM    9  C   UNK N   1      21.690  14.377   6.424  0.00  0.00     0.019 A 
HETATM   10  C   UNK N   1      21.913  13.197   7.135  0.00  0.00     0.020 A 
HETATM   11  C   UNK N   1      23.163  12.948   7.699  0.00  0.00     0.013 A 
HETATM   12  C   UNK N   1      24.201  13.862   7.527  0.00  0.00     0.049 A 
HETATM   13 Br   UNK N   1      23.479  11.323   8.641  0.00  0.00    -0.051 Br
BRANCH   8  14
HETATM   14  C   UNK N   1      22.389  16.560   5.495  0.00  0.00     0.146 A 
HETATM   15  N   UNK N   1      21.830  17.656   6.041  0.00  0.00    -0.271 N 
HETATM   16  N   UNK N   1      21.691  18.520   5.049  0.00  0.00    -0.225 N 
ATOM     17  HN  UNK N   1      21.568  17.793   7.017  1.00  0.00     0.190 HD
HETATM   18  N   UNK N   1      22.158  17.984   3.931  0.00  0.00    -0.005 NA
HETATM   19  H   UNK N   1      21.301  19.420   5.129  0.00  0.00     0.205 HD
HETATM   20  N   UNK N   1      22.604  16.767   4.182  0.00  0.00    -0.266 N 
ATOM     21  HN  UNK N   1      23.024  16.116   3.518  1.00  0.00     0.186 HD
ENDBRANCH   8  14
ENDBRANCH   1   7
BRANCH   4  22
HETATM   22  C   UNK N   1      27.553  17.427   6.008  0.00  0.00     0.037 A 
HETATM   23  C   UNK N   1      28.213  17.099   7.189  0.00  0.00     0.045 A 
HETATM   24  C   UNK N   1      28.559  18.085   8.115  0.00  0.00     0.050 A 
HETATM   25  C   UNK N   1      28.205  19.419   7.865  0.00  0.00     0.032 A 
HETATM   26  C   UNK N   1      27.526  19.762   6.682  0.00  0.00     0.050 A 
HETATM   27  C   UNK N   1      27.204  18.761   5.757  0.00  0.00     0.045 A 
BRANCH  24  28
HETATM   28  C   UNK N   1      29.229  17.700   9.402  0.00  0.00     0.417 C 
HETATM   29  F   UNK N   1      28.401  16.879  10.144  0.00  0.00    -0.166 F 
HETATM   30  F   UNK N   1      30.403  17.028   9.117  0.00  0.00    -0.166 F 
HETATM   31  F   UNK N   1      29.535  18.821  10.157  0.00  0.00    -0.166 F 
ENDBRANCH  24  28
BRANCH  26  32
HETATM   32  C   UNK N   1      27.057  21.166   6.435  0.00  0.00     0.417 C 
HETATM   33  F   UNK N   1      28.148  22.017   6.483  0.00  0.00    -0.166 F 
HETATM   34  F   UNK N   1      26.459  21.286   5.193  0.00  0.00    -0.166 F 
HETATM   35  F   UNK N   1      26.151  21.541   7.410  0.00  0.00    -0.166 F 
ENDBRANCH  26  32
ENDBRANCH   4  22
TORSDOF 5
ENDMDL
MODEL 6
REMARK VINA RESULT:      -7.9     13.007     15.339
REMARK  5 active torsions:
REMARK  status: ('A' for Active; 'I' for Inactive)
REMARK    1  A    between atoms: C_3  and  C_26 
REMARK    2  A    between atoms: C_4  and  N_8 
REMARK       I    between atoms: N_8  and  C_9 
REMARK       I    between atoms: C_9  and  N_11 
REMARK    3  A    between atoms: N_11  and  C_12 
REMARK    4  A    between atoms: C_14  and  C_22 
REMARK    5  A    between atoms: C_16  and  C_18 
ROOT
HETATM    1  N   UNK N   1      34.774  15.405   9.770  0.00  0.00    -0.308 N 
HETATM    2  C   UNK N   1      35.027  16.743   9.813  0.00  0.00     0.325 C 
HETATM    3  O   UNK N   1      35.894  17.181  10.554  0.00  0.00    -0.247 OA
HETATM    4  N   UNK N   1      34.358  17.614   9.023  0.00  0.00    -0.309 N 
HETATM    5  H   UNK N   1      34.042  15.070   9.204  0.00  0.00     0.170 HD
HETATM    6  H   UNK N   1      34.743  18.516   8.937  0.00  0.00     0.170 HD
ENDROOT
BRANCH   1   7
HETATM    7  C   UNK N   1      35.548  14.481  10.527  0.00  0.00     0.051 A 
HETATM    8  C   UNK N   1      36.688  13.803   9.989  0.00  0.00     0.037 A 
HETATM    9  C   UNK N   1      37.486  13.039  10.852  0.00  0.00     0.019 A 
HETATM   10  C   UNK N   1      37.169  12.919  12.206  0.00  0.00     0.020 A 
HETATM   11  C   UNK N   1      36.035  13.551  12.716  0.00  0.00     0.013 A 
HETATM   12  C   UNK N   1      35.234  14.328  11.881  0.00  0.00     0.049 A 
HETATM   13 Br   UNK N   1      35.620  13.417  14.569  0.00  0.00    -0.051 Br
BRANCH   8  14
HETATM   14  C   UNK N   1      37.085  13.864   8.555  0.00  0.00     0.146 A 
HETATM   15  N   UNK N   1      38.355  13.792   8.116  0.00  0.00    -0.271 N 
HETATM   16  N   UNK N   1      38.285  13.898   6.799  0.00  0.00    -0.225 N 
ATOM     17  HN  UNK N   1      39.197  13.680   8.680  1.00  0.00     0.190 HD
HETATM   18  N   UNK N   1      37.017  14.017   6.434  0.00  0.00    -0.005 NA
HETATM   19  H   UNK N   1      39.056  13.889   6.186  0.00  0.00     0.205 HD
HETATM   20  N   UNK N   1      36.249  13.993   7.508  0.00  0.00    -0.266 N 
ATOM     21  HN  UNK N   1      35.231  14.060   7.538  1.00  0.00     0.186 HD
ENDBRANCH   8  14
ENDBRANCH   1   7
BRANCH   4  22
HETATM   22  C   UNK N   1      33.164  17.364   8.309  0.00  0.00     0.037 A 
HETATM   23  C   UNK N   1      33.229  17.300   6.920  0.00  0.00     0.045 A 
HETATM   24  C   UNK N   1      32.065  17.266   6.149  0.00  0.00     0.050 A 
HETATM   25  C   UNK N   1      30.816  17.331   6.784  0.00  0.00     0.032 A 
HETATM   26  C   UNK N   1      30.738  17.410   8.186  0.00  0.00     0.050 A 
HETATM   27  C   UNK N   1      31.916  17.426   8.943  0.00  0.00     0.045 A 
BRANCH  24  28
HETATM   28  C   UNK N   1      32.161  17.242   4.650  0.00  0.00     0.417 C 
HETATM   29  F   UNK N   1      32.391  15.952   4.209  0.00  0.00    -0.166 F 
HETATM   30  F   UNK N   1      30.974  17.705   4.115  0.00  0.00    -0.166 F 
HETATM   31  F   UNK N   1      33.192  18.054   4.206  0.00  0.00    -0.166 F 
ENDBRANCH  24  28
BRANCH  26  32
HETATM   32  C   UNK N   1      29.418  17.574   8.882  0.00  0.00     0.417 C 
HETATM   33  F   UNK N   1      29.427  16.818  10.041  0.00  0.00    -0.166 F 
HETATM   34  F   UNK N   1      29.188  18.897   9.221  0.00  0.00    -0.166 F 
HETATM   35  F   UNK N   1      28.394  17.133   8.065  0.00  0.00    -0.166 F 
ENDBRANCH  26  32
ENDBRANCH   4  22
TORSDOF 5
ENDMDL
MODEL 7
REMARK VINA RESULT:      -7.9     15.078     17.314
REMARK  5 active torsions:
REMARK  status: ('A' for Active; 'I' for Inactive)
REMARK    1  A    between atoms: C_3  and  C_26 
REMARK    2  A    between atoms: C_4  and  N_8 
REMARK       I    between atoms: N_8  and  C_9 
REMARK       I    between atoms: C_9  and  N_11 
REMARK    3  A    between atoms: N_11  and  C_12 
REMARK    4  A    between atoms: C_14  and  C_22 
REMARK    5  A    between atoms: C_16  and  C_18 
ROOT
HETATM    1  N   UNK N   1      35.606  12.116  11.862  0.00  0.00    -0.308 N 
HETATM    2  C   UNK N   1      36.960  12.265  11.841  0.00  0.00     0.325 C 
HETATM    3  O   UNK N   1      37.547  12.394  10.777  0.00  0.00    -0.247 OA
HETATM    4  N   UNK N   1      37.684  12.310  12.983  0.00  0.00    -0.309 N 
HETATM    5  H   UNK N   1      35.150  11.966  12.722  0.00  0.00     0.170 HD
HETATM    6  H   UNK N   1      38.606  12.647  12.908  0.00  0.00     0.170 HD
ENDROOT
BRANCH   1   7
HETATM    7  C   UNK N   1      34.837  12.170  10.665  0.00  0.00     0.051 A 
HETATM    8  C   UNK N   1      34.661  13.375   9.914  0.00  0.00     0.037 A 
HETATM    9  C   UNK N   1      34.027  13.303   8.665  0.00  0.00     0.019 A 
HETATM   10  C   UNK N   1      33.555  12.087   8.169  0.00  0.00     0.020 A 
HETATM   11  C   UNK N   1      33.695  10.924   8.924  0.00  0.00     0.013 A 
HETATM   12  C   UNK N   1      34.335  10.968  10.162  0.00  0.00     0.049 A 
HETATM   13 Br   UNK N   1      33.082   9.258   8.234  0.00  0.00    -0.051 Br
BRANCH   8  14
HETATM   14  C   UNK N   1      35.119  14.714  10.379  0.00  0.00     0.146 A 
HETATM   15  N   UNK N   1      34.327  15.617  10.987  0.00  0.00    -0.271 N 
HETATM   16  N   UNK N   1      35.098  16.666  11.223  0.00  0.00    -0.225 N 
ATOM     17  HN  UNK N   1      33.339  15.515  11.217  1.00  0.00     0.190 HD
HETATM   18  N   UNK N   1      36.325  16.418  10.789  0.00  0.00    -0.005 NA
HETATM   19  H   UNK N   1      34.805  17.502  11.654  0.00  0.00     0.205 HD
HETATM   20  N   UNK N   1      36.366  15.207  10.265  0.00  0.00    -0.266 N 
ATOM     21  HN  UNK N   1      37.177  14.740   9.856  1.00  0.00     0.186 HD
ENDBRANCH   8  14
ENDBRANCH   1   7
BRANCH   4  22
HETATM   22  C   UNK N   1      37.254  11.923  14.273  0.00  0.00     0.037 A 
HETATM   23  C   UNK N   1      37.269  10.568  14.593  0.00  0.00     0.045 A 
HETATM   24  C   UNK N   1      36.667  10.102  15.764  0.00  0.00     0.050 A 
HETATM   25  C   UNK N   1      36.010  11.009  16.608  0.00  0.00     0.032 A 
HETATM   26  C   UNK N   1      35.976  12.378  16.289  0.00  0.00     0.050 A 
HETATM   27  C   UNK N   1      36.601  12.828  15.120  0.00  0.00     0.045 A 
BRANCH  24  28
HETATM   28  C   UNK N   1      36.657   8.631  16.065  0.00  0.00     0.417 C 
HETATM   29  F   UNK N   1      35.674   8.342  16.993  0.00  0.00    -0.166 F 
HETATM   30  F   UNK N   1      36.405   7.933  14.899  0.00  0.00    -0.166 F 
HETATM   31  F   UNK N   1      37.880   8.219  16.570  0.00  0.00    -0.166 F 
ENDBRANCH  24  28
BRANCH  26  32
HETATM   32  C   UNK N   1      35.201  13.352  17.128  0.00  0.00     0.417 C 
HETATM   33  F   UNK N   1      34.996  12.799  18.380  0.00  0.00    -0.166 F 
HETATM   34  F   UNK N   1      35.889  14.544  17.280  0.00  0.00    -0.166 F 
HETATM   35  F   UNK N   1      33.975  13.609  16.544  0.00  0.00    -0.166 F 
ENDBRANCH  26  32
ENDBRANCH   4  22
TORSDOF 5
ENDMDL
MODEL 8
REMARK VINA RESULT:      -7.8      3.579      5.094
REMARK  5 active torsions:
REMARK  status: ('A' for Active; 'I' for Inactive)
REMARK    1  A    between atoms: C_3  and  C_26 
REMARK    2  A    between atoms: C_4  and  N_8 
REMARK       I    between atoms: N_8  and  C_9 
REMARK       I    between atoms: C_9  and  N_11 
REMARK    3  A    between atoms: N_11  and  C_12 
REMARK    4  A    between atoms: C_14  and  C_22 
REMARK    5  A    between atoms: C_16  and  C_18 
ROOT
HETATM    1  N   UNK N   1      22.485  17.356   5.186  0.00  0.00    -0.308 N 
HETATM    2  C   UNK N   1      21.642  17.646   6.216  0.00  0.00     0.325 C 
HETATM    3  O   UNK N   1      21.437  18.808   6.533  0.00  0.00    -0.247 OA
HETATM    4  N   UNK N   1      20.988  16.672   6.890  0.00  0.00    -0.309 N 
HETATM    5  H   UNK N   1      22.678  16.415   4.970  0.00  0.00     0.170 HD
HETATM    6  H   UNK N   1      20.234  16.957   7.455  0.00  0.00     0.170 HD
ENDROOT
BRANCH   1   7
HETATM    7  C   UNK N   1      23.093  18.386   4.415  0.00  0.00     0.051 A 
HETATM    8  C   UNK N   1      22.376  19.143   3.434  0.00  0.00     0.037 A 
HETATM    9  C   UNK N   1      23.008  20.245   2.840  0.00  0.00     0.019 A 
HETATM   10  C   UNK N   1      24.317  20.589   3.177  0.00  0.00     0.020 A 
HETATM   11  C   UNK N   1      25.023  19.824   4.105  0.00  0.00     0.013 A 
HETATM   12  C   UNK N   1      24.411  18.733   4.720  0.00  0.00     0.049 A 
HETATM   13 Br   UNK N   1      26.798  20.313   4.592  0.00  0.00    -0.051 Br
BRANCH   8  14
HETATM   14  C   UNK N   1      20.984  18.832   3.004  0.00  0.00     0.146 A 
HETATM   15  N   UNK N   1      20.633  17.735   2.308  0.00  0.00    -0.271 N 
HETATM   16  N   UNK N   1      19.329  17.837   2.114  0.00  0.00    -0.225 N 
ATOM     17  HN  UNK N   1      21.244  16.982   1.993  1.00  0.00     0.190 HD
HETATM   18  N   UNK N   1      18.885  18.949   2.681  0.00  0.00    -0.005 NA
HETATM   19  H   UNK N   1      18.774  17.187   1.624  0.00  0.00     0.205 HD
HETATM   20  N   UNK N   1      19.895  19.584   3.247  0.00  0.00    -0.266 N 
ATOM     21  HN  UNK N   1      19.858  20.464   3.762  1.00  0.00     0.186 HD
ENDBRANCH   8  14
ENDBRANCH   1   7
BRANCH   4  22
HETATM   22  C   UNK N   1      21.275  15.288   6.867  0.00  0.00     0.037 A 
HETATM   23  C   UNK N   1      20.574  14.485   5.971  0.00  0.00     0.045 A 
HETATM   24  C   UNK N   1      20.657  13.093   6.041  0.00  0.00     0.050 A 
HETATM   25  C   UNK N   1      21.430  12.498   7.050  0.00  0.00     0.032 A 
HETATM   26  C   UNK N   1      22.131  13.299   7.969  0.00  0.00     0.050 A 
HETATM   27  C   UNK N   1      22.050  14.693   7.872  0.00  0.00     0.045 A 
BRANCH  24  28
HETATM   28  C   UNK N   1      19.856  12.248   5.093  0.00  0.00     0.417 C 
HETATM   29  F   UNK N   1      18.679  12.891   4.760  0.00  0.00    -0.166 F 
HETATM   30  F   UNK N   1      20.598  12.028   3.947  0.00  0.00    -0.166 F 
HETATM   31  F   UNK N   1      19.548  11.021   5.660  0.00  0.00    -0.166 F 
ENDBRANCH  24  28
BRANCH  26  32
HETATM   32  C   UNK N   1      22.889  12.687   9.112  0.00  0.00     0.417 C 
HETATM   33  F   UNK N   1      24.212  12.533   8.738  0.00  0.00    -0.166 F 
HETATM   34  F   UNK N   1      22.840  13.492  10.237  0.00  0.00    -0.166 F 
HETATM   35  F   UNK N   1      22.361  11.447   9.420  0.00  0.00    -0.166 F 
ENDBRANCH  26  32
ENDBRANCH   4  22
TORSDOF 5
ENDMDL
MODEL 9
REMARK VINA RESULT:      -7.8     13.169     15.384
REMARK  5 active torsions:
REMARK  status: ('A' for Active; 'I' for Inactive)
REMARK    1  A    between atoms: C_3  and  C_26 
REMARK    2  A    between atoms: C_4  and  N_8 
REMARK       I    between atoms: N_8  and  C_9 
REMARK       I    between atoms: C_9  and  N_11 
REMARK    3  A    between atoms: N_11  and  C_12 
REMARK    4  A    between atoms: C_14  and  C_22 
REMARK    5  A    between atoms: C_16  and  C_18 
ROOT
HETATM    1  N   UNK N   1      33.482  16.050   9.376  0.00  0.00    -0.308 N 
HETATM    2  C   UNK N   1      34.530  16.895   9.584  0.00  0.00     0.325 C 
HETATM    3  O   UNK N   1      34.576  17.970   9.004  0.00  0.00    -0.247 OA
HETATM    4  N   UNK N   1      35.523  16.592  10.450  0.00  0.00    -0.309 N 
HETATM    5  H   UNK N   1      33.480  15.168   9.813  0.00  0.00     0.170 HD
HETATM    6  H   UNK N   1      36.114  17.331  10.721  0.00  0.00     0.170 HD
ENDROOT
BRANCH   1   7
HETATM    7  C   UNK N   1      32.390  16.417   8.541  0.00  0.00     0.051 A 
HETATM    8  C   UNK N   1      32.359  16.133   7.139  0.00  0.00     0.037 A 
HETATM    9  C   UNK N   1      31.177  16.381   6.427  0.00  0.00     0.019 A 
HETATM   10  C   UNK N   1      30.056  16.915   7.062  0.00  0.00     0.020 A 
HETATM   11  C   UNK N   1      30.105  17.226   8.421  0.00  0.00     0.013 A 
HETATM   12  C   UNK N   1      31.264  16.974   9.153  0.00  0.00     0.049 A 
HETATM   13 Br   UNK N   1      28.565  17.923   9.297  0.00  0.00    -0.051 Br
BRANCH   8  14
HETATM   14  C   UNK N   1      33.517  15.579   6.382  0.00  0.00     0.146 A 
HETATM   15  N   UNK N   1      33.552  14.346   5.845  0.00  0.00    -0.271 N 
HETATM   16  N   UNK N   1      34.742  14.235   5.279  0.00  0.00    -0.225 N 
ATOM     17  HN  UNK N   1      32.815  13.641   5.869  1.00  0.00     0.190 HD
HETATM   18  N   UNK N   1      35.415  15.364   5.448  0.00  0.00    -0.005 NA
HETATM   19  H   UNK N   1      35.076  13.439   4.806  0.00  0.00     0.205 HD
HETATM   20  N   UNK N   1      34.673  16.219   6.126  0.00  0.00    -0.266 N 
ATOM     21  HN  UNK N   1      34.923  17.169   6.401  1.00  0.00     0.186 HD
ENDBRANCH   8  14
ENDBRANCH   1   7
BRANCH   4  22
HETATM   22  C   UNK N   1      35.800  15.323  11.008  0.00  0.00     0.037 A 
HETATM   23  C   UNK N   1      35.874  15.215  12.395  0.00  0.00     0.045 A 
HETATM   24  C   UNK N   1      36.346  14.048  12.999  0.00  0.00     0.050 A 
HETATM   25  C   UNK N   1      36.784  12.985  12.195  0.00  0.00     0.032 A 
HETATM   26  C   UNK N   1      36.728  13.087  10.794  0.00  0.00     0.050 A 
HETATM   27  C   UNK N   1      36.234  14.259  10.207  0.00  0.00     0.045 A 
BRANCH  24  28
HETATM   28  C   UNK N   1      36.459  13.973  14.494  0.00  0.00     0.417 C 
HETATM   29  F   UNK N   1      35.219  13.724  15.052  0.00  0.00    -0.166 F 
HETATM   30  F   UNK N   1      37.326  12.951  14.831  0.00  0.00    -0.166 F 
HETATM   31  F   UNK N   1      36.951  15.159  15.015  0.00  0.00    -0.166 F 
ENDBRANCH  24  28
BRANCH  26  32
HETATM   32  C   UNK N   1      37.275  12.001   9.913  0.00  0.00     0.417 C 
HETATM   33  F   UNK N   1      38.515  11.618  10.396  0.00  0.00    -0.166 F 
HETATM   34  F   UNK N   1      36.445  10.894   9.903  0.00  0.00    -0.166 F 
HETATM   35  F   UNK N   1      37.421  12.469   8.621  0.00  0.00    -0.166 F 
ENDBRANCH  26  32
ENDBRANCH   4  22
TORSDOF 5
ENDMDL
