MODEL 1
REMARK VINA RESULT:      -6.4      0.000      0.000
REMARK  7 active torsions:
REMARK  status: ('A' for Active; 'I' for Inactive)
REMARK    1  A    between atoms: O_3  and  C_17 
REMARK    2  A    between atoms: O_4  and  C_18 
REMARK    3  A    between atoms: C_20  and  O_5 
REMARK    4  A    between atoms: O_6  and  C_21 
REMARK    5  A    between atoms: O_8  and  C_22 
REMARK    6  A    between atoms: O_9  and  C_23 
REMARK       I    between atoms: N_13  and  C_24 
REMARK    7  A    between atoms: C_18  and  C_23 
ROOT
HETATM    1  O   UNK N   1      34.301  17.009   7.674  0.00  0.00    -0.322 OA
HETATM    2  O   UNK N   1      33.026  15.197   8.410  0.00  0.00    -0.319 OA
HETATM    3  N   UNK N   1      36.855  14.860  10.809  0.00  0.00    -0.211 N 
HETATM    4  N   UNK N   1      34.961  13.932  11.860  0.00  0.00    -0.200 N 
ATOM      5  HN  UNK N   1      34.518  13.461  12.649  1.00  0.00     0.180 HD
HETATM    6  N   UNK N   1      36.972  13.842  13.041  0.00  0.00    -0.235 N 
HETATM    7  C   UNK N   1      36.181  15.291   9.589  0.00  0.00     0.119 A 
HETATM    8  C   UNK N   1      35.171  14.957   9.445  0.00  0.00     0.101 A 
HETATM    9  C   UNK N   1      35.150  15.901   7.621  0.00  0.00     0.177 C 
HETATM   10  C   UNK N   1      35.507  13.824   8.687  0.00  0.00     0.182 A 
HETATM   11  C   UNK N   1      34.576  14.954   6.581  0.00  0.00     0.134 C 
HETATM   12  C   UNK N   1      33.964  14.176   7.655  0.00  0.00     0.198 C 
HETATM   13  C   UNK N   1      35.064  16.620   9.913  0.00  0.00     0.243 C 
HETATM   14  C   UNK N   1      33.646  16.602   8.784  0.00  0.00     0.311 C 
HETATM   15  C   UNK N   1      34.170  14.289  10.709  0.00  0.00     0.244 C 
HETATM   16  C   UNK N   1      36.218  14.199  11.903  0.00  0.00     0.670 C 
HETATM   17  H   UNK N   1      37.821  15.036  10.884  0.00  0.00     0.178 HD
HETATM   18  H   UNK N   1      36.760  14.240  13.917  0.00  0.00     0.174 HD
HETATM   19  H   UNK N   1      37.709  13.195  12.960  0.00  0.00     0.174 HD
ENDROOT
BRANCH  11  20
HETATM   20  O   UNK N   1      33.610  15.533   5.749  0.00  0.00    -0.382 OA
HETATM   21  H   UNK N   1      32.674  15.519   6.006  0.00  0.00     0.210 HD
ENDBRANCH  11  20
BRANCH  11  22
HETATM   22  C   UNK N   1      35.577  14.165   5.725  0.00  0.00     0.207 C 
BRANCH  22  23
HETATM   23  O   UNK N   1      36.819  14.801   5.637  0.00  0.00    -0.398 OA
HETATM   24  H   UNK N   1      37.639  14.861   5.122  0.00  0.00     0.209 HD
ENDBRANCH  22  23
ENDBRANCH  11  22
BRANCH  10  25
HETATM   25  O   UNK N   1      36.476  12.987   8.106  0.00  0.00    -0.390 OA
HETATM   26  H   UNK N   1      36.271  12.496   7.295  0.00  0.00     0.210 HD
ENDBRANCH  10  25
BRANCH  14  27
HETATM   27  O   UNK N   1      32.665  17.528   9.137  0.00  0.00    -0.341 OA
ATOM     28  HO  UNK N   1      33.057  18.373   9.320  1.00  0.00     0.215 HD
ENDBRANCH  14  27
BRANCH  15  29
HETATM   29  O   UNK N   1      33.057  15.043  11.096  0.00  0.00    -0.376 OA
HETATM   30  H   UNK N   1      32.158  14.736  10.902  0.00  0.00     0.212 HD
ENDBRANCH  15  29
BRANCH  13  31
HETATM   31  O   UNK N   1      34.775  16.904  11.261  0.00  0.00    -0.385 OA
HETATM   32  H   UNK N   1      33.863  16.852  11.591  0.00  0.00     0.210 HD
ENDBRANCH  13  31
TORSDOF 7
ENDMDL
MODEL 2
REMARK VINA RESULT:      -6.3      3.443      5.084
REMARK  7 active torsions:
REMARK  status: ('A' for Active; 'I' for Inactive)
REMARK    1  A    between atoms: O_3  and  C_17 
REMARK    2  A    between atoms: O_4  and  C_18 
REMARK    3  A    between atoms: C_20  and  O_5 
REMARK    4  A    between atoms: O_6  and  C_21 
REMARK    5  A    between atoms: O_8  and  C_22 
REMARK    6  A    between atoms: O_9  and  C_23 
REMARK       I    between atoms: N_13  and  C_24 
REMARK    7  A    between atoms: C_18  and  C_23 
ROOT
HETATM    1  O   UNK N   1      34.049  15.638  10.123  0.00  0.00    -0.322 OA
HETATM    2  O   UNK N   1      35.245  15.635   8.119  0.00  0.00    -0.319 OA
HETATM    3  N   UNK N   1      30.972  16.394   6.816  0.00  0.00    -0.211 N 
HETATM    4  N   UNK N   1      32.606  17.270   5.361  0.00  0.00    -0.200 N 
ATOM      5  HN  UNK N   1      32.870  17.784   4.521  1.00  0.00     0.180 HD
HETATM    6  N   UNK N   1      30.374  17.650   4.792  0.00  0.00    -0.235 N 
HETATM    7  C   UNK N   1      31.898  15.805   7.779  0.00  0.00     0.119 A 
HETATM    8  C   UNK N   1      32.936  15.783   7.507  0.00  0.00     0.101 A 
HETATM    9  C   UNK N   1      33.343  14.795   9.261  0.00  0.00     0.177 C 
HETATM   10  C   UNK N   1      32.908  14.490   6.960  0.00  0.00     0.182 A 
HETATM   11  C   UNK N   1      34.247  13.611   8.963  0.00  0.00     0.134 C 
HETATM   12  C   UNK N   1      34.627  14.243   7.703  0.00  0.00     0.198 C 
HETATM   13  C   UNK N   1      32.771  17.053   8.671  0.00  0.00     0.243 C 
HETATM   14  C   UNK N   1      34.428  16.503   9.157  0.00  0.00     0.311 C 
HETATM   15  C   UNK N   1      33.632  16.729   6.216  0.00  0.00     0.244 C 
HETATM   16  C   UNK N   1      31.362  17.110   5.643  0.00  0.00     0.670 C 
HETATM   17  H   UNK N   1      30.008  16.290   6.987  0.00  0.00     0.178 HD
HETATM   18  H   UNK N   1      30.317  18.624   4.660  0.00  0.00     0.174 HD
HETATM   19  H   UNK N   1      29.743  17.052   4.330  0.00  0.00     0.174 HD
ENDROOT
BRANCH  11  20
HETATM   20  O   UNK N   1      35.341  13.492   9.831  0.00  0.00    -0.382 OA
HETATM   21  H   UNK N   1      35.315  13.910  10.706  0.00  0.00     0.210 HD
ENDBRANCH  11  20
BRANCH  11  22
HETATM   22  C   UNK N   1      33.574  12.241   8.801  0.00  0.00     0.207 C 
BRANCH  22  23
HETATM   23  O   UNK N   1      32.316  12.191   9.409  0.00  0.00    -0.398 OA
HETATM   24  H   UNK N   1      31.705  12.662   9.997  0.00  0.00     0.209 HD
ENDBRANCH  22  23
ENDBRANCH  11  22
BRANCH  10  25
HETATM   25  O   UNK N   1      32.199  13.327   6.612  0.00  0.00    -0.390 OA
HETATM   26  H   UNK N   1      32.539  12.455   6.870  0.00  0.00     0.210 HD
ENDBRANCH  10  25
BRANCH  14  27
HETATM   27  O   UNK N   1      35.200  17.531   9.699  0.00  0.00    -0.341 OA
ATOM     28  HO  UNK N   1      35.140  18.311   9.161  1.00  0.00     0.215 HD
ENDBRANCH  14  27
BRANCH  15  29
HETATM   29  O   UNK N   1      34.537  17.730   6.587  0.00  0.00    -0.376 OA
HETATM   30  H   UNK N   1      34.743  17.891   7.520  0.00  0.00     0.212 HD
ENDBRANCH  15  29
BRANCH  13  31
HETATM   31  O   UNK N   1      32.677  18.374   8.190  0.00  0.00    -0.385 OA
HETATM   32  H   UNK N   1      33.466  18.838   7.868  0.00  0.00     0.210 HD
ENDBRANCH  13  31
TORSDOF 7
ENDMDL
MODEL 3
REMARK VINA RESULT:      -6.2      3.163      5.296
REMARK  7 active torsions:
REMARK  status: ('A' for Active; 'I' for Inactive)
REMARK    1  A    between atoms: O_3  and  C_17 
REMARK    2  A    between atoms: O_4  and  C_18 
REMARK    3  A    between atoms: C_20  and  O_5 
REMARK    4  A    between atoms: O_6  and  C_21 
REMARK    5  A    between atoms: O_8  and  C_22 
REMARK    6  A    between atoms: O_9  and  C_23 
REMARK       I    between atoms: N_13  and  C_24 
REMARK    7  A    between atoms: C_18  and  C_23 
ROOT
HETATM    1  O   UNK N   1      31.136  15.217   5.577  0.00  0.00    -0.322 OA
HETATM    2  O   UNK N   1      31.698  17.481   5.531  0.00  0.00    -0.319 OA
HETATM    3  N   UNK N   1      33.273  16.065   9.537  0.00  0.00    -0.211 N 
HETATM    4  N   UNK N   1      34.426  17.911   8.632  0.00  0.00    -0.200 N 
ATOM      5  HN  UNK N   1      35.167  18.611   8.677  1.00  0.00     0.180 HD
HETATM    6  N   UNK N   1      35.196  17.085  10.675  0.00  0.00    -0.235 N 
HETATM    7  C   UNK N   1      32.303  15.922   8.456  0.00  0.00     0.119 A 
HETATM    8  C   UNK N   1      32.272  16.704   7.721  0.00  0.00     0.101 A 
HETATM    9  C   UNK N   1      30.711  15.737   6.802  0.00  0.00     0.177 C 
HETATM   10  C   UNK N   1      31.252  17.440   8.345  0.00  0.00     0.182 A 
HETATM   11  C   UNK N   1      29.616  16.745   6.497  0.00  0.00     0.134 C 
HETATM   12  C   UNK N   1      30.599  17.819   6.614  0.00  0.00     0.198 C 
HETATM   13  C   UNK N   1      33.081  15.370   6.970  0.00  0.00     0.243 C 
HETATM   14  C   UNK N   1      32.236  15.997   5.493  0.00  0.00     0.311 C 
HETATM   15  C   UNK N   1      33.528  17.897   7.505  0.00  0.00     0.244 C 
HETATM   16  C   UNK N   1      34.304  17.053   9.582  0.00  0.00     0.670 C 
HETATM   17  H   UNK N   1      33.214  15.435  10.290  0.00  0.00     0.178 HD
HETATM   18  H   UNK N   1      36.158  16.929  10.530  0.00  0.00     0.174 HD
HETATM   19  H   UNK N   1      34.857  17.263  11.582  0.00  0.00     0.174 HD
ENDROOT
BRANCH  11  20
HETATM   20  O   UNK N   1      29.101  16.657   5.197  0.00  0.00    -0.382 OA
HETATM   21  H   UNK N   1      28.632  15.856   4.913  0.00  0.00     0.210 HD
ENDBRANCH  11  20
BRANCH  11  22
HETATM   22  C   UNK N   1      28.457  16.842   7.498  0.00  0.00     0.207 C 
BRANCH  22  23
HETATM   23  O   UNK N   1      27.882  18.116   7.526  0.00  0.00    -0.398 OA
HETATM   24  H   UNK N   1      27.346  18.750   7.024  0.00  0.00     0.209 HD
ENDBRANCH  22  23
ENDBRANCH  11  22
BRANCH  10  25
HETATM   25  O   UNK N   1      30.354  17.619   9.411  0.00  0.00    -0.390 OA
HETATM   26  H   UNK N   1      29.398  17.631   9.245  0.00  0.00     0.210 HD
ENDBRANCH  10  25
BRANCH  14  27
HETATM   27  O   UNK N   1      32.936  15.726   4.317  0.00  0.00    -0.341 OA
ATOM     28  HO  UNK N   1      32.631  16.286   3.613  1.00  0.00     0.215 HD
ENDBRANCH  14  27
BRANCH  15  29
HETATM   29  O   UNK N   1      34.248  17.843   6.307  0.00  0.00    -0.376 OA
HETATM   30  H   UNK N   1      34.677  17.022   6.022  0.00  0.00     0.212 HD
ENDBRANCH  15  29
BRANCH  13  31
HETATM   31  O   UNK N   1      34.488  15.395   6.931  0.00  0.00    -0.385 OA
HETATM   32  H   UNK N   1      34.982  14.672   6.514  0.00  0.00     0.210 HD
ENDBRANCH  13  31
TORSDOF 7
ENDMDL
MODEL 4
REMARK VINA RESULT:      -6.1      2.637      4.753
REMARK  7 active torsions:
REMARK  status: ('A' for Active; 'I' for Inactive)
REMARK    1  A    between atoms: O_3  and  C_17 
REMARK    2  A    between atoms: O_4  and  C_18 
REMARK    3  A    between atoms: C_20  and  O_5 
REMARK    4  A    between atoms: O_6  and  C_21 
REMARK    5  A    between atoms: O_8  and  C_22 
REMARK    6  A    between atoms: O_9  and  C_23 
REMARK       I    between atoms: N_13  and  C_24 
REMARK    7  A    between atoms: C_18  and  C_23 
ROOT
HETATM    1  O   UNK N   1      34.958  16.368  11.331  0.00  0.00    -0.322 OA
HETATM    2  O   UNK N   1      36.300  15.518   9.621  0.00  0.00    -0.319 OA
HETATM    3  N   UNK N   1      32.115  14.253   8.431  0.00  0.00    -0.211 N 
HETATM    4  N   UNK N   1      33.606  14.513   6.625  0.00  0.00    -0.200 N 
ATOM      5  HN  UNK N   1      33.811  14.494   5.626  1.00  0.00     0.180 HD
HETATM    6  N   UNK N   1      31.414  13.904   6.103  0.00  0.00    -0.235 N 
HETATM    7  C   UNK N   1      33.064  14.591   9.487  0.00  0.00     0.119 A 
HETATM    8  C   UNK N   1      34.095  14.684   9.205  0.00  0.00     0.101 A 
HETATM    9  C   UNK N   1      34.570  15.035  11.172  0.00  0.00     0.177 C 
HETATM   10  C   UNK N   1      34.443  13.359   9.514  0.00  0.00     0.182 A 
HETATM   11  C   UNK N   1      35.766  14.179  11.552  0.00  0.00     0.134 C 
HETATM   12  C   UNK N   1      36.092  14.039  10.136  0.00  0.00     0.198 C 
HETATM   13  C   UNK N   1      33.509  16.298   9.423  0.00  0.00     0.243 C 
HETATM   14  C   UNK N   1      35.198  16.578  10.018  0.00  0.00     0.311 C 
HETATM   15  C   UNK N   1      34.650  14.851   7.559  0.00  0.00     0.244 C 
HETATM   16  C   UNK N   1      32.421  14.231   7.036  0.00  0.00     0.670 C 
HETATM   17  H   UNK N   1      31.196  14.023   8.699  0.00  0.00     0.178 HD
HETATM   18  H   UNK N   1      31.127  14.568   5.435  0.00  0.00     0.174 HD
HETATM   19  H   UNK N   1      30.999  13.012   6.120  0.00  0.00     0.174 HD
ENDROOT
BRANCH  11  20
HETATM   20  O   UNK N   1      36.768  14.869  12.247  0.00  0.00    -0.382 OA
HETATM   21  H   UNK N   1      37.257  14.428  12.959  0.00  0.00     0.210 HD
ENDBRANCH  11  20
BRANCH  11  22
HETATM   22  C   UNK N   1      35.475  12.850  12.265  0.00  0.00     0.207 C 
BRANCH  22  23
HETATM   23  O   UNK N   1      34.291  12.892  13.007  0.00  0.00    -0.398 OA
HETATM   24  H   UNK N   1      33.655  13.480  13.444  0.00  0.00     0.209 HD
ENDBRANCH  22  23
ENDBRANCH  11  22
BRANCH  10  25
HETATM   25  O   UNK N   1      34.084  12.074   9.957  0.00  0.00    -0.390 OA
HETATM   26  H   UNK N   1      34.558  11.666  10.699  0.00  0.00     0.210 HD
ENDBRANCH  10  25
BRANCH  14  27
HETATM   27  O   UNK N   1      35.634  17.887   9.807  0.00  0.00    -0.341 OA
ATOM     28  HO  UNK N   1      35.626  18.375  10.621  1.00  0.00     0.215 HD
ENDBRANCH  14  27
BRANCH  15  29
HETATM   29  O   UNK N   1      35.237  16.074   7.214  0.00  0.00    -0.376 OA
HETATM   30  H   UNK N   1      35.331  16.334   6.284  0.00  0.00     0.212 HD
ENDBRANCH  15  29
BRANCH  13  31
HETATM   31  O   UNK N   1      33.133  17.019   8.274  0.00  0.00    -0.385 OA
HETATM   32  H   UNK N   1      33.019  17.982   8.311  0.00  0.00     0.210 HD
ENDBRANCH  13  31
TORSDOF 7
ENDMDL
MODEL 5
REMARK VINA RESULT:      -6.0      2.673      3.739
REMARK  7 active torsions:
REMARK  status: ('A' for Active; 'I' for Inactive)
REMARK    1  A    between atoms: O_3  and  C_17 
REMARK    2  A    between atoms: O_4  and  C_18 
REMARK    3  A    between atoms: C_20  and  O_5 
REMARK    4  A    between atoms: O_6  and  C_21 
REMARK    5  A    between atoms: O_8  and  C_22 
REMARK    6  A    between atoms: O_9  and  C_23 
REMARK       I    between atoms: N_13  and  C_24 
REMARK    7  A    between atoms: C_18  and  C_23 
ROOT
HETATM    1  O   UNK N   1      34.202  17.274   5.538  0.00  0.00    -0.322 OA
HETATM    2  O   UNK N   1      32.385  17.526   6.982  0.00  0.00    -0.319 OA
HETATM    3  N   UNK N   1      33.739  13.261   7.696  0.00  0.00    -0.211 N 
HETATM    4  N   UNK N   1      32.660  14.264   9.536  0.00  0.00    -0.200 N 
ATOM      5  HN  UNK N   1      32.319  14.233  10.497  1.00  0.00     0.180 HD
HETATM    6  N   UNK N   1      33.431  12.080   9.826  0.00  0.00    -0.235 N 
HETATM    7  C   UNK N   1      33.630  14.401   6.791  0.00  0.00     0.119 A 
HETATM    8  C   UNK N   1      33.013  15.220   7.109  0.00  0.00     0.101 A 
HETATM    9  C   UNK N   1      33.388  16.159   5.322  0.00  0.00     0.177 C 
HETATM   10  C   UNK N   1      31.850  14.777   6.461  0.00  0.00     0.182 A 
HETATM   11  C   UNK N   1      32.078  16.673   4.749  0.00  0.00     0.134 C 
HETATM   12  C   UNK N   1      31.486  16.591   6.081  0.00  0.00     0.198 C 
HETATM   13  C   UNK N   1      34.650  15.740   7.324  0.00  0.00     0.243 C 
HETATM   14  C   UNK N   1      33.951  17.348   6.864  0.00  0.00     0.311 C 
HETATM   15  C   UNK N   1      32.469  15.457   8.751  0.00  0.00     0.244 C 
HETATM   16  C   UNK N   1      33.254  13.237   9.039  0.00  0.00     0.670 C 
HETATM   17  H   UNK N   1      34.180  12.449   7.356  0.00  0.00     0.178 HD
HETATM   18  H   UNK N   1      33.980  12.120  10.644  0.00  0.00     0.174 HD
HETATM   19  H   UNK N   1      33.006  11.233   9.560  0.00  0.00     0.174 HD
ENDROOT
BRANCH  11  20
HETATM   20  O   UNK N   1      32.133  17.995   4.289  0.00  0.00    -0.382 OA
HETATM   21  H   UNK N   1      32.733  18.233   3.564  0.00  0.00     0.210 HD
ENDBRANCH  11  20
BRANCH  11  22
HETATM   22  C   UNK N   1      31.384  15.796   3.697  0.00  0.00     0.207 C 
BRANCH  22  23
HETATM   23  O   UNK N   1      32.277  14.942   3.042  0.00  0.00    -0.398 OA
HETATM   24  H   UNK N   1      33.211  14.694   2.957  0.00  0.00     0.209 HD
ENDBRANCH  22  23
ENDBRANCH  11  22
BRANCH  10  25
HETATM   25  O   UNK N   1      31.176  13.822   5.678  0.00  0.00    -0.390 OA
HETATM   26  H   UNK N   1      31.674  13.253   5.071  0.00  0.00     0.210 HD
ENDBRANCH  10  25
BRANCH  14  27
HETATM   27  O   UNK N   1      34.642  18.418   7.431  0.00  0.00    -0.341 OA
ATOM     28  HO  UNK N   1      34.955  18.189   8.298  1.00  0.00     0.215 HD
ENDBRANCH  14  27
BRANCH  15  29
HETATM   29  O   UNK N   1      32.976  16.573   9.427  0.00  0.00    -0.376 OA
HETATM   30  H   UNK N   1      33.271  16.503  10.347  0.00  0.00     0.212 HD
ENDBRANCH  15  29
BRANCH  13  31
HETATM   31  O   UNK N   1      35.199  15.655   8.618  0.00  0.00    -0.385 OA
HETATM   32  H   UNK N   1      34.795  15.082   9.289  0.00  0.00     0.210 HD
ENDBRANCH  13  31
TORSDOF 7
ENDMDL
MODEL 6
REMARK VINA RESULT:      -5.8      3.307      4.818
REMARK  7 active torsions:
REMARK  status: ('A' for Active; 'I' for Inactive)
REMARK    1  A    between atoms: O_3  and  C_17 
REMARK    2  A    between atoms: O_4  and  C_18 
REMARK    3  A    between atoms: C_20  and  O_5 
REMARK    4  A    between atoms: O_6  and  C_21 
REMARK    5  A    between atoms: O_8  and  C_22 
REMARK    6  A    between atoms: O_9  and  C_23 
REMARK       I    between atoms: N_13  and  C_24 
REMARK    7  A    between atoms: C_18  and  C_23 
ROOT
HETATM    1  O   UNK N   1      34.059  14.233   6.704  0.00  0.00    -0.322 OA
HETATM    2  O   UNK N   1      34.776  16.449   6.559  0.00  0.00    -0.319 OA
HETATM    3  N   UNK N   1      30.592  16.785   8.264  0.00  0.00    -0.211 N 
HETATM    4  N   UNK N   1      32.031  18.554   8.856  0.00  0.00    -0.200 N 
ATOM      5  HN  UNK N   1      32.216  19.429   9.348  1.00  0.00     0.180 HD
HETATM    6  N   UNK N   1      29.866  18.621   9.724  0.00  0.00    -0.235 N 
HETATM    7  C   UNK N   1      31.550  16.051   7.443  0.00  0.00     0.119 A 
HETATM    8  C   UNK N   1      32.477  16.542   7.219  0.00  0.00     0.101 A 
HETATM    9  C   UNK N   1      33.022  14.926   6.075  0.00  0.00     0.177 C 
HETATM   10  C   UNK N   1      32.056  17.079   5.992  0.00  0.00     0.182 A 
HETATM   11  C   UNK N   1      33.566  15.423   4.746  0.00  0.00     0.134 C 
HETATM   12  C   UNK N   1      33.798  16.731   5.351  0.00  0.00     0.198 C 
HETATM   13  C   UNK N   1      32.841  15.362   8.432  0.00  0.00     0.243 C 
HETATM   14  C   UNK N   1      34.404  15.253   7.521  0.00  0.00     0.311 C 
HETATM   15  C   UNK N   1      33.073  17.947   8.067  0.00  0.00     0.244 C 
HETATM   16  C   UNK N   1      30.870  18.009   8.945  0.00  0.00     0.670 C 
HETATM   17  H   UNK N   1      29.687  16.409   8.356  0.00  0.00     0.178 HD
HETATM   18  H   UNK N   1      29.994  18.730  10.695  0.00  0.00     0.174 HD
HETATM   19  H   UNK N   1      29.037  18.939   9.298  0.00  0.00     0.174 HD
ENDROOT
BRANCH  11  20
HETATM   20  O   UNK N   1      34.765  14.815   4.354  0.00  0.00    -0.382 OA
HETATM   21  H   UNK N   1      35.551  15.356   4.180  0.00  0.00     0.210 HD
ENDBRANCH  11  20
BRANCH  11  22
HETATM   22  C   UNK N   1      32.594  15.443   3.557  0.00  0.00     0.207 C 
BRANCH  22  23
HETATM   23  O   UNK N   1      32.902  16.447   2.634  0.00  0.00    -0.398 OA
HETATM   24  H   UNK N   1      32.626  16.867   1.804  0.00  0.00     0.209 HD
ENDBRANCH  22  23
ENDBRANCH  11  22
BRANCH  10  25
HETATM   25  O   UNK N   1      31.055  17.273   5.024  0.00  0.00    -0.390 OA
HETATM   26  H   UNK N   1      30.121  17.293   5.287  0.00  0.00     0.210 HD
ENDBRANCH  10  25
BRANCH  14  27
HETATM   27  O   UNK N   1      35.476  14.884   8.333  0.00  0.00    -0.341 OA
ATOM     28  HO  UNK N   1      35.237  14.952   9.250  1.00  0.00     0.215 HD
ENDBRANCH  14  27
BRANCH  15  29
HETATM   29  O   UNK N   1      34.230  17.775   8.835  0.00  0.00    -0.376 OA
HETATM   30  H   UNK N   1      35.092  17.647   8.410  0.00  0.00     0.212 HD
ENDBRANCH  15  29
BRANCH  13  31
HETATM   31  O   UNK N   1      32.935  15.802   9.766  0.00  0.00    -0.385 OA
HETATM   32  H   UNK N   1      33.667  16.374  10.046  0.00  0.00     0.210 HD
ENDBRANCH  13  31
TORSDOF 7
ENDMDL
MODEL 7
REMARK VINA RESULT:      -5.8      1.540      3.159
REMARK  7 active torsions:
REMARK  status: ('A' for Active; 'I' for Inactive)
REMARK    1  A    between atoms: O_3  and  C_17 
REMARK    2  A    between atoms: O_4  and  C_18 
REMARK    3  A    between atoms: C_20  and  O_5 
REMARK    4  A    between atoms: O_6  and  C_21 
REMARK    5  A    between atoms: O_8  and  C_22 
REMARK    6  A    between atoms: O_9  and  C_23 
REMARK       I    between atoms: N_13  and  C_24 
REMARK    7  A    between atoms: C_18  and  C_23 
ROOT
HETATM    1  O   UNK N   1      32.406  14.527   8.230  0.00  0.00    -0.322 OA
HETATM    2  O   UNK N   1      34.596  14.360   7.438  0.00  0.00    -0.319 OA
HETATM    3  N   UNK N   1      35.098  14.653  11.932  0.00  0.00    -0.211 N 
HETATM    4  N   UNK N   1      36.836  13.505  10.829  0.00  0.00    -0.200 N 
ATOM      5  HN  UNK N   1      37.715  12.987  10.844  1.00  0.00     0.180 HD
HETATM    6  N   UNK N   1      36.988  13.668  13.152  0.00  0.00    -0.235 N 
HETATM    7  C   UNK N   1      34.317  14.968  10.741  0.00  0.00     0.119 A 
HETATM    8  C   UNK N   1      34.774  14.769   9.790  0.00  0.00     0.101 A 
HETATM    9  C   UNK N   1      33.117  15.550   8.863  0.00  0.00     0.177 C 
HETATM   10  C   UNK N   1      35.296  16.061   9.615  0.00  0.00     0.182 A 
HETATM   11  C   UNK N   1      33.566  16.512   7.776  0.00  0.00     0.134 C 
HETATM   12  C   UNK N   1      34.880  15.875   7.782  0.00  0.00     0.198 C 
HETATM   13  C   UNK N   1      33.611  13.511  10.036  0.00  0.00     0.243 C 
HETATM   14  C   UNK N   1      33.433  13.649   8.237  0.00  0.00     0.311 C 
HETATM   15  C   UNK N   1      36.179  13.756   9.571  0.00  0.00     0.244 C 
HETATM   16  C   UNK N   1      36.329  13.927  11.933  0.00  0.00     0.670 C 
HETATM   17  H   UNK N   1      34.752  14.962  12.800  0.00  0.00     0.178 HD
HETATM   18  H   UNK N   1      37.116  12.740  13.456  0.00  0.00     0.174 HD
HETATM   19  H   UNK N   1      37.322  14.415  13.700  0.00  0.00     0.174 HD
ENDROOT
BRANCH  11  20
HETATM   20  O   UNK N   1      32.913  16.338   6.549  0.00  0.00    -0.382 OA
HETATM   21  H   UNK N   1      33.033  16.986   5.838  0.00  0.00     0.210 HD
ENDBRANCH  11  20
BRANCH  11  22
HETATM   22  C   UNK N   1      33.590  18.006   8.132  0.00  0.00     0.207 C 
BRANCH  22  23
HETATM   23  O   UNK N   1      34.701  18.663   7.597  0.00  0.00    -0.398 OA
HETATM   24  H   UNK N   1      35.329  19.390   7.734  0.00  0.00     0.209 HD
ENDBRANCH  22  23
ENDBRANCH  11  22
BRANCH  10  25
HETATM   25  O   UNK N   1      35.498  17.370  10.086  0.00  0.00    -0.390 OA
HETATM   26  H   UNK N   1      34.764  18.004  10.091  0.00  0.00     0.210 HD
ENDBRANCH  10  25
BRANCH  14  27
HETATM   27  O   UNK N   1      33.050  12.447   7.641  0.00  0.00    -0.341 OA
ATOM     28  HO  UNK N   1      33.762  11.819   7.671  1.00  0.00     0.215 HD
ENDBRANCH  14  27
BRANCH  15  29
HETATM   29  O   UNK N   1      35.989  12.560   8.871  0.00  0.00    -0.376 OA
HETATM   30  H   UNK N   1      35.389  11.878   9.209  0.00  0.00     0.212 HD
ENDBRANCH  15  29
BRANCH  13  31
HETATM   31  O   UNK N   1      34.078  12.272  10.516  0.00  0.00    -0.385 OA
HETATM   32  H   UNK N   1      34.919  12.216  10.997  0.00  0.00     0.210 HD
ENDBRANCH  13  31
TORSDOF 7
ENDMDL
MODEL 8
REMARK VINA RESULT:      -5.8      1.729      2.261
REMARK  7 active torsions:
REMARK  status: ('A' for Active; 'I' for Inactive)
REMARK    1  A    between atoms: O_3  and  C_17 
REMARK    2  A    between atoms: O_4  and  C_18 
REMARK    3  A    between atoms: C_20  and  O_5 
REMARK    4  A    between atoms: O_6  and  C_21 
REMARK    5  A    between atoms: O_8  and  C_22 
REMARK    6  A    between atoms: O_9  and  C_23 
REMARK       I    between atoms: N_13  and  C_24 
REMARK    7  A    between atoms: C_18  and  C_23 
ROOT
HETATM    1  O   UNK N   1      34.024  14.445   7.856  0.00  0.00    -0.322 OA
HETATM    2  O   UNK N   1      34.663  12.396   8.775  0.00  0.00    -0.319 OA
HETATM    3  N   UNK N   1      36.397  15.446  11.643  0.00  0.00    -0.211 N 
HETATM    4  N   UNK N   1      35.915  13.356  12.617  0.00  0.00    -0.200 N 
ATOM      5  HN  UNK N   1      35.883  12.732  13.423  1.00  0.00     0.180 HD
HETATM    6  N   UNK N   1      36.772  15.004  14.029  0.00  0.00    -0.235 N 
HETATM    7  C   UNK N   1      35.973  15.107  10.288  0.00  0.00     0.119 A 
HETATM    8  C   UNK N   1      35.748  14.076  10.091  0.00  0.00     0.101 A 
HETATM    9  C   UNK N   1      35.390  14.561   8.128  0.00  0.00     0.177 C 
HETATM   10  C   UNK N   1      37.028  13.744   9.619  0.00  0.00     0.182 A 
HETATM   11  C   UNK N   1      36.104  13.561   7.234  0.00  0.00     0.134 C 
HETATM   12  C   UNK N   1      36.168  12.631   8.358  0.00  0.00     0.198 C 
HETATM   13  C   UNK N   1      34.223  14.887  10.204  0.00  0.00     0.243 C 
HETATM   14  C   UNK N   1      33.755  13.679   8.936  0.00  0.00     0.311 C 
HETATM   15  C   UNK N   1      35.474  12.878  11.330  0.00  0.00     0.244 C 
HETATM   16  C   UNK N   1      36.348  14.558  12.760  0.00  0.00     0.670 C 
HETATM   17  H   UNK N   1      36.744  16.354  11.799  0.00  0.00     0.178 HD
HETATM   18  H   UNK N   1      36.131  15.045  14.776  0.00  0.00     0.174 HD
HETATM   19  H   UNK N   1      37.708  15.274  14.168  0.00  0.00     0.174 HD
ENDROOT
BRANCH  11  20
HETATM   20  O   UNK N   1      35.315  13.058   6.192  0.00  0.00    -0.382 OA
HETATM   21  H   UNK N   1      35.064  12.120   6.180  0.00  0.00     0.210 HD
ENDBRANCH  11  20
BRANCH  11  22
HETATM   22  C   UNK N   1      37.475  13.974   6.680  0.00  0.00     0.207 C 
BRANCH  22  23
HETATM   23  O   UNK N   1      37.369  14.799   5.556  0.00  0.00    -0.398 OA
HETATM   24  H   UNK N   1      37.657  14.922   4.638  0.00  0.00     0.209 HD
ENDBRANCH  22  23
ENDBRANCH  11  22
BRANCH  10  25
HETATM   25  O   UNK N   1      38.358  14.104   9.338  0.00  0.00    -0.390 OA
HETATM   26  H   UNK N   1      38.743  13.903   8.471  0.00  0.00     0.210 HD
ENDBRANCH  10  25
BRANCH  14  27
HETATM   27  O   UNK N   1      32.398  13.355   8.976  0.00  0.00    -0.341 OA
ATOM     28  HO  UNK N   1      32.141  13.112   9.858  1.00  0.00     0.215 HD
ENDBRANCH  14  27
BRANCH  15  29
HETATM   29  O   UNK N   1      34.181  12.350  11.421  0.00  0.00    -0.376 OA
HETATM   30  H   UNK N   1      33.409  12.888  11.189  0.00  0.00     0.212 HD
ENDBRANCH  15  29
BRANCH  13  31
HETATM   31  O   UNK N   1      33.525  14.802  11.424  0.00  0.00    -0.385 OA
HETATM   32  H   UNK N   1      33.416  15.587  11.985  0.00  0.00     0.210 HD
ENDBRANCH  13  31
TORSDOF 7
ENDMDL
MODEL 9
REMARK VINA RESULT:      -5.7      3.005      5.117
REMARK  7 active torsions:
REMARK  status: ('A' for Active; 'I' for Inactive)
REMARK    1  A    between atoms: O_3  and  C_17 
REMARK    2  A    between atoms: O_4  and  C_18 
REMARK    3  A    between atoms: C_20  and  O_5 
REMARK    4  A    between atoms: O_6  and  C_21 
REMARK    5  A    between atoms: O_8  and  C_22 
REMARK    6  A    between atoms: O_9  and  C_23 
REMARK       I    between atoms: N_13  and  C_24 
REMARK    7  A    between atoms: C_18  and  C_23 
ROOT
HETATM    1  O   UNK N   1      34.735  13.183   9.177  0.00  0.00    -0.322 OA
HETATM    2  O   UNK N   1      32.626  14.147   9.444  0.00  0.00    -0.319 OA
HETATM    3  N   UNK N   1      34.495  16.562   6.096  0.00  0.00    -0.211 N 
HETATM    4  N   UNK N   1      32.141  16.478   6.041  0.00  0.00    -0.200 N 
ATOM      5  HN  UNK N   1      31.248  16.719   5.610  1.00  0.00     0.180 HD
HETATM    6  N   UNK N   1      33.194  17.665   4.330  0.00  0.00    -0.235 N 
HETATM    7  C   UNK N   1      34.668  15.757   7.300  0.00  0.00     0.119 A 
HETATM    8  C   UNK N   1      33.784  15.520   7.861  0.00  0.00     0.101 A 
HETATM    9  C   UNK N   1      34.955  14.561   9.248  0.00  0.00     0.177 C 
HETATM   10  C   UNK N   1      33.887  16.606   8.745  0.00  0.00     0.182 A 
HETATM   11  C   UNK N   1      34.535  15.003  10.640  0.00  0.00     0.134 C 
HETATM   12  C   UNK N   1      33.254  15.443  10.093  0.00  0.00     0.198 C 
HETATM   13  C   UNK N   1      34.215  14.074   7.013  0.00  0.00     0.243 C 
HETATM   14  C   UNK N   1      33.564  13.285   8.510  0.00  0.00     0.311 C 
HETATM   15  C   UNK N   1      32.159  15.683   7.243  0.00  0.00     0.244 C 
HETATM   16  C   UNK N   1      33.236  16.890   5.507  0.00  0.00     0.670 C 
HETATM   17  H   UNK N   1      35.306  16.906   5.656  0.00  0.00     0.178 HD
HETATM   18  H   UNK N   1      32.822  17.283   3.501  0.00  0.00     0.174 HD
HETATM   19  H   UNK N   1      33.535  18.588   4.336  0.00  0.00     0.174 HD
ENDROOT
BRANCH  11  20
HETATM   20  O   UNK N   1      34.374  13.952  11.551  0.00  0.00    -0.382 OA
HETATM   21  H   UNK N   1      33.716  14.021  12.262  0.00  0.00     0.210 HD
ENDBRANCH  11  20
BRANCH  11  22
HETATM   22  C   UNK N   1      35.357  16.122  11.294  0.00  0.00     0.207 C 
BRANCH  22  23
HETATM   23  O   UNK N   1      36.662  16.186  10.796  0.00  0.00    -0.398 OA
HETATM   24  H   UNK N   1      37.550  15.800  10.859  0.00  0.00     0.209 HD
ENDBRANCH  22  23
ENDBRANCH  11  22
BRANCH  10  25
HETATM   25  O   UNK N   1      34.544  17.771   9.177  0.00  0.00    -0.390 OA
HETATM   26  H   UNK N   1      34.976  17.792  10.045  0.00  0.00     0.210 HD
ENDBRANCH  10  25
BRANCH  14  27
HETATM   27  O   UNK N   1      33.033  12.019   8.263  0.00  0.00    -0.341 OA
ATOM     28  HO  UNK N   1      33.514  11.587   7.567  1.00  0.00     0.215 HD
ENDBRANCH  14  27
BRANCH  15  29
HETATM   29  O   UNK N   1      31.434  14.501   7.058  0.00  0.00    -0.376 OA
HETATM   30  H   UNK N   1      30.984  14.321   6.218  0.00  0.00     0.212 HD
ENDBRANCH  15  29
BRANCH  13  31
HETATM   31  O   UNK N   1      33.530  13.787   5.817  0.00  0.00    -0.385 OA
HETATM   32  H   UNK N   1      33.599  12.909   5.408  0.00  0.00     0.210 HD
ENDBRANCH  13  31
TORSDOF 7
ENDMDL
