MODEL 1
REMARK VINA RESULT:      -3.8      0.000      0.000
REMARK  3 active torsions:
REMARK  status: ('A' for Active; 'I' for Inactive)
REMARK    1  A    between atoms: C_2  and  C_7 
REMARK    2  A    between atoms: C_7  and  C_8 
REMARK    3  A    between atoms: C_8  and  N_9 
ROOT
HETATM    1  C   UNK N   1      21.884  13.305  10.024  0.00  0.00     0.114 A 
HETATM    2  C   UNK N   1      22.529  12.392  10.828  0.00  0.00     0.027 A 
HETATM    3  N   UNK N   1      20.571  13.251  10.317  0.00  0.00    -0.360 N 
HETATM    4  N   UNK N   1      21.634  11.776  11.613  0.00  0.00    -0.355 N 
ATOM      5  HN  UNK N   1      21.814  11.053  12.310  1.00  0.00     0.166 HD
HETATM    6  C   UNK N   1      20.445  12.317  11.284  0.00  0.00     0.180 A 
HETATM    7  H   UNK N   1      19.850  13.784   9.911  0.00  0.00     0.166 HD
ENDROOT
BRANCH   2   8
HETATM    8  C   UNK N   1      23.993  12.084  10.874  0.00  0.00     0.077 C 
BRANCH   8   9
HETATM    9  C   UNK N   1      24.821  12.930   9.926  0.00  0.00     0.117 C 
BRANCH   9  10
HETATM   10  N   UNK N   1      25.826  13.642  10.693  0.00  0.00    -0.430 N 
HETATM   11  H   UNK N   1      26.562  13.124  11.174  0.00  0.00     0.149 HD
HETATM   12  H   UNK N   1      25.798  14.659  10.752  0.00  0.00     0.149 HD
ENDBRANCH   9  10
ENDBRANCH   8   9
ENDBRANCH   2   8
TORSDOF 3
ENDMDL
MODEL 2
REMARK VINA RESULT:      -3.7     11.005     11.823
REMARK  3 active torsions:
REMARK  status: ('A' for Active; 'I' for Inactive)
REMARK    1  A    between atoms: C_2  and  C_7 
REMARK    2  A    between atoms: C_7  and  C_8 
REMARK    3  A    between atoms: C_8  and  N_9 
ROOT
HETATM    1  C   UNK N   1      20.622  19.888   3.101  0.00  0.00     0.114 A 
HETATM    2  C   UNK N   1      20.381  19.080   2.012  0.00  0.00     0.027 A 
HETATM    3  N   UNK N   1      20.847  21.133   2.643  0.00  0.00    -0.360 N 
HETATM    4  N   UNK N   1      20.454  19.809   0.889  0.00  0.00    -0.355 N 
ATOM      5  HN  UNK N   1      20.322  19.486  -0.070  1.00  0.00     0.166 HD
HETATM    6  C   UNK N   1      20.740  21.060   1.299  0.00  0.00     0.180 A 
HETATM    7  H   UNK N   1      21.049  21.935   3.178  0.00  0.00     0.166 HD
ENDROOT
BRANCH   2   8
HETATM    8  C   UNK N   1      20.079  17.614   2.006  0.00  0.00     0.077 C 
BRANCH   8   9
HETATM    9  C   UNK N   1      20.073  17.002   0.619  0.00  0.00     0.117 C 
BRANCH   9  10
HETATM   10  N   UNK N   1      18.700  16.732   0.234  0.00  0.00    -0.430 N 
HETATM   11  H   UNK N   1      18.282  15.825   0.439  0.00  0.00     0.149 HD
HETATM   12  H   UNK N   1      18.154  17.449  -0.242  0.00  0.00     0.149 HD
ENDBRANCH   9  10
ENDBRANCH   8   9
ENDBRANCH   2   8
TORSDOF 3
ENDMDL
MODEL 3
REMARK VINA RESULT:      -3.5      1.380      3.379
REMARK  3 active torsions:
REMARK  status: ('A' for Active; 'I' for Inactive)
REMARK    1  A    between atoms: C_2  and  C_7 
REMARK    2  A    between atoms: C_7  and  C_8 
REMARK    3  A    between atoms: C_8  and  N_9 
ROOT
HETATM    1  C   UNK N   1      24.006  12.663  10.170  0.00  0.00     0.114 A 
HETATM    2  C   UNK N   1      22.668  12.433  10.399  0.00  0.00     0.027 A 
HETATM    3  N   UNK N   1      24.678  12.300  11.278  0.00  0.00    -0.360 N 
HETATM    4  N   UNK N   1      22.504  11.933  11.632  0.00  0.00    -0.355 N 
ATOM      5  HN  UNK N   1      21.628  11.666  12.081  1.00  0.00     0.166 HD
HETATM    6  C   UNK N   1      23.745  11.860  12.151  0.00  0.00     0.180 A 
HETATM    7  H   UNK N   1      25.650  12.344  11.424  0.00  0.00     0.166 HD
ENDROOT
BRANCH   2   8
HETATM    8  C   UNK N   1      21.523  12.678   9.467  0.00  0.00     0.077 C 
BRANCH   8   9
HETATM    9  C   UNK N   1      20.585  13.775   9.933  0.00  0.00     0.117 C 
BRANCH   9  10
HETATM   10  N   UNK N   1      20.942  15.011   9.262  0.00  0.00    -0.430 N 
HETATM   11  H   UNK N   1      21.649  15.625   9.666  0.00  0.00     0.149 HD
HETATM   12  H   UNK N   1      20.486  15.266   8.386  0.00  0.00     0.149 HD
ENDBRANCH   9  10
ENDBRANCH   8   9
ENDBRANCH   2   8
TORSDOF 3
ENDMDL
MODEL 4
REMARK VINA RESULT:      -3.4     11.293     12.855
REMARK  3 active torsions:
REMARK  status: ('A' for Active; 'I' for Inactive)
REMARK    1  A    between atoms: C_2  and  C_7 
REMARK    2  A    between atoms: C_7  and  C_8 
REMARK    3  A    between atoms: C_8  and  N_9 
ROOT
HETATM    1  C   UNK N   1      34.978  15.754   8.882  0.00  0.00     0.114 A 
HETATM    2  C   UNK N   1      34.678  17.064   9.180  0.00  0.00     0.027 A 
HETATM    3  N   UNK N   1      35.544  15.207   9.974  0.00  0.00    -0.360 N 
HETATM    4  N   UNK N   1      35.049  17.334  10.439  0.00  0.00    -0.355 N 
ATOM      5  HN  UNK N   1      34.953  18.219  10.938  1.00  0.00     0.166 HD
HETATM    6  C   UNK N   1      35.576  16.185  10.905  0.00  0.00     0.180 A 
HETATM    7  H   UNK N   1      35.869  14.283  10.075  0.00  0.00     0.166 HD
ENDROOT
BRANCH   2   8
HETATM    8  C   UNK N   1      34.038  18.083   8.289  0.00  0.00     0.077 C 
BRANCH   8   9
HETATM    9  C   UNK N   1      32.670  17.670   7.780  0.00  0.00     0.117 C 
BRANCH   9  10
HETATM   10  N   UNK N   1      31.741  17.656   8.895  0.00  0.00    -0.430 N 
HETATM   11  H   UNK N   1      30.737  17.703   8.722  0.00  0.00     0.149 HD
HETATM   12  H   UNK N   1      32.092  17.600   9.850  0.00  0.00     0.149 HD
ENDBRANCH   9  10
ENDBRANCH   8   9
ENDBRANCH   2   8
TORSDOF 3
ENDMDL
MODEL 5
REMARK VINA RESULT:      -3.4     10.271     11.372
REMARK  3 active torsions:
REMARK  status: ('A' for Active; 'I' for Inactive)
REMARK    1  A    between atoms: C_2  and  C_7 
REMARK    2  A    between atoms: C_7  and  C_8 
REMARK    3  A    between atoms: C_8  and  N_9 
ROOT
HETATM    1  C   UNK N   1      20.234  16.950   2.630  0.00  0.00     0.114 A 
HETATM    2  C   UNK N   1      20.126  18.076   1.846  0.00  0.00     0.027 A 
HETATM    3  N   UNK N   1      20.142  15.879   1.821  0.00  0.00    -0.360 N 
HETATM    4  N   UNK N   1      19.968  17.716   0.564  0.00  0.00    -0.355 N 
ATOM      5  HN  UNK N   1      19.862  18.330  -0.244  1.00  0.00     0.166 HD
HETATM    6  C   UNK N   1      19.981  16.369   0.573  0.00  0.00     0.180 A 
HETATM    7  H   UNK N   1      20.183  14.931   2.084  0.00  0.00     0.166 HD
ENDROOT
BRANCH   2   8
HETATM    8  C   UNK N   1      20.168  19.507   2.284  0.00  0.00     0.077 C 
BRANCH   8   9
HETATM    9  C   UNK N   1      21.107  20.366   1.461  0.00  0.00     0.117 C 
BRANCH   9  10
HETATM   10  N   UNK N   1      20.324  21.151   0.525  0.00  0.00    -0.430 N 
HETATM   11  H   UNK N   1      19.769  20.684  -0.192  0.00  0.00     0.149 HD
HETATM   12  H   UNK N   1      20.327  22.169   0.585  0.00  0.00     0.149 HD
ENDBRANCH   9  10
ENDBRANCH   8   9
ENDBRANCH   2   8
TORSDOF 3
ENDMDL
MODEL 6
REMARK VINA RESULT:      -3.4      9.644     11.701
REMARK  3 active torsions:
REMARK  status: ('A' for Active; 'I' for Inactive)
REMARK    1  A    between atoms: C_2  and  C_7 
REMARK    2  A    between atoms: C_7  and  C_8 
REMARK    3  A    between atoms: C_8  and  N_9 
ROOT
HETATM    1  C   UNK N   1      33.420  18.368   8.098  0.00  0.00     0.114 A 
HETATM    2  C   UNK N   1      32.623  17.381   8.633  0.00  0.00     0.027 A 
HETATM    3  N   UNK N   1      34.673  18.170   8.549  0.00  0.00    -0.360 N 
HETATM    4  N   UNK N   1      33.366  16.577   9.408  0.00  0.00    -0.355 N 
ATOM      5  HN  UNK N   1      33.052  15.761   9.934  1.00  0.00     0.166 HD
HETATM    6  C   UNK N   1      34.614  17.078   9.342  0.00  0.00     0.180 A 
HETATM    7  H   UNK N   1      35.470  18.710   8.344  0.00  0.00     0.166 HD
ENDROOT
BRANCH   2   8
HETATM    8  C   UNK N   1      31.155  17.175   8.427  0.00  0.00     0.077 C 
BRANCH   8   9
HETATM    9  C   UNK N   1      30.317  18.387   8.786  0.00  0.00     0.117 C 
BRANCH   9  10
HETATM   10  N   UNK N   1      29.856  18.248  10.155  0.00  0.00    -0.430 N 
HETATM   11  H   UNK N   1      29.143  17.556  10.384  0.00  0.00     0.149 HD
HETATM   12  H   UNK N   1      30.245  18.842  10.886  0.00  0.00     0.149 HD
ENDBRANCH   9  10
ENDBRANCH   8   9
ENDBRANCH   2   8
TORSDOF 3
ENDMDL
MODEL 7
REMARK VINA RESULT:      -3.4     20.582     21.639
REMARK  3 active torsions:
REMARK  status: ('A' for Active; 'I' for Inactive)
REMARK    1  A    between atoms: C_2  and  C_7 
REMARK    2  A    between atoms: C_7  and  C_8 
REMARK    3  A    between atoms: C_8  and  N_9 
ROOT
HETATM    1  C   UNK N   1      25.978  27.285  -3.235  0.00  0.00     0.114 A 
HETATM    2  C   UNK N   1      25.615  27.815  -4.452  0.00  0.00     0.027 A 
HETATM    3  N   UNK N   1      26.669  28.229  -2.569  0.00  0.00    -0.360 N 
HETATM    4  N   UNK N   1      26.072  29.071  -4.549  0.00  0.00    -0.355 N 
ATOM      5  HN  UNK N   1      25.959  29.714  -5.333  1.00  0.00     0.166 HD
HETATM    6  C   UNK N   1      26.712  29.303  -3.386  0.00  0.00     0.180 A 
HETATM    7  H   UNK N   1      27.062  28.153  -1.670  0.00  0.00     0.166 HD
ENDROOT
BRANCH   2   8
HETATM    8  C   UNK N   1      24.835  27.152  -5.545  0.00  0.00     0.077 C 
BRANCH   8   9
HETATM    9  C   UNK N   1      25.603  26.057  -6.260  0.00  0.00     0.117 C 
BRANCH   9  10
HETATM   10  N   UNK N   1      25.184  24.772  -5.734  0.00  0.00    -0.430 N 
HETATM   11  H   UNK N   1      25.407  23.916  -6.242  0.00  0.00     0.149 HD
HETATM   12  H   UNK N   1      24.666  24.724  -4.857  0.00  0.00     0.149 HD
ENDBRANCH   9  10
ENDBRANCH   8   9
ENDBRANCH   2   8
TORSDOF 3
ENDMDL
MODEL 8
REMARK VINA RESULT:      -3.4      8.203     10.256
REMARK  3 active torsions:
REMARK  status: ('A' for Active; 'I' for Inactive)
REMARK    1  A    between atoms: C_2  and  C_7 
REMARK    2  A    between atoms: C_7  and  C_8 
REMARK    3  A    between atoms: C_8  and  N_9 
ROOT
HETATM    1  C   UNK N   1      30.730  17.165   7.307  0.00  0.00     0.114 A 
HETATM    2  C   UNK N   1      30.935  17.769   8.527  0.00  0.00     0.027 A 
HETATM    3  N   UNK N   1      31.877  16.555   6.956  0.00  0.00    -0.360 N 
HETATM    4  N   UNK N   1      32.192  17.541   8.934  0.00  0.00    -0.355 N 
ATOM      5  HN  UNK N   1      32.632  17.862   9.797  1.00  0.00     0.166 HD
HETATM    6  C   UNK N   1      32.749  16.798   7.958  0.00  0.00     0.180 A 
HETATM    7  H   UNK N   1      32.047  16.038   6.136  0.00  0.00     0.166 HD
ENDROOT
BRANCH   2   8
HETATM    8  C   UNK N   1      29.957  18.568   9.331  0.00  0.00     0.077 C 
BRANCH   8   9
HETATM    9  C   UNK N   1      28.606  17.898   9.483  0.00  0.00     0.117 C 
BRANCH   9  10
HETATM   10  N   UNK N   1      27.597  18.734   8.861  0.00  0.00    -0.430 N 
HETATM   11  H   UNK N   1      27.873  19.577   8.357  0.00  0.00     0.149 HD
HETATM   12  H   UNK N   1      26.612  18.480   8.927  0.00  0.00     0.149 HD
ENDBRANCH   9  10
ENDBRANCH   8   9
ENDBRANCH   2   8
TORSDOF 3
ENDMDL
MODEL 9
REMARK VINA RESULT:      -3.3     12.133     13.518
REMARK  3 active torsions:
REMARK  status: ('A' for Active; 'I' for Inactive)
REMARK    1  A    between atoms: C_2  and  C_7 
REMARK    2  A    between atoms: C_7  and  C_8 
REMARK    3  A    between atoms: C_8  and  N_9 
ROOT
HETATM    1  C   UNK N   1      34.448  14.748  11.253  0.00  0.00     0.114 A 
HETATM    2  C   UNK N   1      35.724  14.723  11.769  0.00  0.00     0.027 A 
HETATM    3  N   UNK N   1      34.320  15.881  10.538  0.00  0.00    -0.360 N 
HETATM    4  N   UNK N   1      36.385  15.824  11.383  0.00  0.00    -0.355 N 
ATOM      5  HN  UNK N   1      37.346  16.081  11.610  1.00  0.00     0.166 HD
HETATM    6  C   UNK N   1      35.507  16.517  10.632  0.00  0.00     0.180 A 
HETATM    7  H   UNK N   1      33.523  16.185  10.046  0.00  0.00     0.166 HD
ENDROOT
BRANCH   2   8
HETATM    8  C   UNK N   1      36.344  13.668  12.631  0.00  0.00     0.077 C 
BRANCH   8   9
HETATM    9  C   UNK N   1      35.951  13.771  14.092  0.00  0.00     0.117 C 
BRANCH   9  10
HETATM   10  N   UNK N   1      37.106  14.200  14.858  0.00  0.00    -0.430 N 
HETATM   11  H   UNK N   1      37.613  15.042  14.587  0.00  0.00     0.149 HD
HETATM   12  H   UNK N   1      37.411  13.660  15.667  0.00  0.00     0.149 HD
ENDBRANCH   9  10
ENDBRANCH   8   9
ENDBRANCH   2   8
TORSDOF 3
ENDMDL
