MODEL 1
REMARK VINA RESULT:      -8.7      0.000      0.000
REMARK  3 active torsions:
REMARK  status: ('A' for Active; 'I' for Inactive)
REMARK    1  A    between atoms: C_2  and  C_1 
REMARK    2  A    between atoms: N_19  and  C_3 
REMARK    3  A    between atoms: N_12  and  C_15 
ROOT
HETATM    1  C   UNK N   1      27.641  18.666   5.140  0.00  0.00     0.124 A 
HETATM    2  N   UNK N   1      27.677  19.607   4.144  0.00  0.00    -0.340 N 
ATOM      3  HN  UNK N   1      28.488  20.091   3.759  1.00  0.00     0.167 HD
HETATM    4  N   UNK N   1      26.391  18.238   5.389  0.00  0.00    -0.340 N 
HETATM    5  C   UNK N   1      25.628  18.912   4.559  0.00  0.00     0.062 A 
HETATM    6  C   UNK N   1      26.372  19.737   3.794  0.00  0.00     0.060 A 
HETATM    7  C   UNK N   1      24.270  18.831   4.499  0.00  0.00     0.061 A 
HETATM    8  C   UNK N   1      23.591  19.628   3.582  0.00  0.00     0.032 A 
HETATM    9  C   UNK N   1      25.764  20.562   2.837  0.00  0.00     0.034 A 
HETATM   10  C   UNK N   1      24.340  20.494   2.725  0.00  0.00     0.031 A 
HETATM   11  H   UNK N   1      26.109  17.565   6.051  0.00  0.00     0.167 HD
ENDROOT
BRANCH   1  12
HETATM   12  C   UNK N   1      28.782  18.164   5.967  0.00  0.00     0.103 A 
HETATM   13  C   UNK N   1      29.842  17.452   5.332  0.00  0.00     0.061 A 
HETATM   14  C   UNK N   1      30.904  16.933   6.088  0.00  0.00     0.057 A 
HETATM   15  C   UNK N   1      30.906  17.137   7.482  0.00  0.00     0.050 A 
HETATM   16  C   UNK N   1      31.965  16.206   5.488  0.00  0.00     0.131 A 
HETATM   17  C   UNK N   1      31.950  16.625   8.258  0.00  0.00     0.030 A 
HETATM   18  N   UNK N   1      29.897  17.827   8.077  0.00  0.00    -0.322 N 
HETATM   19  C   UNK N   1      32.990  15.910   7.659  0.00  0.00     0.005 A 
HETATM   20  C   UNK N   1      32.996  15.703   6.280  0.00  0.00     0.043 A 
HETATM   21  C   UNK N   1      28.840  18.341   7.365  0.00  0.00     0.262 A 
HETATM   22  H   UNK N   1      29.923  17.962   9.052  0.00  0.00     0.169 HD
HETATM   23  O   UNK N   1      27.958  18.939   7.954  0.00  0.00    -0.267 OA
HETATM   24  F   UNK N   1      32.011  15.975   4.151  0.00  0.00    -0.205 F 
BRANCH  13  25
HETATM   25  N   UNK N   1      29.840  17.246   3.931  0.00  0.00    -0.397 N 
HETATM   26  H   UNK N   1      29.999  18.003   3.322  0.00  0.00     0.156 HD
HETATM   27  H   UNK N   1      29.679  16.346   3.566  0.00  0.00     0.156 HD
ENDBRANCH  13  25
ENDBRANCH   1  12
BRANCH   8  28
HETATM   28  N   UNK N   1      22.168  19.545   3.564  0.00  0.00    -0.377 N 
HETATM   29  C   UNK N   1      21.376  20.175   2.531  0.00  0.00     0.153 C 
HETATM   30  C   UNK N   1      19.912  19.701   2.618  0.00  0.00     0.291 C 
HETATM   31  N   UNK N   1      19.795  18.242   2.825  0.00  0.00     0.087 N 
HETATM   32  C   UNK N   1      20.629  17.698   3.909  0.00  0.00     0.291 C 
HETATM   33  C   UNK N   1      20.158  17.547   1.601  0.00  0.00     0.310 C 
HETATM   34  C   UNK N   1      21.494  18.753   4.579  0.00  0.00     0.153 C 
ENDBRANCH   8  28
TORSDOF 3
ENDMDL
MODEL 2
REMARK VINA RESULT:      -8.5      1.663      2.192
REMARK  3 active torsions:
REMARK  status: ('A' for Active; 'I' for Inactive)
REMARK    1  A    between atoms: C_2  and  C_1 
REMARK    2  A    between atoms: N_19  and  C_3 
REMARK    3  A    between atoms: N_12  and  C_15 
ROOT
HETATM    1  C   UNK N   1      27.665  18.203   4.391  0.00  0.00     0.124 A 
HETATM    2  N   UNK N   1      27.624  19.408   3.741  0.00  0.00    -0.340 N 
ATOM      3  HN  UNK N   1      28.402  20.006   3.465  1.00  0.00     0.167 HD
HETATM    4  N   UNK N   1      26.438  17.692   4.592  0.00  0.00    -0.340 N 
HETATM    5  C   UNK N   1      25.612  18.576   4.078  0.00  0.00     0.062 A 
HETATM    6  C   UNK N   1      26.296  19.614   3.554  0.00  0.00     0.060 A 
HETATM    7  C   UNK N   1      24.253  18.489   4.103  0.00  0.00     0.061 A 
HETATM    8  C   UNK N   1      23.505  19.518   3.539  0.00  0.00     0.032 A 
HETATM    9  C   UNK N   1      25.615  20.684   2.956  0.00  0.00     0.034 A 
HETATM   10  C   UNK N   1      24.186  20.624   2.941  0.00  0.00     0.031 A 
HETATM   11  H   UNK N   1      26.208  16.840   5.029  0.00  0.00     0.167 HD
ENDROOT
BRANCH   1  12
HETATM   12  C   UNK N   1      28.868  17.492   4.927  0.00  0.00     0.103 A 
HETATM   13  C   UNK N   1      29.254  17.703   6.284  0.00  0.00     0.061 A 
HETATM   14  C   UNK N   1      30.401  17.083   6.802  0.00  0.00     0.057 A 
HETATM   15  C   UNK N   1      31.155  16.243   5.959  0.00  0.00     0.050 A 
HETATM   16  C   UNK N   1      30.821  17.285   8.142  0.00  0.00     0.131 A 
HETATM   17  C   UNK N   1      32.306  15.618   6.450  0.00  0.00     0.030 A 
HETATM   18  N   UNK N   1      30.773  16.039   4.671  0.00  0.00    -0.322 N 
HETATM   19  C   UNK N   1      32.712  15.823   7.770  0.00  0.00     0.005 A 
HETATM   20  C   UNK N   1      31.971  16.653   8.612  0.00  0.00     0.043 A 
HETATM   21  C   UNK N   1      29.659  16.638   4.132  0.00  0.00     0.262 A 
HETATM   22  H   UNK N   1      31.313  15.444   4.102  0.00  0.00     0.169 HD
HETATM   23  O   UNK N   1      29.373  16.428   2.967  0.00  0.00    -0.267 OA
HETATM   24  F   UNK N   1      30.135  18.087   8.996  0.00  0.00    -0.205 F 
BRANCH  13  25
HETATM   25  N   UNK N   1      28.496  18.548   7.131  0.00  0.00    -0.397 N 
HETATM   26  H   UNK N   1      27.833  18.160   7.747  0.00  0.00     0.156 HD
HETATM   27  H   UNK N   1      28.632  19.522   7.103  0.00  0.00     0.156 HD
ENDBRANCH  13  25
ENDBRANCH   1  12
BRANCH   8  28
HETATM   28  N   UNK N   1      22.085  19.414   3.609  0.00  0.00    -0.377 N 
HETATM   29  C   UNK N   1      21.220  20.087   2.666  0.00  0.00     0.153 C 
HETATM   30  C   UNK N   1      19.770  19.587   2.821  0.00  0.00     0.291 C 
HETATM   31  N   UNK N   1      19.685  18.117   2.955  0.00  0.00     0.087 N 
HETATM   32  C   UNK N   1      20.594  17.529   3.952  0.00  0.00     0.291 C 
HETATM   33  C   UNK N   1      19.975  17.494   1.675  0.00  0.00     0.310 C 
HETATM   34  C   UNK N   1      21.489  18.559   4.621  0.00  0.00     0.153 C 
ENDBRANCH   8  28
TORSDOF 3
ENDMDL
MODEL 3
REMARK VINA RESULT:      -8.4      2.773      9.288
REMARK  3 active torsions:
REMARK  status: ('A' for Active; 'I' for Inactive)
REMARK    1  A    between atoms: C_2  and  C_1 
REMARK    2  A    between atoms: N_19  and  C_3 
REMARK    3  A    between atoms: N_12  and  C_15 
ROOT
HETATM    1  C   UNK N   1      26.530  18.592   4.885  0.00  0.00     0.124 A 
HETATM    2  N   UNK N   1      26.843  18.536   6.218  0.00  0.00    -0.340 N 
ATOM      3  HN  UNK N   1      26.265  18.797   7.016  1.00  0.00     0.167 HD
HETATM    4  N   UNK N   1      27.540  18.164   4.108  0.00  0.00    -0.340 N 
HETATM    5  C   UNK N   1      28.502  17.843   4.943  0.00  0.00     0.062 A 
HETATM    6  C   UNK N   1      28.110  18.049   6.218  0.00  0.00     0.060 A 
HETATM    7  C   UNK N   1      29.740  17.403   4.585  0.00  0.00     0.061 A 
HETATM    8  C   UNK N   1      30.668  17.125   5.585  0.00  0.00     0.032 A 
HETATM    9  C   UNK N   1      28.983  17.780   7.282  0.00  0.00     0.034 A 
HETATM   10  C   UNK N   1      30.287  17.297   6.953  0.00  0.00     0.031 A 
HETATM   11  H   UNK N   1      27.556  18.103   3.124  0.00  0.00     0.167 HD
ENDROOT
BRANCH   1  12
HETATM   12  C   UNK N   1      25.279  19.122   4.259  0.00  0.00     0.103 A 
HETATM   13  C   UNK N   1      24.033  18.493   4.556  0.00  0.00     0.061 A 
HETATM   14  C   UNK N   1      22.849  18.941   3.951  0.00  0.00     0.057 A 
HETATM   15  C   UNK N   1      22.914  20.028   3.056  0.00  0.00     0.050 A 
HETATM   16  C   UNK N   1      21.596  18.327   4.212  0.00  0.00     0.131 A 
HETATM   17  C   UNK N   1      21.749  20.489   2.436  0.00  0.00     0.030 A 
HETATM   18  N   UNK N   1      24.104  20.627   2.789  0.00  0.00    -0.322 N 
HETATM   19  C   UNK N   1      20.521  19.878   2.699  0.00  0.00     0.005 A 
HETATM   20  C   UNK N   1      20.446  18.802   3.583  0.00  0.00     0.043 A 
HETATM   21  C   UNK N   1      25.282  20.207   3.359  0.00  0.00     0.262 A 
HETATM   22  H   UNK N   1      24.124  21.388   2.164  0.00  0.00     0.169 HD
HETATM   23  O   UNK N   1      26.320  20.775   3.072  0.00  0.00    -0.267 OA
HETATM   24  F   UNK N   1      21.476  17.274   5.062  0.00  0.00    -0.205 F 
BRANCH  13  25
HETATM   25  N   UNK N   1      23.967  17.401   5.454  0.00  0.00    -0.397 N 
HETATM   26  H   UNK N   1      23.202  16.783   5.422  0.00  0.00     0.156 HD
HETATM   27  H   UNK N   1      24.687  17.260   6.112  0.00  0.00     0.156 HD
ENDBRANCH  13  25
ENDBRANCH   1  12
BRANCH   8  28
HETATM   28  N   UNK N   1      31.965  16.698   5.178  0.00  0.00    -0.377 N 
HETATM   29  C   UNK N   1      32.572  15.491   5.695  0.00  0.00     0.153 C 
HETATM   30  C   UNK N   1      33.841  15.146   4.891  0.00  0.00     0.291 C 
HETATM   31  N   UNK N   1      33.648  15.286   3.433  0.00  0.00     0.087 N 
HETATM   32  C   UNK N   1      33.038  16.555   3.004  0.00  0.00     0.291 C 
HETATM   33  C   UNK N   1      32.804  14.208   2.946  0.00  0.00     0.310 C 
HETATM   34  C   UNK N   1      32.676  17.463   4.169  0.00  0.00     0.153 C 
ENDBRANCH   8  28
TORSDOF 3
ENDMDL
MODEL 4
REMARK VINA RESULT:      -8.4      2.667      9.638
REMARK  3 active torsions:
REMARK  status: ('A' for Active; 'I' for Inactive)
REMARK    1  A    between atoms: C_2  and  C_1 
REMARK    2  A    between atoms: N_19  and  C_3 
REMARK    3  A    between atoms: N_12  and  C_15 
ROOT
HETATM    1  C   UNK N   1      28.921  17.670   4.996  0.00  0.00     0.124 A 
HETATM    2  N   UNK N   1      29.851  17.651   3.990  0.00  0.00    -0.340 N 
ATOM      3  HN  UNK N   1      29.700  17.744   2.986  1.00  0.00     0.167 HD
HETATM    4  N   UNK N   1      29.482  17.521   6.209  0.00  0.00    -0.340 N 
HETATM    5  C   UNK N   1      30.769  17.397   5.977  0.00  0.00     0.062 A 
HETATM    6  C   UNK N   1      31.022  17.477   4.654  0.00  0.00     0.060 A 
HETATM    7  C   UNK N   1      31.721  17.174   6.926  0.00  0.00     0.061 A 
HETATM    8  C   UNK N   1      33.047  17.039   6.526  0.00  0.00     0.032 A 
HETATM    9  C   UNK N   1      32.334  17.363   4.173  0.00  0.00     0.034 A 
HETATM   10  C   UNK N   1      33.368  17.150   5.136  0.00  0.00     0.031 A 
HETATM   11  H   UNK N   1      29.026  17.508   7.083  0.00  0.00     0.167 HD
ENDROOT
BRANCH   1  12
HETATM   12  C   UNK N   1      27.433  17.761   4.867  0.00  0.00     0.103 A 
HETATM   13  C   UNK N   1      26.864  18.834   4.118  0.00  0.00     0.061 A 
HETATM   14  C   UNK N   1      25.472  18.970   4.015  0.00  0.00     0.057 A 
HETATM   15  C   UNK N   1      24.650  18.021   4.656  0.00  0.00     0.050 A 
HETATM   16  C   UNK N   1      24.874  20.034   3.292  0.00  0.00     0.131 A 
HETATM   17  C   UNK N   1      23.259  18.137   4.573  0.00  0.00     0.030 A 
HETATM   18  N   UNK N   1      25.202  16.996   5.357  0.00  0.00    -0.322 N 
HETATM   19  C   UNK N   1      22.680  19.189   3.859  0.00  0.00     0.005 A 
HETATM   20  C   UNK N   1      23.486  20.132   3.221  0.00  0.00     0.043 A 
HETATM   21  C   UNK N   1      26.562  16.840   5.483  0.00  0.00     0.262 A 
HETATM   22  H   UNK N   1      24.607  16.342   5.792  0.00  0.00     0.169 HD
HETATM   23  O   UNK N   1      26.998  15.910   6.135  0.00  0.00    -0.267 OA
HETATM   24  F   UNK N   1      25.618  20.978   2.659  0.00  0.00    -0.205 F 
BRANCH  13  25
HETATM   25  N   UNK N   1      27.690  19.787   3.475  0.00  0.00    -0.397 N 
HETATM   26  H   UNK N   1      27.285  20.524   2.964  0.00  0.00     0.156 HD
HETATM   27  H   UNK N   1      28.670  19.714   3.539  0.00  0.00     0.156 HD
ENDBRANCH  13  25
ENDBRANCH   1  12
BRANCH   8  28
HETATM   28  N   UNK N   1      34.016  16.774   7.538  0.00  0.00    -0.377 N 
HETATM   29  C   UNK N   1      33.982  17.436   8.823  0.00  0.00     0.153 C 
HETATM   30  C   UNK N   1      34.976  16.768   9.793  0.00  0.00     0.291 C 
HETATM   31  N   UNK N   1      34.918  15.292   9.742  0.00  0.00     0.087 N 
HETATM   32  C   UNK N   1      34.974  14.712   8.390  0.00  0.00     0.291 C 
HETATM   33  C   UNK N   1      33.690  14.830  10.366  0.00  0.00     0.310 C 
HETATM   34  C   UNK N   1      35.032  15.765   7.295  0.00  0.00     0.153 C 
ENDBRANCH   8  28
TORSDOF 3
ENDMDL
MODEL 5
REMARK VINA RESULT:      -8.3      4.720      8.119
REMARK  3 active torsions:
REMARK  status: ('A' for Active; 'I' for Inactive)
REMARK    1  A    between atoms: C_2  and  C_1 
REMARK    2  A    between atoms: N_19  and  C_3 
REMARK    3  A    between atoms: N_12  and  C_15 
ROOT
HETATM    1  C   UNK N   1      34.057  15.762   8.866  0.00  0.00     0.124 A 
HETATM    2  N   UNK N   1      34.646  16.115   7.680  0.00  0.00    -0.340 N 
ATOM      3  HN  UNK N   1      35.638  16.123   7.443  1.00  0.00     0.167 HD
HETATM    4  N   UNK N   1      32.718  15.870   8.820  0.00  0.00    -0.340 N 
HETATM    5  C   UNK N   1      32.452  16.300   7.607  0.00  0.00     0.062 A 
HETATM    6  C   UNK N   1      33.590  16.450   6.897  0.00  0.00     0.060 A 
HETATM    7  C   UNK N   1      31.210  16.599   7.134  0.00  0.00     0.061 A 
HETATM    8  C   UNK N   1      31.085  17.071   5.830  0.00  0.00     0.032 A 
HETATM    9  C   UNK N   1      33.547  16.908   5.573  0.00  0.00     0.034 A 
HETATM   10  C   UNK N   1      32.261  17.214   5.027  0.00  0.00     0.031 A 
HETATM   11  H   UNK N   1      32.075  15.670   9.539  0.00  0.00     0.167 HD
ENDROOT
BRANCH   1  12
HETATM   12  C   UNK N   1      34.732  15.368  10.142  0.00  0.00     0.103 A 
HETATM   13  C   UNK N   1      34.576  14.036  10.628  0.00  0.00     0.061 A 
HETATM   14  C   UNK N   1      35.161  13.649  11.843  0.00  0.00     0.057 A 
HETATM   15  C   UNK N   1      35.911  14.599  12.566  0.00  0.00     0.050 A 
HETATM   16  C   UNK N   1      35.012  12.337  12.363  0.00  0.00     0.131 A 
HETATM   17  C   UNK N   1      36.499  14.240  13.783  0.00  0.00     0.030 A 
HETATM   18  N   UNK N   1      36.062  15.862  12.089  0.00  0.00    -0.322 N 
HETATM   19  C   UNK N   1      36.346  12.946  14.286  0.00  0.00     0.005 A 
HETATM   20  C   UNK N   1      35.606  11.999  13.578  0.00  0.00     0.043 A 
HETATM   21  C   UNK N   1      35.496  16.273  10.906  0.00  0.00     0.262 A 
HETATM   22  H   UNK N   1      36.596  16.506  12.609  0.00  0.00     0.169 HD
HETATM   23  O   UNK N   1      35.655  17.422  10.536  0.00  0.00    -0.267 OA
HETATM   24  F   UNK N   1      34.297  11.384  11.711  0.00  0.00    -0.205 F 
BRANCH  13  25
HETATM   25  N   UNK N   1      33.822  13.082   9.902  0.00  0.00    -0.397 N 
HETATM   26  H   UNK N   1      33.696  13.190   8.932  0.00  0.00     0.156 HD
HETATM   27  H   UNK N   1      33.423  12.312  10.368  0.00  0.00     0.156 HD
ENDBRANCH  13  25
ENDBRANCH   1  12
BRANCH   8  28
HETATM   28  N   UNK N   1      29.777  17.405   5.374  0.00  0.00    -0.377 N 
HETATM   29  C   UNK N   1      29.338  17.115   4.027  0.00  0.00     0.153 C 
HETATM   30  C   UNK N   1      27.818  17.342   3.901  0.00  0.00     0.291 C 
HETATM   31  N   UNK N   1      27.062  16.783   5.041  0.00  0.00     0.087 N 
HETATM   32  C   UNK N   1      27.578  17.147   6.370  0.00  0.00     0.291 C 
HETATM   33  C   UNK N   1      27.054  15.332   4.956  0.00  0.00     0.310 C 
HETATM   34  C   UNK N   1      28.835  17.999   6.306  0.00  0.00     0.153 C 
ENDBRANCH   8  28
TORSDOF 3
ENDMDL
MODEL 6
REMARK VINA RESULT:      -8.0      1.420      1.880
REMARK  3 active torsions:
REMARK  status: ('A' for Active; 'I' for Inactive)
REMARK    1  A    between atoms: C_2  and  C_1 
REMARK    2  A    between atoms: N_19  and  C_3 
REMARK    3  A    between atoms: N_12  and  C_15 
ROOT
HETATM    1  C   UNK N   1      27.503  17.206   5.751  0.00  0.00     0.124 A 
HETATM    2  N   UNK N   1      26.898  16.133   5.151  0.00  0.00    -0.340 N 
ATOM      3  HN  UNK N   1      27.260  15.188   5.030  1.00  0.00     0.167 HD
HETATM    4  N   UNK N   1      26.727  18.304   5.731  0.00  0.00    -0.340 N 
HETATM    5  C   UNK N   1      25.629  17.935   5.110  0.00  0.00     0.062 A 
HETATM    6  C   UNK N   1      25.700  16.635   4.755  0.00  0.00     0.060 A 
HETATM    7  C   UNK N   1      24.578  18.751   4.820  0.00  0.00     0.061 A 
HETATM    8  C   UNK N   1      23.490  18.223   4.132  0.00  0.00     0.032 A 
HETATM    9  C   UNK N   1      24.639  16.026   4.071  0.00  0.00     0.034 A 
HETATM   10  C   UNK N   1      23.505  16.840   3.764  0.00  0.00     0.031 A 
HETATM   11  H   UNK N   1      26.935  19.192   6.103  0.00  0.00     0.167 HD
ENDROOT
BRANCH   1  12
HETATM   12  C   UNK N   1      28.885  17.278   6.320  0.00  0.00     0.103 A 
HETATM   13  C   UNK N   1      30.001  17.330   5.432  0.00  0.00     0.061 A 
HETATM   14  C   UNK N   1      31.310  17.355   5.935  0.00  0.00     0.057 A 
HETATM   15  C   UNK N   1      31.498  17.338   7.332  0.00  0.00     0.050 A 
HETATM   16  C   UNK N   1      32.441  17.390   5.080  0.00  0.00     0.131 A 
HETATM   17  C   UNK N   1      32.794  17.357   7.859  0.00  0.00     0.030 A 
HETATM   18  N   UNK N   1      30.429  17.300   8.169  0.00  0.00    -0.322 N 
HETATM   19  C   UNK N   1      33.901  17.390   7.008  0.00  0.00     0.005 A 
HETATM   20  C   UNK N   1      33.724  17.407   5.625  0.00  0.00     0.043 A 
HETATM   21  C   UNK N   1      29.135  17.267   7.707  0.00  0.00     0.262 A 
HETATM   22  H   UNK N   1      30.586  17.295   9.142  0.00  0.00     0.169 HD
HETATM   23  O   UNK N   1      28.217  17.221   8.505  0.00  0.00    -0.267 OA
HETATM   24  F   UNK N   1      32.318  17.403   3.727  0.00  0.00    -0.205 F 
BRANCH  13  25
HETATM   25  N   UNK N   1      29.811  17.346   4.029  0.00  0.00    -0.397 N 
HETATM   26  H   UNK N   1      29.164  17.969   3.627  0.00  0.00     0.156 HD
HETATM   27  H   UNK N   1      30.326  16.733   3.455  0.00  0.00     0.156 HD
ENDBRANCH  13  25
ENDBRANCH   1  12
BRANCH   8  28
HETATM   28  N   UNK N   1      22.420  19.109   3.814  0.00  0.00    -0.377 N 
HETATM   29  C   UNK N   1      22.588  20.217   2.900  0.00  0.00     0.153 C 
HETATM   30  C   UNK N   1      21.218  20.830   2.548  0.00  0.00     0.291 C 
HETATM   31  N   UNK N   1      20.192  19.806   2.257  0.00  0.00     0.087 N 
HETATM   32  C   UNK N   1      20.088  18.727   3.253  0.00  0.00     0.291 C 
HETATM   33  C   UNK N   1      20.472  19.189   0.970  0.00  0.00     0.310 C 
HETATM   34  C   UNK N   1      21.104  18.856   4.376  0.00  0.00     0.153 C 
ENDBRANCH   8  28
TORSDOF 3
ENDMDL
MODEL 7
REMARK VINA RESULT:      -8.0      5.867      9.604
REMARK  3 active torsions:
REMARK  status: ('A' for Active; 'I' for Inactive)
REMARK    1  A    between atoms: C_2  and  C_1 
REMARK    2  A    between atoms: N_19  and  C_3 
REMARK    3  A    between atoms: N_12  and  C_15 
ROOT
HETATM    1  C   UNK N   1      34.331  14.289  10.270  0.00  0.00     0.124 A 
HETATM    2  N   UNK N   1      34.690  14.108   8.960  0.00  0.00    -0.340 N 
ATOM      3  HN  UNK N   1      35.499  13.611   8.588  1.00  0.00     0.167 HD
HETATM    4  N   UNK N   1      33.195  14.998  10.392  0.00  0.00    -0.340 N 
HETATM    5  C   UNK N   1      32.834  15.279   9.161  0.00  0.00     0.062 A 
HETATM    6  C   UNK N   1      33.709  14.753   8.279  0.00  0.00     0.060 A 
HETATM    7  C   UNK N   1      31.755  16.033   8.811  0.00  0.00     0.061 A 
HETATM    8  C   UNK N   1      31.511  16.268   7.461  0.00  0.00     0.032 A 
HETATM    9  C   UNK N   1      33.526  14.934   6.900  0.00  0.00     0.034 A 
HETATM   10  C   UNK N   1      32.393  15.701   6.486  0.00  0.00     0.031 A 
HETATM   11  H   UNK N   1      32.734  15.252  11.225  0.00  0.00     0.167 HD
ENDROOT
BRANCH   1  12
HETATM   12  C   UNK N   1      35.079  13.859  11.493  0.00  0.00     0.103 A 
HETATM   13  C   UNK N   1      34.899  12.534  11.989  0.00  0.00     0.061 A 
HETATM   14  C   UNK N   1      35.554  12.117  13.157  0.00  0.00     0.057 A 
HETATM   15  C   UNK N   1      36.399  13.028  13.822  0.00  0.00     0.050 A 
HETATM   16  C   UNK N   1      35.384  10.811  13.686  0.00  0.00     0.131 A 
HETATM   17  C   UNK N   1      37.059  12.638  14.991  0.00  0.00     0.030 A 
HETATM   18  N   UNK N   1      36.572  14.285  13.335  0.00  0.00    -0.322 N 
HETATM   19  C   UNK N   1      36.884  11.351  15.505  0.00  0.00     0.005 A 
HETATM   20  C   UNK N   1      36.051  10.442  14.853  0.00  0.00     0.043 A 
HETATM   21  C   UNK N   1      35.939  14.726  12.198  0.00  0.00     0.262 A 
HETATM   22  H   UNK N   1      37.172  14.902  13.814  0.00  0.00     0.169 HD
HETATM   23  O   UNK N   1      36.123  15.867  11.816  0.00  0.00    -0.267 OA
HETATM   24  F   UNK N   1      34.579   9.894  13.089  0.00  0.00    -0.205 F 
BRANCH  13  25
HETATM   25  N   UNK N   1      34.050  11.619  11.321  0.00  0.00    -0.397 N 
HETATM   26  H   UNK N   1      33.148  11.897  11.043  0.00  0.00     0.156 HD
HETATM   27  H   UNK N   1      34.362  10.703  11.135  0.00  0.00     0.156 HD
ENDBRANCH  13  25
ENDBRANCH   1  12
BRANCH   8  28
HETATM   28  N   UNK N   1      30.393  17.087   7.127  0.00  0.00    -0.377 N 
HETATM   29  C   UNK N   1      29.915  17.213   5.768  0.00  0.00     0.153 C 
HETATM   30  C   UNK N   1      28.554  17.938   5.747  0.00  0.00     0.291 C 
HETATM   31  N   UNK N   1      27.631  17.450   6.794  0.00  0.00     0.087 N 
HETATM   32  C   UNK N   1      28.207  17.371   8.146  0.00  0.00     0.291 C 
HETATM   33  C   UNK N   1      27.155  16.122   6.442  0.00  0.00     0.310 C 
HETATM   34  C   UNK N   1      29.674  17.767   8.190  0.00  0.00     0.153 C 
ENDBRANCH   8  28
TORSDOF 3
ENDMDL
MODEL 8
REMARK VINA RESULT:      -7.9      6.790     11.211
REMARK  3 active torsions:
REMARK  status: ('A' for Active; 'I' for Inactive)
REMARK    1  A    between atoms: C_2  and  C_1 
REMARK    2  A    between atoms: N_19  and  C_3 
REMARK    3  A    between atoms: N_12  and  C_15 
ROOT
HETATM    1  C   UNK N   1      35.161  13.830  11.416  0.00  0.00     0.124 A 
HETATM    2  N   UNK N   1      35.994  13.610  10.351  0.00  0.00    -0.340 N 
ATOM      3  HN  UNK N   1      36.870  13.088  10.329  1.00  0.00     0.167 HD
HETATM    4  N   UNK N   1      34.087  14.564  11.078  0.00  0.00    -0.340 N 
HETATM    5  C   UNK N   1      34.239  14.821   9.798  0.00  0.00     0.062 A 
HETATM    6  C   UNK N   1      35.372  14.256   9.333  0.00  0.00     0.060 A 
HETATM    7  C   UNK N   1      33.400  15.586   9.045  0.00  0.00     0.061 A 
HETATM    8  C   UNK N   1      33.705  15.792   7.703  0.00  0.00     0.032 A 
HETATM    9  C   UNK N   1      35.742  14.407   7.989  0.00  0.00     0.034 A 
HETATM   10  C   UNK N   1      34.879  15.185   7.156  0.00  0.00     0.031 A 
HETATM   11  H   UNK N   1      33.346  14.847  11.662  0.00  0.00     0.167 HD
ENDROOT
BRANCH   1  12
HETATM   12  C   UNK N   1      35.365  13.417  12.840  0.00  0.00     0.103 A 
HETATM   13  C   UNK N   1      34.871  12.151  13.275  0.00  0.00     0.061 A 
HETATM   14  C   UNK N   1      35.009  11.755  14.614  0.00  0.00     0.057 A 
HETATM   15  C   UNK N   1      35.655  12.627  15.514  0.00  0.00     0.050 A 
HETATM   16  C   UNK N   1      34.514  10.511  15.082  0.00  0.00     0.131 A 
HETATM   17  C   UNK N   1      35.801  12.258  16.855  0.00  0.00     0.030 A 
HETATM   18  N   UNK N   1      36.133  13.825  15.087  0.00  0.00    -0.322 N 
HETATM   19  C   UNK N   1      35.309  11.031  17.307  0.00  0.00     0.005 A 
HETATM   20  C   UNK N   1      34.669  10.162  16.423  0.00  0.00     0.043 A 
HETATM   21  C   UNK N   1      36.005  14.245  13.785  0.00  0.00     0.262 A 
HETATM   22  H   UNK N   1      36.585  14.415  15.734  0.00  0.00     0.169 HD
HETATM   23  O   UNK N   1      36.442  15.335  13.463  0.00  0.00    -0.267 OA
HETATM   24  F   UNK N   1      33.880   9.635  14.260  0.00  0.00    -0.205 F 
BRANCH  13  25
HETATM   25  N   UNK N   1      34.221  11.276  12.371  0.00  0.00    -0.397 N 
HETATM   26  H   UNK N   1      34.528  10.346  12.281  0.00  0.00     0.156 HD
HETATM   27  H   UNK N   1      33.464  11.599  11.831  0.00  0.00     0.156 HD
ENDBRANCH  13  25
ENDBRANCH   1  12
BRANCH   8  28
HETATM   28  N   UNK N   1      32.826  16.624   6.949  0.00  0.00    -0.377 N 
HETATM   29  C   UNK N   1      32.853  16.654   5.503  0.00  0.00     0.153 C 
HETATM   30  C   UNK N   1      31.633  17.428   4.964  0.00  0.00     0.291 C 
HETATM   31  N   UNK N   1      30.377  17.066   5.654  0.00  0.00     0.087 N 
HETATM   32  C   UNK N   1      30.447  17.078   7.124  0.00  0.00     0.291 C 
HETATM   33  C   UNK N   1      29.964  15.734   5.246  0.00  0.00     0.310 C 
HETATM   34  C   UNK N   1      31.833  17.419   7.650  0.00  0.00     0.153 C 
ENDBRANCH   8  28
TORSDOF 3
ENDMDL
MODEL 9
REMARK VINA RESULT:      -7.9      8.460     13.111
REMARK  3 active torsions:
REMARK  status: ('A' for Active; 'I' for Inactive)
REMARK    1  A    between atoms: C_2  and  C_1 
REMARK    2  A    between atoms: N_19  and  C_3 
REMARK    3  A    between atoms: N_12  and  C_15 
ROOT
HETATM    1  C   UNK N   1      35.831  13.176  13.302  0.00  0.00     0.124 A 
HETATM    2  N   UNK N   1      36.395  14.422  13.227  0.00  0.00    -0.340 N 
ATOM      3  HN  UNK N   1      37.077  14.847  13.854  1.00  0.00     0.167 HD
HETATM    4  N   UNK N   1      34.967  12.948  12.297  0.00  0.00    -0.340 N 
HETATM    5  C   UNK N   1      34.973  14.052  11.586  0.00  0.00     0.062 A 
HETATM    6  C   UNK N   1      35.826  14.953  12.116  0.00  0.00     0.060 A 
HETATM    7  C   UNK N   1      34.199  14.284  10.489  0.00  0.00     0.061 A 
HETATM    8  C   UNK N   1      34.294  15.517   9.850  0.00  0.00     0.032 A 
HETATM    9  C   UNK N   1      35.988  16.213  11.522  0.00  0.00     0.034 A 
HETATM   10  C   UNK N   1      35.211  16.493  10.356  0.00  0.00     0.031 A 
HETATM   11  H   UNK N   1      34.444  12.130  12.131  0.00  0.00     0.167 HD
ENDROOT
BRANCH   1  12
HETATM   12  C   UNK N   1      36.022  12.147  14.372  0.00  0.00     0.103 A 
HETATM   13  C   UNK N   1      35.579  12.431  15.698  0.00  0.00     0.061 A 
HETATM   14  C   UNK N   1      35.783  11.503  16.730  0.00  0.00     0.057 A 
HETATM   15  C   UNK N   1      36.423  10.284  16.428  0.00  0.00     0.050 A 
HETATM   16  C   UNK N   1      35.369  11.762  18.062  0.00  0.00     0.131 A 
HETATM   17  C   UNK N   1      36.642   9.345  17.441  0.00  0.00     0.030 A 
HETATM   18  N   UNK N   1      36.831  10.018  15.160  0.00  0.00    -0.322 N 
HETATM   19  C   UNK N   1      36.232   9.610  18.750  0.00  0.00     0.005 A 
HETATM   20  C   UNK N   1      35.598  10.813  19.057  0.00  0.00     0.043 A 
HETATM   21  C   UNK N   1      36.652  10.909  14.129  0.00  0.00     0.262 A 
HETATM   22  H   UNK N   1      37.271   9.157  14.972  0.00  0.00     0.169 HD
HETATM   23  O   UNK N   1      37.050  10.621  13.015  0.00  0.00    -0.267 OA
HETATM   24  F   UNK N   1      34.752  12.921  18.410  0.00  0.00    -0.205 F 
BRANCH  13  25
HETATM   25  N   UNK N   1      34.937  13.656  16.001  0.00  0.00    -0.397 N 
HETATM   26  H   UNK N   1      34.602  13.824  16.911  0.00  0.00     0.156 HD
HETATM   27  H   UNK N   1      34.825  14.340  15.301  0.00  0.00     0.156 HD
ENDBRANCH  13  25
ENDBRANCH   1  12
BRANCH   8  28
HETATM   28  N   UNK N   1      33.448  15.742   8.725  0.00  0.00    -0.377 N 
HETATM   29  C   UNK N   1      32.174  15.075   8.579  0.00  0.00     0.153 C 
HETATM   30  C   UNK N   1      31.373  15.704   7.421  0.00  0.00     0.291 C 
HETATM   31  N   UNK N   1      31.415  17.181   7.434  0.00  0.00     0.087 N 
HETATM   32  C   UNK N   1      32.759  17.765   7.572  0.00  0.00     0.291 C 
HETATM   33  C   UNK N   1      30.605  17.682   8.532  0.00  0.00     0.310 C 
HETATM   34  C   UNK N   1      33.849  16.717   7.725  0.00  0.00     0.153 C 
ENDBRANCH   8  28
TORSDOF 3
ENDMDL
