MODEL 1
REMARK VINA RESULT:      -6.0      0.000      0.000
REMARK  7 active torsions:
REMARK  status: ('A' for Active; 'I' for Inactive)
REMARK    1  A    between atoms: C_12  and  O_4 
REMARK    2  A    between atoms: C_13  and  O_5 
REMARK    3  A    between atoms: C_14  and  O_6 
REMARK    4  A    between atoms: O_7  and  C_16 
REMARK    5  A    between atoms: N_8  and  C_13 
REMARK    6  A    between atoms: N_11  and  C_20 
REMARK    7  A    between atoms: C_15  and  C_16 
ROOT
HETATM    1  O   UNK N   1      35.398  16.481   9.641  0.00  0.00    -0.325 OA
HETATM    2  C   UNK N   1      33.483  15.145   9.801  0.00  0.00     0.235 C 
HETATM    3  C   UNK N   1      35.006  15.122   9.685  0.00  0.00     0.284 C 
HETATM    4  C   UNK N   1      33.167  16.234   8.845  0.00  0.00     0.185 C 
HETATM    5  C   UNK N   1      34.254  17.214   9.236  0.00  0.00     0.182 C 
ENDROOT
BRANCH   3   6
HETATM    6  O   UNK N   1      35.358  14.506   8.475  0.00  0.00    -0.346 OA
HETATM    7  H   UNK N   1      35.965  14.007   7.905  0.00  0.00     0.215 HD
ENDBRANCH   3   6
BRANCH   3   8
HETATM    8  N   UNK N   1      35.678  14.425  10.819  0.00  0.00    -0.275 N 
HETATM    9  C   UNK N   1      34.978  14.229  11.979  0.00  0.00     0.103 A 
HETATM   10  C   UNK N   1      35.545  13.577  13.067  0.00  0.00     0.065 A 
HETATM   11  C   UNK N   1      36.848  13.119  12.957  0.00  0.00     0.102 A 
HETATM   12  N   UNK N   1      37.539  13.320  11.809  0.00  0.00    -0.319 N 
HETATM   13  C   UNK N   1      36.986  13.963  10.746  0.00  0.00     0.183 A 
ATOM     14  HN  UNK N   1      38.498  12.981  11.741  1.00  0.00     0.169 HD
HETATM   15  S   UNK N   1      37.790  14.132   9.562  0.00  0.00    -0.040 SA
BRANCH  11  16
HETATM   16  N   UNK N   1      37.450  12.442  14.035  0.00  0.00    -0.385 N 
HETATM   17  H   UNK N   1      37.496  11.459  14.054  0.00  0.00     0.157 HD
HETATM   18  H   UNK N   1      37.831  12.960  14.781  0.00  0.00     0.157 HD
ENDBRANCH  11  16
ENDBRANCH   3   8
BRANCH   2  19
HETATM   19  O   UNK N   1      32.899  13.931   9.428  0.00  0.00    -0.385 OA
HETATM   20  H   UNK N   1      32.915  12.962   9.425  0.00  0.00     0.210 HD
ENDBRANCH   2  19
BRANCH   5  21
HETATM   21  C   UNK N   1      34.587  18.152   8.085  0.00  0.00     0.199 C 
BRANCH  21  22
HETATM   22  O   UNK N   1      35.330  19.244   8.542  0.00  0.00    -0.398 OA
HETATM   23  H   UNK N   1      35.352  20.180   8.793  0.00  0.00     0.209 HD
ENDBRANCH  21  22
ENDBRANCH   5  21
BRANCH   4  24
HETATM   24  O   UNK N   1      31.896  16.758   9.078  0.00  0.00    -0.390 OA
HETATM   25  H   UNK N   1      31.246  16.926   8.378  0.00  0.00     0.210 HD
ENDBRANCH   4  24
TORSDOF 7
ENDMDL
MODEL 2
REMARK VINA RESULT:      -5.8      4.304      6.856
REMARK  7 active torsions:
REMARK  status: ('A' for Active; 'I' for Inactive)
REMARK    1  A    between atoms: C_12  and  O_4 
REMARK    2  A    between atoms: C_13  and  O_5 
REMARK    3  A    between atoms: C_14  and  O_6 
REMARK    4  A    between atoms: O_7  and  C_16 
REMARK    5  A    between atoms: N_8  and  C_13 
REMARK    6  A    between atoms: N_11  and  C_20 
REMARK    7  A    between atoms: C_15  and  C_16 
ROOT
HETATM    1  O   UNK N   1      33.668  15.379   7.952  0.00  0.00    -0.325 OA
HETATM    2  C   UNK N   1      33.999  17.610   8.579  0.00  0.00     0.235 C 
HETATM    3  C   UNK N   1      33.801  16.671   7.390  0.00  0.00     0.284 C 
HETATM    4  C   UNK N   1      34.920  16.792   9.404  0.00  0.00     0.185 C 
HETATM    5  C   UNK N   1      34.247  15.445   9.245  0.00  0.00     0.182 C 
ENDROOT
BRANCH   3   6
HETATM    6  O   UNK N   1      34.953  16.704   6.590  0.00  0.00    -0.346 OA
HETATM    7  H   UNK N   1      35.421  16.872   5.756  0.00  0.00     0.215 HD
ENDBRANCH   3   6
BRANCH   3   8
HETATM    8  N   UNK N   1      32.605  17.001   6.563  0.00  0.00    -0.275 N 
HETATM    9  C   UNK N   1      32.778  17.250   5.227  0.00  0.00     0.103 A 
HETATM   10  C   UNK N   1      31.702  17.553   4.402  0.00  0.00     0.065 A 
HETATM   11  C   UNK N   1      30.434  17.595   4.956  0.00  0.00     0.102 A 
HETATM   12  N   UNK N   1      30.268  17.353   6.279  0.00  0.00    -0.319 N 
HETATM   13  C   UNK N   1      31.322  17.062   7.089  0.00  0.00     0.183 A 
ATOM     14  HN  UNK N   1      29.331  17.389   6.677  1.00  0.00     0.169 HD
HETATM   15  S   UNK N   1      31.057  16.814   8.484  0.00  0.00    -0.040 SA
BRANCH  11  16
HETATM   16  N   UNK N   1      29.319  17.886   4.147  0.00  0.00    -0.385 N 
HETATM   17  H   UNK N   1      28.813  18.721   4.264  0.00  0.00     0.157 HD
HETATM   18  H   UNK N   1      29.043  17.244   3.453  0.00  0.00     0.157 HD
ENDBRANCH  11  16
ENDBRANCH   3   8
BRANCH   2  19
HETATM   19  O   UNK N   1      34.568  18.831   8.207  0.00  0.00    -0.385 OA
HETATM   20  H   UNK N   1      35.036  19.644   8.451  0.00  0.00     0.210 HD
ENDBRANCH   2  19
BRANCH   5  21
HETATM   21  C   UNK N   1      35.236  14.308   9.457  0.00  0.00     0.199 C 
BRANCH  21  22
HETATM   22  O   UNK N   1      36.493  14.809   9.804  0.00  0.00    -0.398 OA
HETATM   23  H   UNK N   1      37.017  15.524  10.199  0.00  0.00     0.209 HD
ENDBRANCH  21  22
ENDBRANCH   5  21
BRANCH   4  24
HETATM   24  O   UNK N   1      34.917  17.214  10.733  0.00  0.00    -0.390 OA
HETATM   25  H   UNK N   1      34.689  16.638  11.480  0.00  0.00     0.210 HD
ENDBRANCH   4  24
TORSDOF 7
ENDMDL
MODEL 3
REMARK VINA RESULT:      -5.7      1.285      2.407
REMARK  7 active torsions:
REMARK  status: ('A' for Active; 'I' for Inactive)
REMARK    1  A    between atoms: C_12  and  O_4 
REMARK    2  A    between atoms: C_13  and  O_5 
REMARK    3  A    between atoms: C_14  and  O_6 
REMARK    4  A    between atoms: O_7  and  C_16 
REMARK    5  A    between atoms: N_8  and  C_13 
REMARK    6  A    between atoms: N_11  and  C_20 
REMARK    7  A    between atoms: C_15  and  C_16 
ROOT
HETATM    1  O   UNK N   1      34.168  13.872   9.415  0.00  0.00    -0.325 OA
HETATM    2  C   UNK N   1      35.016  15.984   9.962  0.00  0.00     0.235 C 
HETATM    3  C   UNK N   1      34.470  14.679  10.538  0.00  0.00     0.284 C 
HETATM    4  C   UNK N   1      34.079  16.178   8.829  0.00  0.00     0.185 C 
HETATM    5  C   UNK N   1      34.033  14.755   8.314  0.00  0.00     0.182 C 
ENDROOT
BRANCH   3   6
HETATM    6  O   UNK N   1      33.283  14.952  11.235  0.00  0.00    -0.346 OA
HETATM    7  H   UNK N   1      32.324  14.881  11.368  0.00  0.00     0.215 HD
ENDBRANCH   3   6
BRANCH   3   8
HETATM    8  N   UNK N   1      35.430  13.977  11.437  0.00  0.00    -0.275 N 
HETATM    9  C   UNK N   1      34.974  13.486  12.631  0.00  0.00     0.103 A 
HETATM   10  C   UNK N   1      35.816  12.813  13.507  0.00  0.00     0.065 A 
HETATM   11  C   UNK N   1      37.143  12.640  13.148  0.00  0.00     0.102 A 
HETATM   12  N   UNK N   1      37.591  13.131  11.967  0.00  0.00    -0.319 N 
HETATM   13  C   UNK N   1      36.767  13.795  11.112  0.00  0.00     0.183 A 
ATOM     14  HN  UNK N   1      38.569  13.000  11.713  1.00  0.00     0.169 HD
HETATM   15  S   UNK N   1      37.324  14.282   9.875  0.00  0.00    -0.040 SA
BRANCH  11  16
HETATM   16  N   UNK N   1      38.022  11.951  14.005  0.00  0.00    -0.385 N 
HETATM   17  H   UNK N   1      38.947  12.261  14.136  0.00  0.00     0.157 HD
HETATM   18  H   UNK N   1      37.706  11.149  14.481  0.00  0.00     0.157 HD
ENDBRANCH  11  16
ENDBRANCH   3   8
BRANCH   2  19
HETATM   19  O   UNK N   1      34.959  17.037  10.879  0.00  0.00    -0.385 OA
HETATM   20  H   UNK N   1      34.582  17.428  11.683  0.00  0.00     0.210 HD
ENDBRANCH   2  19
BRANCH   5  21
HETATM   21  C   UNK N   1      32.741  14.487   7.556  0.00  0.00     0.199 C 
BRANCH  21  22
HETATM   22  O   UNK N   1      31.918  15.616   7.574  0.00  0.00    -0.398 OA
HETATM   23  H   UNK N   1      31.687  16.462   7.986  0.00  0.00     0.209 HD
ENDBRANCH  21  22
ENDBRANCH   5  21
BRANCH   4  24
HETATM   24  O   UNK N   1      34.610  17.051   7.879  0.00  0.00    -0.390 OA
HETATM   25  H   UNK N   1      35.067  16.759   7.075  0.00  0.00     0.210 HD
ENDBRANCH   4  24
TORSDOF 7
ENDMDL
MODEL 4
REMARK VINA RESULT:      -5.6      5.562      7.662
REMARK  7 active torsions:
REMARK  status: ('A' for Active; 'I' for Inactive)
REMARK    1  A    between atoms: C_12  and  O_4 
REMARK    2  A    between atoms: C_13  and  O_5 
REMARK    3  A    between atoms: C_14  and  O_6 
REMARK    4  A    between atoms: O_7  and  C_16 
REMARK    5  A    between atoms: N_8  and  C_13 
REMARK    6  A    between atoms: N_11  and  C_20 
REMARK    7  A    between atoms: C_15  and  C_16 
ROOT
HETATM    1  O   UNK N   1      32.303  18.161   7.943  0.00  0.00    -0.325 OA
HETATM    2  C   UNK N   1      32.307  16.491   6.302  0.00  0.00     0.235 C 
HETATM    3  C   UNK N   1      31.519  17.081   7.471  0.00  0.00     0.284 C 
HETATM    4  C   UNK N   1      33.679  16.546   6.861  0.00  0.00     0.185 C 
HETATM    5  C   UNK N   1      33.625  17.923   7.487  0.00  0.00     0.182 C 
ENDROOT
BRANCH   3   6
HETATM    6  O   UNK N   1      31.419  16.114   8.483  0.00  0.00    -0.346 OA
HETATM    7  H   UNK N   1      31.751  15.646   9.266  0.00  0.00     0.215 HD
ENDBRANCH   3   6
BRANCH   3   8
HETATM    8  N   UNK N   1      30.158  17.556   7.092  0.00  0.00    -0.275 N 
HETATM    9  C   UNK N   1      29.750  17.413   5.792  0.00  0.00     0.103 A 
HETATM   10  C   UNK N   1      28.489  17.826   5.380  0.00  0.00     0.065 A 
HETATM   11  C   UNK N   1      27.637  18.388   6.316  0.00  0.00     0.102 A 
HETATM   12  N   UNK N   1      28.047  18.531   7.600  0.00  0.00    -0.319 N 
HETATM   13  C   UNK N   1      29.284  18.133   8.003  0.00  0.00     0.183 A 
ATOM     14  HN  UNK N   1      27.413  18.948   8.280  1.00  0.00     0.169 HD
HETATM   15  S   UNK N   1      29.638  18.318   9.388  0.00  0.00    -0.040 SA
BRANCH  11  16
HETATM   16  N   UNK N   1      26.348  18.806   5.936  0.00  0.00    -0.385 N 
HETATM   17  H   UNK N   1      25.895  19.543   6.406  0.00  0.00     0.157 HD
HETATM   18  H   UNK N   1      25.892  18.354   5.189  0.00  0.00     0.157 HD
ENDBRANCH  11  16
ENDBRANCH   3   8
BRANCH   2  19
HETATM   19  O   UNK N   1      31.914  15.185   5.998  0.00  0.00    -0.385 OA
HETATM   20  H   UNK N   1      32.143  14.288   5.707  0.00  0.00     0.210 HD
ENDBRANCH   2  19
BRANCH   5  21
HETATM   21  C   UNK N   1      34.625  18.049   8.628  0.00  0.00     0.199 C 
BRANCH  21  22
HETATM   22  O   UNK N   1      35.357  19.233   8.510  0.00  0.00    -0.398 OA
HETATM   23  H   UNK N   1      35.436  20.179   8.710  0.00  0.00     0.209 HD
ENDBRANCH  21  22
ENDBRANCH   5  21
BRANCH   4  24
HETATM   24  O   UNK N   1      34.639  16.478   5.852  0.00  0.00    -0.390 OA
HETATM   25  H   UNK N   1      35.369  15.839   5.844  0.00  0.00     0.210 HD
ENDBRANCH   4  24
TORSDOF 7
ENDMDL
MODEL 5
REMARK VINA RESULT:      -5.6      4.843      7.314
REMARK  7 active torsions:
REMARK  status: ('A' for Active; 'I' for Inactive)
REMARK    1  A    between atoms: C_12  and  O_4 
REMARK    2  A    between atoms: C_13  and  O_5 
REMARK    3  A    between atoms: C_14  and  O_6 
REMARK    4  A    between atoms: O_7  and  C_16 
REMARK    5  A    between atoms: N_8  and  C_13 
REMARK    6  A    between atoms: N_11  and  C_20 
REMARK    7  A    between atoms: C_15  and  C_16 
ROOT
HETATM    1  O   UNK N   1      32.290  15.757   8.160  0.00  0.00    -0.325 OA
HETATM    2  C   UNK N   1      33.668  17.528   7.495  0.00  0.00     0.235 C 
HETATM    3  C   UNK N   1      32.738  16.424   6.995  0.00  0.00     0.284 C 
HETATM    4  C   UNK N   1      34.398  16.791   8.555  0.00  0.00     0.185 C 
HETATM    5  C   UNK N   1      33.231  16.055   9.178  0.00  0.00     0.182 C 
ENDROOT
BRANCH   3   6
HETATM    6  O   UNK N   1      33.481  15.526   6.213  0.00  0.00    -0.346 OA
HETATM    7  H   UNK N   1      34.028  14.733   6.094  0.00  0.00     0.215 HD
ENDBRANCH   3   6
BRANCH   3   8
HETATM    8  N   UNK N   1      31.578  16.933   6.210  0.00  0.00    -0.275 N 
HETATM    9  C   UNK N   1      30.411  17.215   6.870  0.00  0.00     0.103 A 
HETATM   10  C   UNK N   1      29.297  17.702   6.197  0.00  0.00     0.065 A 
HETATM   11  C   UNK N   1      29.388  17.906   4.830  0.00  0.00     0.102 A 
HETATM   12  N   UNK N   1      30.542  17.621   4.180  0.00  0.00    -0.319 N 
HETATM   13  C   UNK N   1      31.631  17.138   4.838  0.00  0.00     0.183 A 
ATOM     14  HN  UNK N   1      30.597  17.773   3.174  1.00  0.00     0.169 HD
HETATM   15  S   UNK N   1      32.821  16.866   4.072  0.00  0.00    -0.040 SA
BRANCH  11  16
HETATM   16  N   UNK N   1      28.283  18.410   4.117  0.00  0.00    -0.385 N 
HETATM   17  H   UNK N   1      27.368  18.118   4.330  0.00  0.00     0.157 HD
HETATM   18  H   UNK N   1      28.429  19.065   3.397  0.00  0.00     0.157 HD
ENDBRANCH  11  16
ENDBRANCH   3   8
BRANCH   2  19
HETATM   19  O   UNK N   1      34.524  17.999   6.496  0.00  0.00    -0.385 OA
HETATM   20  H   UNK N   1      34.663  18.286   5.580  0.00  0.00     0.210 HD
ENDBRANCH   2  19
BRANCH   5  21
HETATM   21  C   UNK N   1      33.693  14.786   9.881  0.00  0.00     0.199 C 
BRANCH  21  22
HETATM   22  O   UNK N   1      33.438  14.865  11.252  0.00  0.00    -0.398 OA
HETATM   23  H   UNK N   1      33.712  15.185  12.126  0.00  0.00     0.209 HD
ENDBRANCH  21  22
ENDBRANCH   5  21
BRANCH   4  24
HETATM   24  O   UNK N   1      34.994  17.668   9.461  0.00  0.00    -0.390 OA
HETATM   25  H   UNK N   1      34.547  18.445   9.832  0.00  0.00     0.210 HD
ENDBRANCH   4  24
TORSDOF 7
ENDMDL
MODEL 6
REMARK VINA RESULT:      -5.4      4.273      6.701
REMARK  7 active torsions:
REMARK  status: ('A' for Active; 'I' for Inactive)
REMARK    1  A    between atoms: C_12  and  O_4 
REMARK    2  A    between atoms: C_13  and  O_5 
REMARK    3  A    between atoms: C_14  and  O_6 
REMARK    4  A    between atoms: O_7  and  C_16 
REMARK    5  A    between atoms: N_8  and  C_13 
REMARK    6  A    between atoms: N_11  and  C_20 
REMARK    7  A    between atoms: C_15  and  C_16 
ROOT
HETATM    1  O   UNK N   1      32.751  15.532   9.384  0.00  0.00    -0.325 OA
HETATM    2  C   UNK N   1      33.749  17.549   8.742  0.00  0.00     0.235 C 
HETATM    3  C   UNK N   1      32.790  16.444   8.303  0.00  0.00     0.284 C 
HETATM    4  C   UNK N   1      34.807  16.734   9.385  0.00  0.00     0.185 C 
HETATM    5  C   UNK N   1      33.928  15.760  10.142  0.00  0.00     0.182 C 
ENDROOT
BRANCH   3   6
HETATM    6  O   UNK N   1      33.329  15.797   7.180  0.00  0.00    -0.346 OA
HETATM    7  H   UNK N   1      34.059  15.570   6.582  0.00  0.00     0.215 HD
ENDBRANCH   3   6
BRANCH   3   8
HETATM    8  N   UNK N   1      31.418  16.935   7.990  0.00  0.00    -0.275 N 
HETATM    9  C   UNK N   1      30.915  17.985   8.711  0.00  0.00     0.103 A 
HETATM   10  C   UNK N   1      29.648  18.496   8.461  0.00  0.00     0.065 A 
HETATM   11  C   UNK N   1      28.891  17.921   7.453  0.00  0.00     0.102 A 
HETATM   12  N   UNK N   1      29.390  16.880   6.745  0.00  0.00    -0.319 N 
HETATM   13  C   UNK N   1      30.629  16.376   6.994  0.00  0.00     0.183 A 
ATOM     14  HN  UNK N   1      28.824  16.463   6.007  1.00  0.00     0.169 HD
HETATM   15  S   UNK N   1      31.085  15.268   6.192  0.00  0.00    -0.040 SA
BRANCH  11  16
HETATM   16  N   UNK N   1      27.607  18.421   7.163  0.00  0.00    -0.385 N 
HETATM   17  H   UNK N   1      27.478  19.361   6.898  0.00  0.00     0.157 HD
HETATM   18  H   UNK N   1      26.828  17.823   7.225  0.00  0.00     0.157 HD
ENDBRANCH  11  16
ENDBRANCH   3   8
BRANCH   2  19
HETATM   19  O   UNK N   1      34.238  18.292   7.664  0.00  0.00    -0.385 OA
HETATM   20  H   UNK N   1      34.175  19.067   7.085  0.00  0.00     0.210 HD
ENDBRANCH   2  19
BRANCH   5  21
HETATM   21  C   UNK N   1      34.661  14.455  10.415  0.00  0.00     0.199 C 
BRANCH  21  22
HETATM   22  O   UNK N   1      34.230  13.893  11.619  0.00  0.00    -0.398 OA
HETATM   23  H   UNK N   1      34.282  13.163  12.255  0.00  0.00     0.209 HD
ENDBRANCH  21  22
ENDBRANCH   5  21
BRANCH   4  24
HETATM   24  O   UNK N   1      35.582  17.504  10.251  0.00  0.00    -0.390 OA
HETATM   25  H   UNK N   1      36.493  17.282  10.501  0.00  0.00     0.210 HD
ENDBRANCH   4  24
TORSDOF 7
ENDMDL
MODEL 7
REMARK VINA RESULT:      -5.4      2.874      4.102
REMARK  7 active torsions:
REMARK  status: ('A' for Active; 'I' for Inactive)
REMARK    1  A    between atoms: C_12  and  O_4 
REMARK    2  A    between atoms: C_13  and  O_5 
REMARK    3  A    between atoms: C_14  and  O_6 
REMARK    4  A    between atoms: O_7  and  C_16 
REMARK    5  A    between atoms: N_8  and  C_13 
REMARK    6  A    between atoms: N_11  and  C_20 
REMARK    7  A    between atoms: C_15  and  C_16 
ROOT
HETATM    1  O   UNK N   1      34.564  14.433  11.976  0.00  0.00    -0.325 OA
HETATM    2  C   UNK N   1      36.591  13.392  11.440  0.00  0.00     0.235 C 
HETATM    3  C   UNK N   1      35.756  13.967  12.582  0.00  0.00     0.284 C 
HETATM    4  C   UNK N   1      36.349  14.420  10.399  0.00  0.00     0.185 C 
HETATM    5  C   UNK N   1      34.861  14.615  10.601  0.00  0.00     0.182 C 
ENDROOT
BRANCH   3   6
HETATM    6  O   UNK N   1      36.440  15.058  13.140  0.00  0.00    -0.346 OA
HETATM    7  H   UNK N   1      36.526  15.997  13.370  0.00  0.00     0.215 HD
ENDBRANCH   3   6
BRANCH   3   8
HETATM    8  N   UNK N   1      35.440  12.974  13.648  0.00  0.00    -0.275 N 
HETATM    9  C   UNK N   1      34.591  11.940  13.353  0.00  0.00     0.103 A 
HETATM   10  C   UNK N   1      34.266  10.976  14.299  0.00  0.00     0.065 A 
HETATM   11  C   UNK N   1      34.826  11.075  15.562  0.00  0.00     0.102 A 
HETATM   12  N   UNK N   1      35.662  12.101  15.851  0.00  0.00    -0.319 N 
HETATM   13  C   UNK N   1      35.975  13.049  14.927  0.00  0.00     0.183 A 
ATOM     14  HN  UNK N   1      36.066  12.166  16.785  1.00  0.00     0.169 HD
HETATM   15  S   UNK N   1      36.875  14.105  15.316  0.00  0.00    -0.040 SA
BRANCH  11  16
HETATM   16  N   UNK N   1      34.529  10.109  16.543  0.00  0.00    -0.385 N 
HETATM   17  H   UNK N   1      34.333   9.177  16.292  0.00  0.00     0.157 HD
HETATM   18  H   UNK N   1      34.518  10.368  17.492  0.00  0.00     0.157 HD
ENDBRANCH  11  16
ENDBRANCH   3   8
BRANCH   2  19
HETATM   19  O   UNK N   1      37.945  13.286  11.770  0.00  0.00    -0.385 OA
HETATM   20  H   UNK N   1      38.758  12.758  11.806  0.00  0.00     0.210 HD
ENDBRANCH   2  19
BRANCH   5  21
HETATM   21  C   UNK N   1      34.417  15.991  10.126  0.00  0.00     0.199 C 
BRANCH  21  22
HETATM   22  O   UNK N   1      34.997  16.991  10.911  0.00  0.00    -0.398 OA
HETATM   23  H   UNK N   1      35.710  17.636  11.032  0.00  0.00     0.209 HD
ENDBRANCH  21  22
ENDBRANCH   5  21
BRANCH   4  24
HETATM   24  O   UNK N   1      36.634  13.927   9.126  0.00  0.00    -0.390 OA
HETATM   25  H   UNK N   1      36.412  13.029   8.834  0.00  0.00     0.210 HD
ENDBRANCH   4  24
TORSDOF 7
ENDMDL
MODEL 8
REMARK VINA RESULT:      -5.3      2.963      4.158
REMARK  7 active torsions:
REMARK  status: ('A' for Active; 'I' for Inactive)
REMARK    1  A    between atoms: C_12  and  O_4 
REMARK    2  A    between atoms: C_13  and  O_5 
REMARK    3  A    between atoms: C_14  and  O_6 
REMARK    4  A    between atoms: O_7  and  C_16 
REMARK    5  A    between atoms: N_8  and  C_13 
REMARK    6  A    between atoms: N_11  and  C_20 
REMARK    7  A    between atoms: C_15  and  C_16 
ROOT
HETATM    1  O   UNK N   1      34.786  13.051  10.901  0.00  0.00    -0.325 OA
HETATM    2  C   UNK N   1      36.516  13.938  12.203  0.00  0.00     0.235 C 
HETATM    3  C   UNK N   1      35.388  12.910  12.174  0.00  0.00     0.284 C 
HETATM    4  C   UNK N   1      35.838  15.085  11.553  0.00  0.00     0.185 C 
HETATM    5  C   UNK N   1      35.138  14.343  10.434  0.00  0.00     0.182 C 
ENDROOT
BRANCH   3   6
HETATM    6  O   UNK N   1      34.448  13.241  13.162  0.00  0.00    -0.346 OA
HETATM    7  H   UNK N   1      33.551  13.463  13.461  0.00  0.00     0.215 HD
ENDBRANCH   3   6
BRANCH   3   8
HETATM    8  N   UNK N   1      35.854  11.508  12.373  0.00  0.00    -0.275 N 
HETATM    9  C   UNK N   1      35.196  10.718  13.277  0.00  0.00     0.103 A 
HETATM   10  C   UNK N   1      35.575   9.400  13.500  0.00  0.00     0.065 A 
HETATM   11  C   UNK N   1      36.643   8.889  12.781  0.00  0.00     0.102 A 
HETATM   12  N   UNK N   1      37.295   9.675  11.892  0.00  0.00    -0.319 N 
HETATM   13  C   UNK N   1      36.927  10.968  11.677  0.00  0.00     0.183 A 
ATOM     14  HN  UNK N   1      38.081   9.290  11.370  1.00  0.00     0.169 HD
HETATM   15  S   UNK N   1      37.673  11.734  10.710  0.00  0.00    -0.040 SA
BRANCH  11  16
HETATM   16  N   UNK N   1      37.047   7.553  12.972  0.00  0.00    -0.385 N 
HETATM   17  H   UNK N   1      36.635   6.822  12.458  0.00  0.00     0.157 HD
HETATM   18  H   UNK N   1      37.751   7.349  13.629  0.00  0.00     0.157 HD
ENDBRANCH  11  16
ENDBRANCH   3   8
BRANCH   2  19
HETATM   19  O   UNK N   1      36.931  14.240  13.503  0.00  0.00    -0.385 OA
HETATM   20  H   UNK N   1      37.051  13.970  14.427  0.00  0.00     0.210 HD
ENDBRANCH   2  19
BRANCH   5  21
HETATM   21  C   UNK N   1      33.909  15.102   9.955  0.00  0.00     0.199 C 
BRANCH  21  22
HETATM   22  O   UNK N   1      32.916  15.098  10.937  0.00  0.00    -0.398 OA
HETATM   23  H   UNK N   1      31.972  15.085  11.156  0.00  0.00     0.209 HD
ENDBRANCH  21  22
ENDBRANCH   5  21
BRANCH   4  24
HETATM   24  O   UNK N   1      36.762  16.005  11.059  0.00  0.00    -0.390 OA
HETATM   25  H   UNK N   1      37.607  15.755  10.652  0.00  0.00     0.210 HD
ENDBRANCH   4  24
TORSDOF 7
ENDMDL
MODEL 9
REMARK VINA RESULT:      -5.3      3.848      5.396
REMARK  7 active torsions:
REMARK  status: ('A' for Active; 'I' for Inactive)
REMARK    1  A    between atoms: C_12  and  O_4 
REMARK    2  A    between atoms: C_13  and  O_5 
REMARK    3  A    between atoms: C_14  and  O_6 
REMARK    4  A    between atoms: O_7  and  C_16 
REMARK    5  A    between atoms: N_8  and  C_13 
REMARK    6  A    between atoms: N_11  and  C_20 
REMARK    7  A    between atoms: C_15  and  C_16 
ROOT
HETATM    1  O   UNK N   1      34.706  13.475  13.237  0.00  0.00    -0.325 OA
HETATM    2  C   UNK N   1      36.619  12.243  12.690  0.00  0.00     0.235 C 
HETATM    3  C   UNK N   1      35.876  12.941  13.827  0.00  0.00     0.284 C 
HETATM    4  C   UNK N   1      36.424  13.235  11.605  0.00  0.00     0.185 C 
HETATM    5  C   UNK N   1      34.965  13.563  11.846  0.00  0.00     0.182 C 
ENDROOT
BRANCH   3   6
HETATM    6  O   UNK N   1      36.668  13.996  14.304  0.00  0.00    -0.346 OA
HETATM    7  H   UNK N   1      37.460  14.354  14.737  0.00  0.00     0.215 HD
ENDBRANCH   3   6
BRANCH   3   8
HETATM    8  N   UNK N   1      35.520  12.031  14.953  0.00  0.00    -0.275 N 
HETATM    9  C   UNK N   1      35.905  12.372  16.222  0.00  0.00     0.103 A 
HETATM   10  C   UNK N   1      35.594  11.572  17.314  0.00  0.00     0.065 A 
HETATM   11  C   UNK N   1      34.874  10.408  17.097  0.00  0.00     0.102 A 
HETATM   12  N   UNK N   1      34.499  10.072  15.840  0.00  0.00    -0.319 N 
HETATM   13  C   UNK N   1      34.809  10.852  14.769  0.00  0.00     0.183 A 
ATOM     14  HN  UNK N   1      33.972   9.212  15.691  1.00  0.00     0.169 HD
HETATM   15  S   UNK N   1      34.368  10.422  13.466  0.00  0.00    -0.040 SA
BRANCH  11  16
HETATM   16  N   UNK N   1      34.530   9.579  18.182  0.00  0.00    -0.385 N 
HETATM   17  H   UNK N   1      34.071   9.945  18.972  0.00  0.00     0.157 HD
HETATM   18  H   UNK N   1      34.752   8.621  18.150  0.00  0.00     0.157 HD
ENDBRANCH  11  16
ENDBRANCH   3   8
BRANCH   2  19
HETATM   19  O   UNK N   1      37.971  12.039  12.980  0.00  0.00    -0.385 OA
HETATM   20  H   UNK N   1      38.878  11.883  12.674  0.00  0.00     0.210 HD
ENDBRANCH   2  19
BRANCH   5  21
HETATM   21  C   UNK N   1      34.619  14.947  11.315  0.00  0.00     0.199 C 
BRANCH  21  22
HETATM   22  O   UNK N   1      33.247  15.050  11.073  0.00  0.00    -0.398 OA
HETATM   23  H   UNK N   1      32.486  14.814  10.520  0.00  0.00     0.209 HD
ENDBRANCH  21  22
ENDBRANCH   5  21
BRANCH   4  24
HETATM   24  O   UNK N   1      36.620  12.658  10.351  0.00  0.00    -0.390 OA
HETATM   25  H   UNK N   1      37.105  13.088   9.629  0.00  0.00     0.210 HD
ENDBRANCH   4  24
TORSDOF 7
ENDMDL
