MODEL 1
REMARK VINA RESULT:      -5.1      0.000      0.000
REMARK  5 active torsions:
REMARK  status: ('A' for Active; 'I' for Inactive)
REMARK    1  A    between atoms: N_3  and  C_9 
REMARK       I    between atoms: N_4  and  C_13 
REMARK    2  A    between atoms: C_5  and  C_8 
REMARK    3  A    between atoms: C_8  and  C_11 
REMARK    4  A    between atoms: C_9  and  C_12 
REMARK    5  A    between atoms: C_9  and  C_13 
ROOT
HETATM    1  O   UNK N   1      30.459  23.034  -1.792  0.00  0.00    -0.273 OA
HETATM    2  N   UNK N   1      29.600  23.207  -3.887  0.00  0.00    -0.338 N 
HETATM    3  C   UNK N   1      30.443  21.264  -4.793  0.00  0.00     0.012 A 
HETATM    4  C   UNK N   1      29.604  22.467  -5.111  0.00  0.00     0.132 A 
HETATM    5  C   UNK N   1      30.943  21.297  -3.349  0.00  0.00     0.109 A 
HETATM    6  C   UNK N   1      30.322  22.585  -2.922  0.00  0.00     0.221 A 
ENDROOT
BRANCH   2   7
HETATM    7  C   UNK N   1      28.877  24.481  -3.765  0.00  0.00     0.178 C 
BRANCH   7   8
HETATM    8  C   UNK N   1      29.609  25.759  -4.226  0.00  0.00     0.030 C 
HETATM    9  C   UNK N   1      30.852  26.137  -3.443  0.00  0.00     0.007 C 
ENDBRANCH   7   8
BRANCH   7  10
HETATM   10  C   UNK N   1      27.448  24.463  -3.192  0.00  0.00     0.238 C 
HETATM   11  O   UNK N   1      27.120  23.632  -2.359  0.00  0.00    -0.271 OA
HETATM   12  N   UNK N   1      26.531  25.360  -3.593  0.00  0.00    -0.368 N 
HETATM   13  H   UNK N   1      25.621  25.336  -3.217  0.00  0.00     0.159 HD
HETATM   14  H   UNK N   1      26.768  26.042  -4.264  0.00  0.00     0.159 HD
ENDBRANCH   7  10
ENDBRANCH   2   7
BRANCH   3  15
HETATM   15  C   UNK N   1      30.651  20.254  -5.901  0.00  0.00     0.006 C 
BRANCH  15  16
HETATM   16  C   UNK N   1      29.767  20.454  -7.101  0.00  0.00    -0.004 C 
HETATM   17  C   UNK N   1      29.425  19.078  -7.631  0.00  0.00     0.005 C 
ENDBRANCH  15  16
ENDBRANCH   3  15
TORSDOF 5
ENDMDL
MODEL 2
REMARK VINA RESULT:      -5.1     13.392     15.385
REMARK  5 active torsions:
REMARK  status: ('A' for Active; 'I' for Inactive)
REMARK    1  A    between atoms: N_3  and  C_9 
REMARK       I    between atoms: N_4  and  C_13 
REMARK    2  A    between atoms: C_5  and  C_8 
REMARK    3  A    between atoms: C_8  and  C_11 
REMARK    4  A    between atoms: C_9  and  C_12 
REMARK    5  A    between atoms: C_9  and  C_13 
ROOT
HETATM    1  O   UNK N   1      41.058  19.848   3.810  0.00  0.00    -0.273 OA
HETATM    2  N   UNK N   1      42.471  21.268   2.741  0.00  0.00    -0.338 N 
HETATM    3  C   UNK N   1      40.959  22.318   1.355  0.00  0.00     0.012 A 
HETATM    4  C   UNK N   1      42.411  22.280   1.731  0.00  0.00     0.132 A 
HETATM    5  C   UNK N   1      40.146  21.306   2.162  0.00  0.00     0.109 A 
HETATM    6  C   UNK N   1      41.250  20.731   2.985  0.00  0.00     0.221 A 
ENDROOT
BRANCH   2   7
HETATM    7  C   UNK N   1      43.739  20.908   3.390  0.00  0.00     0.178 C 
BRANCH   7   8
HETATM    8  C   UNK N   1      44.306  19.501   3.109  0.00  0.00     0.030 C 
HETATM    9  C   UNK N   1      45.294  19.393   1.962  0.00  0.00     0.007 C 
ENDBRANCH   7   8
BRANCH   7  10
HETATM   10  C   UNK N   1      44.418  21.946   4.302  0.00  0.00     0.238 C 
HETATM   11  O   UNK N   1      43.798  22.484   5.206  0.00  0.00    -0.271 OA
HETATM   12  N   UNK N   1      45.707  22.285   4.124  0.00  0.00    -0.368 N 
HETATM   13  H   UNK N   1      46.128  22.950   4.715  0.00  0.00     0.159 HD
HETATM   14  H   UNK N   1      46.231  21.866   3.402  0.00  0.00     0.159 HD
ENDBRANCH   7  10
ENDBRANCH   2   7
BRANCH   3  15
HETATM   15  C   UNK N   1      40.549  23.307   0.286  0.00  0.00     0.006 C 
BRANCH  15  16
HETATM   16  C   UNK N   1      40.698  24.750   0.681  0.00  0.00    -0.004 C 
HETATM   17  C   UNK N   1      39.854  25.560  -0.280  0.00  0.00     0.005 C 
ENDBRANCH  15  16
ENDBRANCH   3  15
TORSDOF 5
ENDMDL
MODEL 3
REMARK VINA RESULT:      -5.0     12.036     13.663
REMARK  5 active torsions:
REMARK  status: ('A' for Active; 'I' for Inactive)
REMARK    1  A    between atoms: N_3  and  C_9 
REMARK       I    between atoms: N_4  and  C_13 
REMARK    2  A    between atoms: C_5  and  C_8 
REMARK    3  A    between atoms: C_8  and  C_11 
REMARK    4  A    between atoms: C_9  and  C_12 
REMARK    5  A    between atoms: C_9  and  C_13 
ROOT
HETATM    1  O   UNK N   1      29.927  18.724   9.997  0.00  0.00    -0.273 OA
HETATM    2  N   UNK N   1      30.400  17.621   8.069  0.00  0.00    -0.338 N 
HETATM    3  C   UNK N   1      28.451  18.043   6.915  0.00  0.00     0.012 A 
HETATM    4  C   UNK N   1      29.779  17.352   6.809  0.00  0.00     0.132 A 
HETATM    5  C   UNK N   1      28.287  18.735   8.268  0.00  0.00     0.109 A 
HETATM    6  C   UNK N   1      29.603  18.370   8.871  0.00  0.00     0.221 A 
ENDROOT
BRANCH   2   7
HETATM    7  C   UNK N   1      31.743  17.114   8.385  0.00  0.00     0.178 C 
BRANCH   7   8
HETATM    8  C   UNK N   1      32.931  18.076   8.179  0.00  0.00     0.030 C 
HETATM    9  C   UNK N   1      33.851  17.763   7.014  0.00  0.00     0.007 C 
ENDBRANCH   7   8
BRANCH   7  10
HETATM   10  C   UNK N   1      31.880  15.668   8.897  0.00  0.00     0.238 C 
HETATM   11  O   UNK N   1      32.155  14.758   8.131  0.00  0.00    -0.271 OA
HETATM   12  N   UNK N   1      31.701  15.375  10.197  0.00  0.00    -0.368 N 
HETATM   13  H   UNK N   1      31.792  14.446  10.510  0.00  0.00     0.159 HD
HETATM   14  H   UNK N   1      31.478  16.090  10.837  0.00  0.00     0.159 HD
ENDBRANCH   7  10
ENDBRANCH   2   7
BRANCH   3  15
HETATM   15  C   UNK N   1      27.527  17.950   5.721  0.00  0.00     0.006 C 
BRANCH  15  16
HETATM   16  C   UNK N   1      28.028  18.650   4.488  0.00  0.00    -0.004 C 
HETATM   17  C   UNK N   1      27.691  20.117   4.647  0.00  0.00     0.005 C 
ENDBRANCH  15  16
ENDBRANCH   3  15
TORSDOF 5
ENDMDL
MODEL 4
REMARK VINA RESULT:      -5.0     16.615     17.740
REMARK  5 active torsions:
REMARK  status: ('A' for Active; 'I' for Inactive)
REMARK    1  A    between atoms: N_3  and  C_9 
REMARK       I    between atoms: N_4  and  C_13 
REMARK    2  A    between atoms: C_5  and  C_8 
REMARK    3  A    between atoms: C_8  and  C_11 
REMARK    4  A    between atoms: C_9  and  C_12 
REMARK    5  A    between atoms: C_9  and  C_13 
ROOT
HETATM    1  O   UNK N   1      18.714  14.648   9.861  0.00  0.00    -0.273 OA
HETATM    2  N   UNK N   1      20.479  15.246   8.564  0.00  0.00    -0.338 N 
HETATM    3  C   UNK N   1      22.032  13.726   9.330  0.00  0.00     0.012 A 
HETATM    4  C   UNK N   1      21.840  14.854   8.359  0.00  0.00     0.132 A 
HETATM    5  C   UNK N   1      20.756  13.448  10.124  0.00  0.00     0.109 A 
HETATM    6  C   UNK N   1      19.878  14.493   9.518  0.00  0.00     0.221 A 
ENDROOT
BRANCH   2   7
HETATM    7  C   UNK N   1      19.875  16.342   7.795  0.00  0.00     0.178 C 
BRANCH   7   8
HETATM    8  C   UNK N   1      19.577  16.083   6.303  0.00  0.00     0.030 C 
HETATM    9  C   UNK N   1      20.601  16.608   5.314  0.00  0.00     0.007 C 
ENDBRANCH   7   8
BRANCH   7  10
HETATM   10  C   UNK N   1      19.578  17.670   8.516  0.00  0.00     0.238 C 
HETATM   11  O   UNK N   1      20.351  18.611   8.435  0.00  0.00    -0.271 OA
HETATM   12  N   UNK N   1      18.463  17.822   9.252  0.00  0.00    -0.368 N 
HETATM   13  H   UNK N   1      18.286  18.677   9.708  0.00  0.00     0.159 HD
HETATM   14  H   UNK N   1      17.822  17.079   9.335  0.00  0.00     0.159 HD
ENDBRANCH   7  10
ENDBRANCH   2   7
BRANCH   3  15
HETATM   15  C   UNK N   1      23.396  13.072   9.368  0.00  0.00     0.006 C 
BRANCH  15  16
HETATM   16  C   UNK N   1      23.426  11.734  10.053  0.00  0.00    -0.004 C 
HETATM   17  C   UNK N   1      23.884  11.976  11.475  0.00  0.00     0.005 C 
ENDBRANCH  15  16
ENDBRANCH   3  15
TORSDOF 5
ENDMDL
MODEL 5
REMARK VINA RESULT:      -5.0      2.338      3.804
REMARK  5 active torsions:
REMARK  status: ('A' for Active; 'I' for Inactive)
REMARK    1  A    between atoms: N_3  and  C_9 
REMARK       I    between atoms: N_4  and  C_13 
REMARK    2  A    between atoms: C_5  and  C_8 
REMARK    3  A    between atoms: C_8  and  C_11 
REMARK    4  A    between atoms: C_9  and  C_12 
REMARK    5  A    between atoms: C_9  and  C_13 
ROOT
HETATM    1  O   UNK N   1      27.051  24.310  -2.295  0.00  0.00    -0.273 OA
HETATM    2  N   UNK N   1      28.398  24.081  -4.110  0.00  0.00    -0.338 N 
HETATM    3  C   UNK N   1      26.786  23.919  -5.747  0.00  0.00     0.012 A 
HETATM    4  C   UNK N   1      28.269  23.921  -5.526  0.00  0.00     0.132 A 
HETATM    5  C   UNK N   1      26.023  24.081  -4.432  0.00  0.00     0.109 A 
HETATM    6  C   UNK N   1      27.188  24.169  -3.503  0.00  0.00     0.221 A 
ENDROOT
BRANCH   2   7
HETATM    7  C   UNK N   1      29.716  24.135  -3.462  0.00  0.00     0.178 C 
BRANCH   7   8
HETATM    8  C   UNK N   1      30.534  25.432  -3.625  0.00  0.00     0.030 C 
HETATM    9  C   UNK N   1      31.772  25.338  -4.497  0.00  0.00     0.007 C 
ENDBRANCH   7   8
BRANCH   7  10
HETATM   10  C   UNK N   1      30.194  22.905  -2.668  0.00  0.00     0.238 C 
HETATM   11  O   UNK N   1      30.416  22.983  -1.470  0.00  0.00    -0.271 OA
HETATM   12  N   UNK N   1      30.379  21.719  -3.274  0.00  0.00    -0.368 N 
HETATM   13  H   UNK N   1      30.686  20.942  -2.754  0.00  0.00     0.159 HD
HETATM   14  H   UNK N   1      30.208  21.628  -4.240  0.00  0.00     0.159 HD
ENDBRANCH   7  10
ENDBRANCH   2   7
BRANCH   3  15
HETATM   15  C   UNK N   1      26.300  23.763  -7.172  0.00  0.00     0.006 C 
BRANCH  15  16
HETATM   16  C   UNK N   1      26.358  22.356  -7.700  0.00  0.00    -0.004 C 
HETATM   17  C   UNK N   1      25.023  21.714  -7.391  0.00  0.00     0.005 C 
ENDBRANCH  15  16
ENDBRANCH   3  15
TORSDOF 5
ENDMDL
MODEL 6
REMARK VINA RESULT:      -5.0     14.995     16.907
REMARK  5 active torsions:
REMARK  status: ('A' for Active; 'I' for Inactive)
REMARK    1  A    between atoms: N_3  and  C_9 
REMARK       I    between atoms: N_4  and  C_13 
REMARK    2  A    between atoms: C_5  and  C_8 
REMARK    3  A    between atoms: C_8  and  C_11 
REMARK    4  A    between atoms: C_9  and  C_12 
REMARK    5  A    between atoms: C_9  and  C_13 
ROOT
HETATM    1  O   UNK N   1      35.486  17.966   9.816  0.00  0.00    -0.273 OA
HETATM    2  N   UNK N   1      34.195  16.125   9.494  0.00  0.00    -0.338 N 
HETATM    3  C   UNK N   1      34.958  14.829  11.239  0.00  0.00     0.012 A 
HETATM    4  C   UNK N   1      33.992  14.841  10.091  0.00  0.00     0.132 A 
HETATM    5  C   UNK N   1      35.748  16.136  11.319  0.00  0.00     0.109 A 
HETATM    6  C   UNK N   1      35.145  16.839  10.149  0.00  0.00     0.221 A 
ENDROOT
BRANCH   2   7
HETATM    7  C   UNK N   1      33.430  16.550   8.314  0.00  0.00     0.178 C 
BRANCH   7   8
HETATM    8  C   UNK N   1      31.909  16.747   8.488  0.00  0.00     0.030 C 
HETATM    9  C   UNK N   1      31.104  16.899   7.211  0.00  0.00     0.007 C 
ENDBRANCH   7   8
BRANCH   7  10
HETATM   10  C   UNK N   1      34.184  16.770   6.989  0.00  0.00     0.238 C 
HETATM   11  O   UNK N   1      34.449  17.897   6.601  0.00  0.00    -0.271 OA
HETATM   12  N   UNK N   1      34.567  15.728   6.230  0.00  0.00    -0.368 N 
HETATM   13  H   UNK N   1      35.048  15.885   5.386  0.00  0.00     0.159 HD
HETATM   14  H   UNK N   1      34.366  14.808   6.519  0.00  0.00     0.159 HD
ENDBRANCH   7  10
ENDBRANCH   2   7
BRANCH   3  15
HETATM   15  C   UNK N   1      34.997  13.583  12.097  0.00  0.00     0.006 C 
BRANCH  15  16
HETATM   16  C   UNK N   1      36.309  13.345  12.792  0.00  0.00    -0.004 C 
HETATM   17  C   UNK N   1      36.144  13.817  14.220  0.00  0.00     0.005 C 
ENDBRANCH  15  16
ENDBRANCH   3  15
TORSDOF 5
ENDMDL
MODEL 7
REMARK VINA RESULT:      -5.0     18.493     20.413
REMARK  5 active torsions:
REMARK  status: ('A' for Active; 'I' for Inactive)
REMARK    1  A    between atoms: N_3  and  C_9 
REMARK       I    between atoms: N_4  and  C_13 
REMARK    2  A    between atoms: C_5  and  C_8 
REMARK    3  A    between atoms: C_8  and  C_11 
REMARK    4  A    between atoms: C_9  and  C_12 
REMARK    5  A    between atoms: C_9  and  C_13 
ROOT
HETATM    1  O   UNK N   1      34.726  12.357  11.191  0.00  0.00    -0.273 OA
HETATM    2  N   UNK N   1      35.832  14.097  12.141  0.00  0.00    -0.338 N 
HETATM    3  C   UNK N   1      35.759  13.423  14.343  0.00  0.00     0.012 A 
HETATM    4  C   UNK N   1      36.249  14.519  13.444  0.00  0.00     0.132 A 
HETATM    5  C   UNK N   1      35.038  12.331  13.552  0.00  0.00     0.109 A 
HETATM    6  C   UNK N   1      35.174  12.912  12.184  0.00  0.00     0.221 A 
ENDROOT
BRANCH   2   7
HETATM    7  C   UNK N   1      36.119  14.904  10.947  0.00  0.00     0.178 C 
BRANCH   7   8
HETATM    8  C   UNK N   1      37.339  14.500  10.093  0.00  0.00     0.030 C 
HETATM    9  C   UNK N   1      37.036  13.903   8.732  0.00  0.00     0.007 C 
ENDBRANCH   7   8
BRANCH   7  10
HETATM   10  C   UNK N   1      35.194  16.092  10.624  0.00  0.00     0.238 C 
HETATM   11  O   UNK N   1      35.646  17.218  10.488  0.00  0.00    -0.271 OA
HETATM   12  N   UNK N   1      33.868  15.917  10.483  0.00  0.00    -0.368 N 
HETATM   13  H   UNK N   1      33.289  16.686  10.276  0.00  0.00     0.159 HD
HETATM   14  H   UNK N   1      33.475  15.020  10.587  0.00  0.00     0.159 HD
ENDBRANCH   7  10
ENDBRANCH   2   7
BRANCH   3  15
HETATM   15  C   UNK N   1      36.044  13.564  15.822  0.00  0.00     0.006 C 
BRANCH  15  16
HETATM   16  C   UNK N   1      34.905  13.160  16.717  0.00  0.00    -0.004 C 
HETATM   17  C   UNK N   1      35.316  11.873  17.401  0.00  0.00     0.005 C 
ENDBRANCH  15  16
ENDBRANCH   3  15
TORSDOF 5
ENDMDL
MODEL 8
REMARK VINA RESULT:      -5.0     10.317     11.940
REMARK  5 active torsions:
REMARK  status: ('A' for Active; 'I' for Inactive)
REMARK    1  A    between atoms: N_3  and  C_9 
REMARK       I    between atoms: N_4  and  C_13 
REMARK    2  A    between atoms: C_5  and  C_8 
REMARK    3  A    between atoms: C_8  and  C_11 
REMARK    4  A    between atoms: C_9  and  C_12 
REMARK    5  A    between atoms: C_9  and  C_13 
ROOT
HETATM    1  O   UNK N   1      22.026  20.479   2.964  0.00  0.00    -0.273 OA
HETATM    2  N   UNK N   1      23.332  18.896   3.936  0.00  0.00    -0.338 N 
HETATM    3  C   UNK N   1      25.399  19.840   3.559  0.00  0.00     0.012 A 
HETATM    4  C   UNK N   1      24.722  18.650   4.171  0.00  0.00     0.132 A 
HETATM    5  C   UNK N   1      24.385  20.808   2.949  0.00  0.00     0.109 A 
HETATM    6  C   UNK N   1      23.134  20.063   3.274  0.00  0.00     0.221 A 
ENDROOT
BRANCH   2   7
HETATM    7  C   UNK N   1      22.300  17.952   4.387  0.00  0.00     0.178 C 
BRANCH   7   8
HETATM    8  C   UNK N   1      21.468  17.237   3.301  0.00  0.00     0.030 C 
HETATM    9  C   UNK N   1      19.978  17.522   3.304  0.00  0.00     0.007 C 
ENDBRANCH   7   8
BRANCH   7  10
HETATM   10  C   UNK N   1      22.113  17.735   5.900  0.00  0.00     0.238 C 
HETATM   11  O   UNK N   1      21.543  18.569   6.585  0.00  0.00    -0.271 OA
HETATM   12  N   UNK N   1      22.574  16.623   6.501  0.00  0.00    -0.368 N 
HETATM   13  H   UNK N   1      22.447  16.498   7.470  0.00  0.00     0.159 HD
HETATM   14  H   UNK N   1      23.038  15.933   5.973  0.00  0.00     0.159 HD
ENDBRANCH   7  10
ENDBRANCH   2   7
BRANCH   3  15
HETATM   15  C   UNK N   1      26.909  19.891   3.637  0.00  0.00     0.006 C 
BRANCH  15  16
HETATM   16  C   UNK N   1      27.462  19.859   5.035  0.00  0.00    -0.004 C 
HETATM   17  C   UNK N   1      27.112  21.184   5.678  0.00  0.00     0.005 C 
ENDBRANCH  15  16
ENDBRANCH   3  15
TORSDOF 5
ENDMDL
MODEL 9
REMARK VINA RESULT:      -4.9      9.751     11.377
REMARK  5 active torsions:
REMARK  status: ('A' for Active; 'I' for Inactive)
REMARK    1  A    between atoms: N_3  and  C_9 
REMARK       I    between atoms: N_4  and  C_13 
REMARK    2  A    between atoms: C_5  and  C_8 
REMARK    3  A    between atoms: C_8  and  C_11 
REMARK    4  A    between atoms: C_9  and  C_12 
REMARK    5  A    between atoms: C_9  and  C_13 
ROOT
HETATM    1  O   UNK N   1      23.023  20.969   2.280  0.00  0.00    -0.273 OA
HETATM    2  N   UNK N   1      23.372  19.300   3.779  0.00  0.00    -0.338 N 
HETATM    3  C   UNK N   1      25.673  19.365   3.877  0.00  0.00     0.012 A 
HETATM    4  C   UNK N   1      24.472  18.652   4.426  0.00  0.00     0.132 A 
HETATM    5  C   UNK N   1      25.270  20.457   2.885  0.00  0.00     0.109 A 
HETATM    6  C   UNK N   1      23.789  20.280   2.941  0.00  0.00     0.221 A 
ENDROOT
BRANCH   2   7
HETATM    7  C   UNK N   1      21.984  18.895   4.043  0.00  0.00     0.178 C 
BRANCH   7   8
HETATM    8  C   UNK N   1      21.761  17.703   4.996  0.00  0.00     0.030 C 
HETATM    9  C   UNK N   1      21.331  18.047   6.410  0.00  0.00     0.007 C 
ENDBRANCH   7   8
BRANCH   7  10
HETATM   10  C   UNK N   1      20.848  19.678   3.358  0.00  0.00     0.238 C 
HETATM   11  O   UNK N   1      20.305  20.614   3.923  0.00  0.00    -0.271 OA
HETATM   12  N   UNK N   1      20.428  19.349   2.123  0.00  0.00    -0.368 N 
HETATM   13  H   UNK N   1      19.701  19.859   1.698  0.00  0.00     0.159 HD
HETATM   14  H   UNK N   1      20.849  18.598   1.644  0.00  0.00     0.159 HD
ENDBRANCH   7  10
ENDBRANCH   2   7
BRANCH   3  15
HETATM   15  C   UNK N   1      27.030  18.913   4.369  0.00  0.00     0.006 C 
BRANCH  15  16
HETATM   16  C   UNK N   1      27.996  20.030   4.648  0.00  0.00    -0.004 C 
HETATM   17  C   UNK N   1      27.472  20.776   5.856  0.00  0.00     0.005 C 
ENDBRANCH  15  16
ENDBRANCH   3  15
TORSDOF 5
ENDMDL
