MODEL 1
REMARK VINA RESULT:      -7.4      0.000      0.000
REMARK  1 active torsions:
REMARK  status: ('A' for Active; 'I' for Inactive)
REMARK    1  A    between atoms: O_1  and  C_9 
ROOT
HETATM    1  O   UNK N   1      24.960  27.327  -6.220  0.00  0.00    -0.293 OA
HETATM    2  C   UNK N   1      30.393  22.212  -5.064  0.00  0.00     0.001 C 
HETATM    3  C   UNK N   1      31.029  22.588  -3.718  0.00  0.00    -0.014 C 
HETATM    4  C   UNK N   1      28.879  22.535  -5.176  0.00  0.00    -0.001 C 
HETATM    5  C   UNK N   1      28.533  23.759  -4.301  0.00  0.00    -0.002 C 
HETATM    6  C   UNK N   1      29.988  22.471  -2.594  0.00  0.00     0.012 C 
HETATM    7  C   UNK N   1      28.798  23.424  -2.817  0.00  0.00     0.006 C 
HETATM    8  C   UNK N   1      32.152  21.574  -3.600  0.00  0.00     0.126 C 
HETATM    9  C   UNK N   1      28.447  22.732  -6.643  0.00  0.00    -0.010 C 
HETATM   10  C   UNK N   1      30.617  20.707  -5.225  0.00  0.00     0.008 C 
HETATM   11  C   UNK N   1      27.086  24.258  -4.450  0.00  0.00     0.019 C 
HETATM   12  C   UNK N   1      31.572  20.280  -4.119  0.00  0.00     0.033 C 
HETATM   13  C   UNK N   1      26.955  23.014  -6.710  0.00  0.00     0.039 C 
HETATM   14  C   UNK N   1      31.613  23.995  -3.738  0.00  0.00     0.018 C 
HETATM   15  C   UNK N   1      26.644  24.226  -5.903  0.00  0.00    -0.071 C 
HETATM   16  C   UNK N   1      27.005  25.675  -3.846  0.00  0.00     0.017 C 
HETATM   17  C   UNK N   1      28.716  21.497  -7.484  0.00  0.00     0.010 C 
HETATM   18  C   UNK N   1      25.697  26.375  -4.191  0.00  0.00     0.084 C 
HETATM   19  C   UNK N   1      25.944  25.223  -6.468  0.00  0.00     0.053 C 
HETATM   20  C   UNK N   1      25.518  26.387  -5.676  0.00  0.00     0.149 C 
ENDROOT
BRANCH   8  21
HETATM   21  O   UNK N   1      32.625  21.441  -2.292  0.00  0.00    -0.395 OA
HETATM   22  H   UNK N   1      32.923  20.599  -1.914  0.00  0.00     0.210 HD
ENDBRANCH   8  21
TORSDOF 1
ENDMDL
MODEL 2
REMARK VINA RESULT:      -7.3     11.263     14.443
REMARK  1 active torsions:
REMARK  status: ('A' for Active; 'I' for Inactive)
REMARK    1  A    between atoms: O_1  and  C_9 
ROOT
HETATM    1  O   UNK N   1      34.945  19.070   8.177  0.00  0.00    -0.293 OA
HETATM    2  C   UNK N   1      28.029  16.847   6.116  0.00  0.00     0.001 C 
HETATM    3  C   UNK N   1      28.213  16.141   4.764  0.00  0.00    -0.014 C 
HETATM    4  C   UNK N   1      29.232  16.707   7.086  0.00  0.00    -0.001 C 
HETATM    5  C   UNK N   1      30.545  16.571   6.286  0.00  0.00    -0.002 C 
HETATM    6  C   UNK N   1      29.104  14.900   4.937  0.00  0.00     0.012 C 
HETATM    7  C   UNK N   1      30.508  15.273   5.450  0.00  0.00     0.006 C 
HETATM    8  C   UNK N   1      26.784  15.802   4.384  0.00  0.00     0.126 C 
HETATM    9  C   UNK N   1      29.287  17.872   8.095  0.00  0.00    -0.010 C 
HETATM   10  C   UNK N   1      26.779  16.228   6.744  0.00  0.00     0.008 C 
HETATM   11  C   UNK N   1      31.819  16.573   7.150  0.00  0.00     0.019 C 
HETATM   12  C   UNK N   1      26.125  15.368   5.671  0.00  0.00     0.033 C 
HETATM   13  C   UNK N   1      30.457  17.680   9.045  0.00  0.00     0.039 C 
HETATM   14  C   UNK N   1      28.814  17.067   3.715  0.00  0.00     0.018 C 
HETATM   15  C   UNK N   1      31.722  17.601   8.263  0.00  0.00    -0.071 C 
HETATM   16  C   UNK N   1      33.024  16.827   6.222  0.00  0.00     0.017 C 
HETATM   17  C   UNK N   1      28.026  17.955   8.936  0.00  0.00     0.010 C 
HETATM   18  C   UNK N   1      34.297  17.131   7.000  0.00  0.00     0.084 C 
HETATM   19  C   UNK N   1      32.746  18.402   8.598  0.00  0.00     0.053 C 
HETATM   20  C   UNK N   1      34.049  18.279   7.927  0.00  0.00     0.149 C 
ENDROOT
BRANCH   8  21
HETATM   21  O   UNK N   1      26.706  14.809   3.404  0.00  0.00    -0.395 OA
HETATM   22  H   UNK N   1      25.980  14.744   2.764  0.00  0.00     0.210 HD
ENDBRANCH   8  21
TORSDOF 1
ENDMDL
MODEL 3
REMARK VINA RESULT:      -7.0      2.480      5.932
REMARK  1 active torsions:
REMARK  status: ('A' for Active; 'I' for Inactive)
REMARK    1  A    between atoms: O_1  and  C_9 
ROOT
HETATM    1  O   UNK N   1      29.374  18.312  -7.699  0.00  0.00    -0.293 OA
HETATM    2  C   UNK N   1      26.126  24.872  -5.844  0.00  0.00     0.001 C 
HETATM    3  C   UNK N   1      26.827  25.325  -4.555  0.00  0.00    -0.014 C 
HETATM    4  C   UNK N   1      27.025  24.067  -6.820  0.00  0.00    -0.001 C 
HETATM    5  C   UNK N   1      28.100  23.290  -6.031  0.00  0.00    -0.002 C 
HETATM    6  C   UNK N   1      28.320  25.569  -4.828  0.00  0.00     0.012 C 
HETATM    7  C   UNK N   1      29.029  24.287  -5.305  0.00  0.00     0.006 C 
HETATM    8  C   UNK N   1      26.069  26.593  -4.207  0.00  0.00     0.126 C 
HETATM    9  C   UNK N   1      26.190  23.142  -7.728  0.00  0.00    -0.010 C 
HETATM   10  C   UNK N   1      25.633  26.151  -6.523  0.00  0.00     0.008 C 
HETATM   11  C   UNK N   1      28.956  22.341  -6.888  0.00  0.00     0.019 C 
HETATM   12  C   UNK N   1      25.831  27.285  -5.527  0.00  0.00     0.033 C 
HETATM   13  C   UNK N   1      27.105  22.398  -8.688  0.00  0.00     0.039 C 
HETATM   14  C   UNK N   1      26.666  24.310  -3.431  0.00  0.00     0.018 C 
HETATM   15  C   UNK N   1      28.104  21.613  -7.913  0.00  0.00    -0.071 C 
HETATM   16  C   UNK N   1      29.688  21.371  -5.940  0.00  0.00     0.017 C 
HETATM   17  C   UNK N   1      25.188  23.918  -8.563  0.00  0.00     0.010 C 
HETATM   18  C   UNK N   1      30.337  20.214  -6.688  0.00  0.00     0.084 C 
HETATM   19  C   UNK N   1      28.253  20.305  -8.178  0.00  0.00     0.053 C 
HETATM   20  C   UNK N   1      29.305  19.518  -7.517  0.00  0.00     0.149 C 
ENDROOT
BRANCH   8  21
HETATM   21  O   UNK N   1      26.764  27.411  -3.312  0.00  0.00    -0.395 OA
HETATM   22  H   UNK N   1      27.498  27.097  -2.760  0.00  0.00     0.210 HD
ENDBRANCH   8  21
TORSDOF 1
ENDMDL
MODEL 4
REMARK VINA RESULT:      -7.0      2.362      5.864
REMARK  1 active torsions:
REMARK  status: ('A' for Active; 'I' for Inactive)
REMARK    1  A    between atoms: O_1  and  C_9 
ROOT
HETATM    1  O   UNK N   1      30.443  22.827  -1.430  0.00  0.00    -0.293 OA
HETATM    2  C   UNK N   1      27.839  21.001  -8.278  0.00  0.00     0.001 C 
HETATM    3  C   UNK N   1      26.739  22.029  -8.585  0.00  0.00    -0.014 C 
HETATM    4  C   UNK N   1      29.001  21.541  -7.403  0.00  0.00    -0.001 C 
HETATM    5  C   UNK N   1      28.484  22.649  -6.461  0.00  0.00    -0.002 C 
HETATM    6  C   UNK N   1      27.342  23.442  -8.642  0.00  0.00     0.012 C 
HETATM    7  C   UNK N   1      27.979  23.844  -7.298  0.00  0.00     0.006 C 
HETATM    8  C   UNK N   1      26.217  21.548  -9.926  0.00  0.00     0.126 C 
HETATM    9  C   UNK N   1      29.704  20.406  -6.631  0.00  0.00    -0.010 C 
HETATM   10  C   UNK N   1      28.377  20.548  -9.637  0.00  0.00     0.008 C 
HETATM   11  C   UNK N   1      29.522  23.154  -5.443  0.00  0.00     0.019 C 
HETATM   12  C   UNK N   1      27.442  21.117 -10.695  0.00  0.00     0.033 C 
HETATM   13  C   UNK N   1      30.853  20.972  -5.813  0.00  0.00     0.039 C 
HETATM   14  C   UNK N   1      25.617  21.987  -7.556  0.00  0.00     0.018 C 
HETATM   15  C   UNK N   1      30.333  22.003  -4.873  0.00  0.00    -0.071 C 
HETATM   16  C   UNK N   1      28.773  23.940  -4.349  0.00  0.00     0.017 C 
HETATM   17  C   UNK N   1      30.282  19.357  -7.564  0.00  0.00     0.010 C 
HETATM   18  C   UNK N   1      29.660  24.242  -3.148  0.00  0.00     0.084 C 
HETATM   19  C   UNK N   1      30.637  21.909  -3.569  0.00  0.00     0.053 C 
HETATM   20  C   UNK N   1      30.239  22.965  -2.626  0.00  0.00     0.149 C 
ENDROOT
BRANCH   8  21
HETATM   21  O   UNK N   1      25.496  22.531 -10.610  0.00  0.00    -0.395 OA
HETATM   22  H   UNK N   1      24.966  22.352 -11.402  0.00  0.00     0.210 HD
ENDBRANCH   8  21
TORSDOF 1
ENDMDL
MODEL 5
REMARK VINA RESULT:      -7.0     11.207     13.195
REMARK  1 active torsions:
REMARK  status: ('A' for Active; 'I' for Inactive)
REMARK    1  A    between atoms: O_1  and  C_9 
ROOT
HETATM    1  O   UNK N   1      26.951  20.562   6.951  0.00  0.00    -0.293 OA
HETATM    2  C   UNK N   1      33.223  16.548   5.698  0.00  0.00     0.001 C 
HETATM    3  C   UNK N   1      33.853  16.331   7.081  0.00  0.00    -0.014 C 
HETATM    4  C   UNK N   1      31.672  16.618   5.698  0.00  0.00    -0.001 C 
HETATM    5  C   UNK N   1      31.169  17.188   7.041  0.00  0.00    -0.002 C 
HETATM    6  C   UNK N   1      32.904  15.508   7.967  0.00  0.00     0.012 C 
HETATM    7  C   UNK N   1      31.560  16.229   8.187  0.00  0.00     0.006 C 
HETATM    8  C   UNK N   1      35.136  15.597   6.738  0.00  0.00     0.126 C 
HETATM    9  C   UNK N   1      31.140  17.421   4.493  0.00  0.00    -0.010 C 
HETATM   10  C   UNK N   1      33.690  15.372   4.838  0.00  0.00     0.008 C 
HETATM   11  C   UNK N   1      29.651  17.439   7.096  0.00  0.00     0.019 C 
HETATM   12  C   UNK N   1      34.758  14.636   5.636  0.00  0.00     0.033 C 
HETATM   13  C   UNK N   1      29.621  17.438   4.514  0.00  0.00     0.039 C 
HETATM   14  C   UNK N   1      34.188  17.650   7.767  0.00  0.00     0.018 C 
HETATM   15  C   UNK N   1      29.149  18.036   5.793  0.00  0.00    -0.071 C 
HETATM   16  C   UNK N   1      29.363  18.350   8.306  0.00  0.00     0.017 C 
HETATM   17  C   UNK N   1      31.572  16.813   3.171  0.00  0.00     0.010 C 
HETATM   18  C   UNK N   1      27.940  18.892   8.293  0.00  0.00     0.084 C 
HETATM   19  C   UNK N   1      28.263  19.044   5.754  0.00  0.00     0.053 C 
HETATM   20  C   UNK N   1      27.687  19.588   6.993  0.00  0.00     0.149 C 
ENDROOT
BRANCH   8  21
HETATM   21  O   UNK N   1      35.690  14.933   7.835  0.00  0.00    -0.395 OA
HETATM   22  H   UNK N   1      36.137  15.388   8.566  0.00  0.00     0.210 HD
ENDBRANCH   8  21
TORSDOF 1
ENDMDL
MODEL 6
REMARK VINA RESULT:      -7.0      4.295      6.328
REMARK  1 active torsions:
REMARK  status: ('A' for Active; 'I' for Inactive)
REMARK    1  A    between atoms: O_1  and  C_9 
ROOT
HETATM    1  O   UNK N   1      25.556  20.961 -10.131  0.00  0.00    -0.293 OA
HETATM    2  C   UNK N   1      26.661  27.520  -6.558  0.00  0.00     0.001 C 
HETATM    3  C   UNK N   1      25.865  27.412  -5.249  0.00  0.00    -0.014 C 
HETATM    4  C   UNK N   1      27.243  26.176  -7.072  0.00  0.00    -0.001 C 
HETATM    5  C   UNK N   1      26.337  25.005  -6.637  0.00  0.00    -0.002 C 
HETATM    6  C   UNK N   1      26.429  26.273  -4.384  0.00  0.00     0.012 C 
HETATM    7  C   UNK N   1      26.322  24.911  -5.096  0.00  0.00     0.006 C 
HETATM    8  C   UNK N   1      26.069  28.785  -4.635  0.00  0.00     0.126 C 
HETATM    9  C   UNK N   1      27.464  26.201  -8.598  0.00  0.00    -0.010 C 
HETATM   10  C   UNK N   1      27.797  28.506  -6.275  0.00  0.00     0.008 C 
HETATM   11  C   UNK N   1      26.741  23.639  -7.218  0.00  0.00     0.019 C 
HETATM   12  C   UNK N   1      27.512  29.132  -4.917  0.00  0.00     0.033 C 
HETATM   13  C   UNK N   1      28.064  24.882  -9.055  0.00  0.00     0.039 C 
HETATM   14  C   UNK N   1      24.381  27.182  -5.502  0.00  0.00     0.018 C 
HETATM   15  C   UNK N   1      27.155  23.766  -8.674  0.00  0.00    -0.071 C 
HETATM   16  C   UNK N   1      25.556  22.672  -7.029  0.00  0.00     0.017 C 
HETATM   17  C   UNK N   1      28.419  27.305  -9.016  0.00  0.00     0.010 C 
HETATM   18  C   UNK N   1      25.735  21.380  -7.816  0.00  0.00     0.084 C 
HETATM   19  C   UNK N   1      26.774  22.885  -9.613  0.00  0.00     0.053 C 
HETATM   20  C   UNK N   1      25.970  21.706  -9.257  0.00  0.00     0.149 C 
ENDROOT
BRANCH   8  21
HETATM   21  O   UNK N   1      25.789  28.813  -3.266  0.00  0.00    -0.395 OA
HETATM   22  H   UNK N   1      25.051  28.331  -2.862  0.00  0.00     0.210 HD
ENDBRANCH   8  21
TORSDOF 1
ENDMDL
MODEL 7
REMARK VINA RESULT:      -6.8     21.828     24.983
REMARK  1 active torsions:
REMARK  status: ('A' for Active; 'I' for Inactive)
REMARK    1  A    between atoms: O_1  and  C_9 
ROOT
HETATM    1  O   UNK N   1      35.182  10.495  20.701  0.00  0.00    -0.293 OA
HETATM    2  C   UNK N   1      37.080  12.001  13.549  0.00  0.00     0.001 C 
HETATM    3  C   UNK N   1      36.991  10.657  12.811  0.00  0.00    -0.014 C 
HETATM    4  C   UNK N   1      36.068  12.166  14.715  0.00  0.00    -0.001 C 
HETATM    5  C   UNK N   1      35.749  10.790  15.336  0.00  0.00    -0.002 C 
HETATM    6  C   UNK N   1      35.545  10.136  12.843  0.00  0.00     0.012 C 
HETATM    7  C   UNK N   1      35.057   9.896  14.284  0.00  0.00     0.006 C 
HETATM    8  C   UNK N   1      37.461  11.026  11.416  0.00  0.00     0.126 C 
HETATM    9  C   UNK N   1      36.574  13.173  15.767  0.00  0.00    -0.010 C 
HETATM   10  C   UNK N   1      36.833  13.077  12.489  0.00  0.00     0.008 C 
HETATM   11  C   UNK N   1      34.868  10.851  16.597  0.00  0.00     0.019 C 
HETATM   12  C   UNK N   1      36.848  12.378  11.137  0.00  0.00     0.033 C 
HETATM   13  C   UNK N   1      35.543  13.329  16.872  0.00  0.00     0.039 C 
HETATM   14  C   UNK N   1      37.929   9.616  13.407  0.00  0.00     0.018 C 
HETATM   15  C   UNK N   1      35.281  12.003  17.497  0.00  0.00    -0.071 C 
HETATM   16  C   UNK N   1      34.963   9.488  17.311  0.00  0.00     0.017 C 
HETATM   17  C   UNK N   1      36.812  14.548  15.168  0.00  0.00     0.010 C 
HETATM   18  C   UNK N   1      34.362   9.528  18.710  0.00  0.00     0.084 C 
HETATM   19  C   UNK N   1      35.371  11.882  18.831  0.00  0.00     0.053 C 
HETATM   20  C   UNK N   1      35.012  10.621  19.498  0.00  0.00     0.149 C 
ENDROOT
BRANCH   8  21
HETATM   21  O   UNK N   1      37.093  10.083  10.453  0.00  0.00    -0.395 OA
HETATM   22  H   UNK N   1      36.173   9.902  10.206  0.00  0.00     0.210 HD
ENDBRANCH   8  21
TORSDOF 1
ENDMDL
MODEL 8
REMARK VINA RESULT:      -6.8      1.748      6.634
REMARK  1 active torsions:
REMARK  status: ('A' for Active; 'I' for Inactive)
REMARK    1  A    between atoms: O_1  and  C_9 
ROOT
HETATM    1  O   UNK N   1      32.775  21.420  -5.676  0.00  0.00    -0.293 OA
HETATM    2  C   UNK N   1      27.697  26.957  -4.918  0.00  0.00     0.001 C 
HETATM    3  C   UNK N   1      26.414  26.428  -5.575  0.00  0.00    -0.014 C 
HETATM    4  C   UNK N   1      28.578  25.867  -4.252  0.00  0.00    -0.001 C 
HETATM    5  C   UNK N   1      28.406  24.523  -4.991  0.00  0.00    -0.002 C 
HETATM    6  C   UNK N   1      25.912  25.185  -4.821  0.00  0.00     0.012 C 
HETATM    7  C   UNK N   1      26.945  24.043  -4.855  0.00  0.00     0.006 C 
HETATM    8  C   UNK N   1      25.479  27.617  -5.455  0.00  0.00     0.126 C 
HETATM    9  C   UNK N   1      30.056  26.301  -4.176  0.00  0.00    -0.010 C 
HETATM   10  C   UNK N   1      27.240  27.971  -3.867  0.00  0.00     0.008 C 
HETATM   11  C   UNK N   1      29.346  23.406  -4.506  0.00  0.00     0.019 C 
HETATM   12  C   UNK N   1      25.751  28.197  -4.088  0.00  0.00     0.033 C 
HETATM   13  C   UNK N   1      30.877  25.221  -3.490  0.00  0.00     0.039 C 
HETATM   14  C   UNK N   1      26.624  26.091  -7.045  0.00  0.00     0.018 C 
HETATM   15  C   UNK N   1      30.742  23.943  -4.242  0.00  0.00    -0.071 C 
HETATM   16  C   UNK N   1      29.341  22.285  -5.564  0.00  0.00     0.017 C 
HETATM   17  C   UNK N   1      30.232  27.582  -3.381  0.00  0.00     0.010 C 
HETATM   18  C   UNK N   1      30.446  21.264  -5.328  0.00  0.00     0.084 C 
HETATM   19  C   UNK N   1      31.852  23.286  -4.617  0.00  0.00     0.053 C 
HETATM   20  C   UNK N   1      31.765  21.967  -5.260  0.00  0.00     0.149 C 
ENDROOT
BRANCH   8  21
HETATM   21  O   UNK N   1      24.135  27.266  -5.610  0.00  0.00    -0.395 OA
HETATM   22  H   UNK N   1      23.698  27.189  -6.473  0.00  0.00     0.210 HD
ENDBRANCH   8  21
TORSDOF 1
ENDMDL
MODEL 9
REMARK VINA RESULT:      -6.8     11.064     13.067
REMARK  1 active torsions:
REMARK  status: ('A' for Active; 'I' for Inactive)
REMARK    1  A    between atoms: O_1  and  C_9 
ROOT
HETATM    1  O   UNK N   1      26.688  20.931   4.066  0.00  0.00    -0.293 OA
HETATM    2  C   UNK N   1      31.821  16.162   6.879  0.00  0.00     0.001 C 
HETATM    3  C   UNK N   1      32.105  16.660   8.304  0.00  0.00    -0.014 C 
HETATM    4  C   UNK N   1      30.370  16.407   6.386  0.00  0.00    -0.001 C 
HETATM    5  C   UNK N   1      29.791  17.672   7.054  0.00  0.00    -0.002 C 
HETATM    6  C   UNK N   1      30.827  16.574   9.154  0.00  0.00     0.012 C 
HETATM    7  C   UNK N   1      29.700  17.454   8.580  0.00  0.00     0.006 C 
HETATM    8  C   UNK N   1      33.194  15.709   8.765  0.00  0.00     0.126 C 
HETATM    9  C   UNK N   1      30.299  16.481   4.847  0.00  0.00    -0.010 C 
HETATM   10  C   UNK N   1      32.119  14.661   6.895  0.00  0.00     0.008 C 
HETATM   11  C   UNK N   1      28.408  18.094   6.526  0.00  0.00     0.019 C 
HETATM   12  C   UNK N   1      32.791  14.357   8.227  0.00  0.00     0.033 C 
HETATM   13  C   UNK N   1      28.859  16.690   4.406  0.00  0.00     0.039 C 
HETATM   14  C   UNK N   1      32.637  18.087   8.313  0.00  0.00     0.018 C 
HETATM   15  C   UNK N   1      28.330  17.940   5.017  0.00  0.00    -0.071 C 
HETATM   16  C   UNK N   1      28.146  19.544   6.980  0.00  0.00     0.017 C 
HETATM   17  C   UNK N   1      30.795  15.204   4.194  0.00  0.00     0.010 C 
HETATM   18  C   UNK N   1      26.941  20.158   6.281  0.00  0.00     0.084 C 
HETATM   19  C   UNK N   1      27.760  18.862   4.225  0.00  0.00     0.053 C 
HETATM   20  C   UNK N   1      27.124  20.058   4.799  0.00  0.00     0.149 C 
ENDROOT
BRANCH   8  21
HETATM   21  O   UNK N   1      33.342  15.689  10.154  0.00  0.00    -0.395 OA
HETATM   22  H   UNK N   1      33.742  16.414  10.660  0.00  0.00     0.210 HD
ENDBRANCH   8  21
TORSDOF 1
ENDMDL
