MODEL 1
REMARK VINA RESULT:      -6.7      0.000      0.000
REMARK  4 active torsions:
REMARK  status: ('A' for Active; 'I' for Inactive)
REMARK    1  A    between atoms: C_14  and  C_11 
REMARK    2  A    between atoms: C_19  and  C_16 
REMARK    3  A    between atoms: O_24  and  C_17 
REMARK    4  A    between atoms: O_25  and  C_18 
ROOT
HETATM    1  C   UNK N   1      28.153  18.062   8.156  0.00  0.00     0.024 C 
HETATM    2  C   UNK N   1      28.188  18.916   6.908  0.00  0.00     0.042 C 
HETATM    3  C   UNK N   1      29.575  17.622   8.500  0.00  0.00     0.120 C 
HETATM    4  C   UNK N   1      28.095  18.005   4.586  0.00  0.00     0.023 C 
HETATM    5  C   UNK N   1      28.722  18.070   5.794  0.00  0.00    -0.030 C 
HETATM    6  C   UNK N   1      29.987  17.299   6.105  0.00  0.00     0.046 C 
HETATM    7  N   UNK N   1      30.332  17.141   7.351  0.00  0.00    -0.389 N 
ATOM      8  HN  UNK N   1      31.201  16.642   7.537  1.00  0.00     0.159 HD
ENDROOT
BRANCH   4   9
HETATM    9  C   UNK N   1      26.867  18.752   4.158  0.00  0.00    -0.002 A 
HETATM   10  C   UNK N   1      26.986  19.971   3.468  0.00  0.00     0.017 A 
HETATM   11  C   UNK N   1      25.860  20.709   3.098  0.00  0.00     0.038 A 
HETATM   12  C   UNK N   1      24.584  20.251   3.416  0.00  0.00     0.070 A 
HETATM   13  C   UNK N   1      24.443  19.040   4.101  0.00  0.00     0.074 A 
HETATM   14  C   UNK N   1      25.551  18.274   4.468  0.00  0.00     0.081 A 
BRANCH  12  15
HETATM   15  O   UNK N   1      23.506  20.980   3.043  0.00  0.00    -0.356 OA
HETATM   16  C   UNK N   1      22.300  20.413   2.695  0.00  0.00     0.210 C 
ENDBRANCH  12  15
BRANCH  14  17
HETATM   17  O   UNK N   1      25.283  17.090   5.082  0.00  0.00    -0.355 OA
HETATM   18  C   UNK N   1      24.961  15.914   4.444  0.00  0.00     0.210 C 
ENDBRANCH  14  17
ENDBRANCH   4   9
BRANCH   6  19
HETATM   19  C   UNK N   1      30.928  16.760   5.061  0.00  0.00     0.006 A 
HETATM   20  C   UNK N   1      31.830  17.626   4.424  0.00  0.00     0.016 A 
HETATM   21  C   UNK N   1      32.680  17.152   3.422  0.00  0.00     0.018 A 
HETATM   22  C   UNK N   1      32.619  15.810   3.052  0.00  0.00     0.087 A 
HETATM   23  N   UNK N   1      31.732  14.979   3.657  0.00  0.00    -0.374 N 
HETATM   24  C   UNK N   1      30.895  15.426   4.630  0.00  0.00     0.101 A 
ATOM     25  HN  UNK N   1      31.693  13.999   3.375  1.00  0.00     0.164 HD
ENDBRANCH   6  19
TORSDOF 4
ENDMDL
MODEL 2
REMARK VINA RESULT:      -6.7      1.713      1.890
REMARK  4 active torsions:
REMARK  status: ('A' for Active; 'I' for Inactive)
REMARK    1  A    between atoms: C_14  and  C_11 
REMARK    2  A    between atoms: C_19  and  C_16 
REMARK    3  A    between atoms: O_24  and  C_17 
REMARK    4  A    between atoms: O_25  and  C_18 
ROOT
HETATM    1  C   UNK N   1      28.083  17.923   9.209  0.00  0.00     0.024 C 
HETATM    2  C   UNK N   1      28.439  18.719   7.973  0.00  0.00     0.042 C 
HETATM    3  C   UNK N   1      29.363  17.600   9.980  0.00  0.00     0.120 C 
HETATM    4  C   UNK N   1      29.082  17.697   5.789  0.00  0.00     0.023 C 
HETATM    5  C   UNK N   1      29.322  17.861   7.120  0.00  0.00    -0.030 C 
HETATM    6  C   UNK N   1      30.478  17.195   7.835  0.00  0.00     0.046 C 
HETATM    7  N   UNK N   1      30.448  17.120   9.135  0.00  0.00    -0.389 N 
ATOM      8  HN  UNK N   1      31.249  16.692   9.598  1.00  0.00     0.159 HD
ENDROOT
BRANCH   4   9
HETATM    9  C   UNK N   1      27.998  18.337   4.975  0.00  0.00    -0.002 A 
HETATM   10  C   UNK N   1      28.136  19.663   4.529  0.00  0.00     0.017 A 
HETATM   11  C   UNK N   1      27.123  20.297   3.808  0.00  0.00     0.038 A 
HETATM   12  C   UNK N   1      25.939  19.623   3.521  0.00  0.00     0.070 A 
HETATM   13  C   UNK N   1      25.780  18.303   3.953  0.00  0.00     0.074 A 
HETATM   14  C   UNK N   1      26.784  17.639   4.661  0.00  0.00     0.081 A 
BRANCH  12  15
HETATM   15  O   UNK N   1      24.971  20.255   2.816  0.00  0.00    -0.356 OA
HETATM   16  C   UNK N   1      23.634  20.182   3.142  0.00  0.00     0.210 C 
ENDBRANCH  12  15
BRANCH  14  17
HETATM   17  O   UNK N   1      26.534  16.341   4.979  0.00  0.00    -0.355 OA
HETATM   18  C   UNK N   1      25.866  15.907   6.100  0.00  0.00     0.210 C 
ENDBRANCH  14  17
ENDBRANCH   4   9
BRANCH   6  19
HETATM   19  C   UNK N   1      31.712  16.675   7.148  0.00  0.00     0.006 A 
HETATM   20  C   UNK N   1      32.749  17.561   6.815  0.00  0.00     0.016 A 
HETATM   21  C   UNK N   1      33.881  17.104   6.138  0.00  0.00     0.018 A 
HETATM   22  C   UNK N   1      33.970  15.759   5.784  0.00  0.00     0.087 A 
HETATM   23  N   UNK N   1      32.957  14.909   6.091  0.00  0.00    -0.374 N 
HETATM   24  C   UNK N   1      31.846  15.339   6.745  0.00  0.00     0.101 A 
ATOM     25  HN  UNK N   1      33.031  13.926   5.824  1.00  0.00     0.164 HD
ENDBRANCH   6  19
TORSDOF 4
ENDMDL
MODEL 3
REMARK VINA RESULT:      -6.6     10.876     14.012
REMARK  4 active torsions:
REMARK  status: ('A' for Active; 'I' for Inactive)
REMARK    1  A    between atoms: C_14  and  C_11 
REMARK    2  A    between atoms: C_19  and  C_16 
REMARK    3  A    between atoms: O_24  and  C_17 
REMARK    4  A    between atoms: O_25  and  C_18 
ROOT
HETATM    1  C   UNK N   1      26.410  23.837  -6.795  0.00  0.00     0.024 C 
HETATM    2  C   UNK N   1      27.787  24.301  -6.373  0.00  0.00     0.042 C 
HETATM    3  C   UNK N   1      25.671  25.002  -7.452  0.00  0.00     0.120 C 
HETATM    4  C   UNK N   1      28.286  25.394  -4.186  0.00  0.00     0.023 C 
HETATM    5  C   UNK N   1      27.608  25.396  -5.369  0.00  0.00    -0.030 C 
HETATM    6  C   UNK N   1      26.631  26.487  -5.754  0.00  0.00     0.046 C 
HETATM    7  N   UNK N   1      25.786  26.255  -6.717  0.00  0.00    -0.389 N 
ATOM      8  HN  UNK N   1      25.155  27.012  -6.978  1.00  0.00     0.159 HD
ENDROOT
BRANCH   4   9
HETATM    9  C   UNK N   1      29.301  24.393  -3.722  0.00  0.00    -0.002 A 
HETATM   10  C   UNK N   1      28.953  23.423  -2.767  0.00  0.00     0.017 A 
HETATM   11  C   UNK N   1      29.891  22.508  -2.284  0.00  0.00     0.038 A 
HETATM   12  C   UNK N   1      31.206  22.545  -2.740  0.00  0.00     0.070 A 
HETATM   13  C   UNK N   1      31.574  23.501  -3.691  0.00  0.00     0.074 A 
HETATM   14  C   UNK N   1      30.652  24.417  -4.203  0.00  0.00     0.081 A 
BRANCH  12  15
HETATM   15  O   UNK N   1      32.098  21.645  -2.263  0.00  0.00    -0.356 OA
HETATM   16  C   UNK N   1      33.152  21.164  -3.009  0.00  0.00     0.210 C 
ENDBRANCH  12  15
BRANCH  14  17
HETATM   17  O   UNK N   1      31.117  25.261  -5.163  0.00  0.00    -0.355 OA
HETATM   18  C   UNK N   1      31.622  24.881  -6.385  0.00  0.00     0.210 C 
ENDBRANCH  14  17
ENDBRANCH   4   9
BRANCH   6  19
HETATM   19  C   UNK N   1      26.618  27.864  -5.148  0.00  0.00     0.006 A 
HETATM   20  C   UNK N   1      27.462  28.860  -5.663  0.00  0.00     0.016 A 
HETATM   21  C   UNK N   1      27.494  30.130  -5.085  0.00  0.00     0.018 A 
HETATM   22  C   UNK N   1      26.687  30.400  -3.981  0.00  0.00     0.087 A 
HETATM   23  N   UNK N   1      25.886  29.429  -3.474  0.00  0.00    -0.374 N 
HETATM   24  C   UNK N   1      25.846  28.186  -4.022  0.00  0.00     0.101 A 
ATOM     25  HN  UNK N   1      25.301  29.637  -2.663  1.00  0.00     0.164 HD
ENDBRANCH   6  19
TORSDOF 4
ENDMDL
MODEL 4
REMARK VINA RESULT:      -6.5      1.542      3.544
REMARK  4 active torsions:
REMARK  status: ('A' for Active; 'I' for Inactive)
REMARK    1  A    between atoms: C_14  and  C_11 
REMARK    2  A    between atoms: C_19  and  C_16 
REMARK    3  A    between atoms: O_24  and  C_17 
REMARK    4  A    between atoms: O_25  and  C_18 
ROOT
HETATM    1  C   UNK N   1      29.079  16.395   2.955  0.00  0.00     0.024 C 
HETATM    2  C   UNK N   1      27.764  16.670   3.652  0.00  0.00     0.042 C 
HETATM    3  C   UNK N   1      29.982  15.595   3.893  0.00  0.00     0.120 C 
HETATM    4  C   UNK N   1      27.356  18.625   5.147  0.00  0.00     0.023 C 
HETATM    5  C   UNK N   1      28.058  17.492   4.867  0.00  0.00    -0.030 C 
HETATM    6  C   UNK N   1      29.181  16.983   5.747  0.00  0.00     0.046 C 
HETATM    7  N   UNK N   1      30.013  16.112   5.255  0.00  0.00    -0.389 N 
ATOM      8  HN  UNK N   1      30.745  15.763   5.873  1.00  0.00     0.159 HD
ENDROOT
BRANCH   4   9
HETATM    9  C   UNK N   1      26.205  19.195   4.372  0.00  0.00    -0.002 A 
HETATM   10  C   UNK N   1      26.413  20.258   3.475  0.00  0.00     0.017 A 
HETATM   11  C   UNK N   1      25.352  20.837   2.776  0.00  0.00     0.038 A 
HETATM   12  C   UNK N   1      24.053  20.372   2.961  0.00  0.00     0.070 A 
HETATM   13  C   UNK N   1      23.824  19.315   3.847  0.00  0.00     0.074 A 
HETATM   14  C   UNK N   1      24.868  18.707   4.546  0.00  0.00     0.081 A 
BRANCH  12  15
HETATM   15  O   UNK N   1      23.040  20.944   2.268  0.00  0.00    -0.356 OA
HETATM   16  C   UNK N   1      21.786  20.383   2.171  0.00  0.00     0.210 C 
ENDBRANCH  12  15
BRANCH  14  17
HETATM   17  O   UNK N   1      24.526  17.654   5.336  0.00  0.00    -0.355 OA
HETATM   18  C   UNK N   1      24.279  16.373   4.898  0.00  0.00     0.210 C 
ENDBRANCH  14  17
ENDBRANCH   4   9
BRANCH   6  19
HETATM   19  C   UNK N   1      29.359  17.360   7.194  0.00  0.00     0.006 A 
HETATM   20  C   UNK N   1      28.232  17.597   7.995  0.00  0.00     0.016 A 
HETATM   21  C   UNK N   1      28.379  17.990   9.327  0.00  0.00     0.018 A 
HETATM   22  C   UNK N   1      29.658  18.155   9.853  0.00  0.00     0.087 A 
HETATM   23  N   UNK N   1      30.747  17.943   9.070  0.00  0.00    -0.374 N 
HETATM   24  C   UNK N   1      30.620  17.565   7.771  0.00  0.00     0.101 A 
ATOM     25  HN  UNK N   1      31.679  18.070   9.466  1.00  0.00     0.164 HD
ENDBRANCH   6  19
TORSDOF 4
ENDMDL
MODEL 5
REMARK VINA RESULT:      -6.2      2.958      6.639
REMARK  4 active torsions:
REMARK  status: ('A' for Active; 'I' for Inactive)
REMARK    1  A    between atoms: C_14  and  C_11 
REMARK    2  A    between atoms: C_19  and  C_16 
REMARK    3  A    between atoms: O_24  and  C_17 
REMARK    4  A    between atoms: O_25  and  C_18 
ROOT
HETATM    1  C   UNK N   1      29.631  18.148   8.056  0.00  0.00     0.024 C 
HETATM    2  C   UNK N   1      29.506  17.173   6.906  0.00  0.00     0.042 C 
HETATM    3  C   UNK N   1      28.241  18.666   8.423  0.00  0.00     0.120 C 
HETATM    4  C   UNK N   1      29.503  17.840   4.501  0.00  0.00     0.023 C 
HETATM    5  C   UNK N   1      28.938  17.918   5.739  0.00  0.00    -0.030 C 
HETATM    6  C   UNK N   1      27.712  18.758   6.031  0.00  0.00     0.046 C 
HETATM    7  N   UNK N   1      27.438  19.052   7.269  0.00  0.00    -0.389 N 
ATOM      8  HN  UNK N   1      26.594  19.596   7.446  1.00  0.00     0.159 HD
ENDROOT
BRANCH   4   9
HETATM    9  C   UNK N   1      30.685  17.013   4.093  0.00  0.00    -0.002 A 
HETATM   10  C   UNK N   1      31.984  17.542   4.182  0.00  0.00     0.017 A 
HETATM   11  C   UNK N   1      33.097  16.810   3.766  0.00  0.00     0.038 A 
HETATM   12  C   UNK N   1      32.940  15.530   3.241  0.00  0.00     0.070 A 
HETATM   13  C   UNK N   1      31.657  14.983   3.145  0.00  0.00     0.074 A 
HETATM   14  C   UNK N   1      30.528  15.686   3.569  0.00  0.00     0.081 A 
BRANCH  12  15
HETATM   15  O   UNK N   1      34.034  14.835   2.849  0.00  0.00    -0.356 OA
HETATM   16  C   UNK N   1      33.975  13.537   2.390  0.00  0.00     0.210 C 
ENDBRANCH  12  15
BRANCH  14  17
HETATM   17  O   UNK N   1      29.342  15.027   3.475  0.00  0.00    -0.355 OA
HETATM   18  C   UNK N   1      28.629  14.825   2.316  0.00  0.00     0.210 C 
ENDBRANCH  14  17
ENDBRANCH   4   9
BRANCH   6  19
HETATM   19  C   UNK N   1      26.733  19.218   4.985  0.00  0.00     0.006 A 
HETATM   20  C   UNK N   1      27.120  20.189   4.048  0.00  0.00     0.016 A 
HETATM   21  C   UNK N   1      26.211  20.659   3.098  0.00  0.00     0.018 A 
HETATM   22  C   UNK N   1      24.909  20.163   3.093  0.00  0.00     0.087 A 
HETATM   23  N   UNK N   1      24.532  19.238   4.013  0.00  0.00    -0.374 N 
HETATM   24  C   UNK N   1      25.403  18.774   4.947  0.00  0.00     0.101 A 
ATOM     25  HN  UNK N   1      23.575  18.884   4.002  1.00  0.00     0.164 HD
ENDBRANCH   6  19
TORSDOF 4
ENDMDL
MODEL 6
REMARK VINA RESULT:      -6.1      9.476     13.200
REMARK  4 active torsions:
REMARK  status: ('A' for Active; 'I' for Inactive)
REMARK    1  A    between atoms: C_14  and  C_11 
REMARK    2  A    between atoms: C_19  and  C_16 
REMARK    3  A    between atoms: O_24  and  C_17 
REMARK    4  A    between atoms: O_25  and  C_18 
ROOT
HETATM    1  C   UNK N   1      38.033  11.955  10.319  0.00  0.00     0.024 C 
HETATM    2  C   UNK N   1      37.560  12.734  11.527  0.00  0.00     0.042 C 
HETATM    3  C   UNK N   1      38.229  12.919   9.150  0.00  0.00     0.120 C 
HETATM    4  C   UNK N   1      35.167  13.254  12.007  0.00  0.00     0.023 C 
HETATM    5  C   UNK N   1      36.244  13.356  11.178  0.00  0.00    -0.030 C 
HETATM    6  C   UNK N   1      36.196  14.091   9.855  0.00  0.00     0.046 C 
HETATM    7  N   UNK N   1      37.132  13.863   8.980  0.00  0.00    -0.389 N 
ATOM      8  HN  UNK N   1      37.095  14.388   8.107  1.00  0.00     0.159 HD
ENDROOT
BRANCH   4   9
HETATM    9  C   UNK N   1      35.114  12.589  13.350  0.00  0.00    -0.002 A 
HETATM   10  C   UNK N   1      34.452  11.359  13.505  0.00  0.00     0.017 A 
HETATM   11  C   UNK N   1      34.349  10.742  14.753  0.00  0.00     0.038 A 
HETATM   12  C   UNK N   1      34.899  11.343  15.881  0.00  0.00     0.070 A 
HETATM   13  C   UNK N   1      35.564  12.566  15.750  0.00  0.00     0.074 A 
HETATM   14  C   UNK N   1      35.696  13.197  14.511  0.00  0.00     0.081 A 
BRANCH  12  15
HETATM   15  O   UNK N   1      34.793  10.724  17.081  0.00  0.00    -0.356 OA
HETATM   16  C   UNK N   1      35.880  10.431  17.874  0.00  0.00     0.210 C 
ENDBRANCH  12  15
BRANCH  14  17
HETATM   17  O   UNK N   1      36.410  14.355  14.503  0.00  0.00    -0.355 OA
HETATM   18  C   UNK N   1      37.173  14.831  15.544  0.00  0.00     0.210 C 
ENDBRANCH  14  17
ENDBRANCH   4   9
BRANCH   6  19
HETATM   19  C   UNK N   1      35.171  15.137   9.505  0.00  0.00     0.006 A 
HETATM   20  C   UNK N   1      34.179  14.849   8.555  0.00  0.00     0.016 A 
HETATM   21  C   UNK N   1      33.248  15.821   8.186  0.00  0.00     0.018 A 
HETATM   22  C   UNK N   1      33.316  17.088   8.763  0.00  0.00     0.087 A 
HETATM   23  N   UNK N   1      34.289  17.369   9.668  0.00  0.00    -0.374 N 
HETATM   24  C   UNK N   1      35.206  16.436  10.033  0.00  0.00     0.101 A 
ATOM     25  HN  UNK N   1      34.332  18.301  10.081  1.00  0.00     0.164 HD
ENDBRANCH   6  19
TORSDOF 4
ENDMDL
MODEL 7
REMARK VINA RESULT:      -6.0      7.634     10.408
REMARK  4 active torsions:
REMARK  status: ('A' for Active; 'I' for Inactive)
REMARK    1  A    between atoms: C_14  and  C_11 
REMARK    2  A    between atoms: C_19  and  C_16 
REMARK    3  A    between atoms: O_24  and  C_17 
REMARK    4  A    between atoms: O_25  and  C_18 
ROOT
HETATM    1  C   UNK N   1      38.177  14.157   9.533  0.00  0.00     0.024 C 
HETATM    2  C   UNK N   1      36.704  13.870   9.339  0.00  0.00     0.042 C 
HETATM    3  C   UNK N   1      38.753  13.152  10.530  0.00  0.00     0.120 C 
HETATM    4  C   UNK N   1      34.896  14.798  10.786  0.00  0.00     0.023 C 
HETATM    5  C   UNK N   1      36.029  14.051  10.662  0.00  0.00    -0.030 C 
HETATM    6  C   UNK N   1      36.689  13.358  11.836  0.00  0.00     0.046 C 
HETATM    7  N   UNK N   1      37.922  12.959  11.711  0.00  0.00    -0.389 N 
ATOM      8  HN  UNK N   1      38.338  12.472  12.504  1.00  0.00     0.159 HD
ENDROOT
BRANCH   4   9
HETATM    9  C   UNK N   1      34.139  15.489   9.692  0.00  0.00    -0.002 A 
HETATM   10  C   UNK N   1      34.352  16.855   9.438  0.00  0.00     0.017 A 
HETATM   11  C   UNK N   1      33.628  17.534   8.456  0.00  0.00     0.038 A 
HETATM   12  C   UNK N   1      32.665  16.864   7.706  0.00  0.00     0.070 A 
HETATM   13  C   UNK N   1      32.437  15.505   7.941  0.00  0.00     0.074 A 
HETATM   14  C   UNK N   1      33.159  14.798   8.905  0.00  0.00     0.081 A 
BRANCH  12  15
HETATM   15  O   UNK N   1      31.978  17.540   6.754  0.00  0.00    -0.356 OA
HETATM   16  C   UNK N   1      32.029  17.214   5.417  0.00  0.00     0.210 C 
ENDBRANCH  12  15
BRANCH  14  17
HETATM   17  O   UNK N   1      32.885  13.469   9.002  0.00  0.00    -0.355 OA
HETATM   18  C   UNK N   1      33.418  12.483   8.205  0.00  0.00     0.210 C 
ENDBRANCH  14  17
ENDBRANCH   4   9
BRANCH   6  19
HETATM   19  C   UNK N   1      35.988  13.026  13.125  0.00  0.00     0.006 A 
HETATM   20  C   UNK N   1      35.036  11.996  13.154  0.00  0.00     0.016 A 
HETATM   21  C   UNK N   1      34.344  11.703  14.332  0.00  0.00     0.018 A 
HETATM   22  C   UNK N   1      34.601  12.450  15.479  0.00  0.00     0.087 A 
HETATM   23  N   UNK N   1      35.509  13.459  15.443  0.00  0.00    -0.374 N 
HETATM   24  C   UNK N   1      36.186  13.760  14.304  0.00  0.00     0.101 A 
ATOM     25  HN  UNK N   1      35.686  14.002  16.289  1.00  0.00     0.164 HD
ENDBRANCH   6  19
TORSDOF 4
ENDMDL
MODEL 8
REMARK VINA RESULT:      -6.0     14.400     17.816
REMARK  4 active torsions:
REMARK  status: ('A' for Active; 'I' for Inactive)
REMARK    1  A    between atoms: C_14  and  C_11 
REMARK    2  A    between atoms: C_19  and  C_16 
REMARK    3  A    between atoms: O_24  and  C_17 
REMARK    4  A    between atoms: O_25  and  C_18 
ROOT
HETATM    1  C   UNK N   1      37.223  10.254  21.108  0.00  0.00     0.024 C 
HETATM    2  C   UNK N   1      36.981  10.033  19.630  0.00  0.00     0.042 C 
HETATM    3  C   UNK N   1      36.786   9.007  21.876  0.00  0.00     0.120 C 
HETATM    4  C   UNK N   1      34.817  10.506  18.481  0.00  0.00     0.023 C 
HETATM    5  C   UNK N   1      35.511   9.827  19.437  0.00  0.00    -0.030 C 
HETATM    6  C   UNK N   1      34.860   8.829  20.372  0.00  0.00     0.046 C 
HETATM    7  N   UNK N   1      35.494   8.484  21.455  0.00  0.00    -0.389 N 
ATOM      8  HN  UNK N   1      35.049   7.791  22.057  1.00  0.00     0.159 HD
ENDROOT
BRANCH   4   9
HETATM    9  C   UNK N   1      35.365  11.480  17.481  0.00  0.00    -0.002 A 
HETATM   10  C   UNK N   1      35.212  12.863  17.683  0.00  0.00     0.017 A 
HETATM   11  C   UNK N   1      35.672  13.790  16.746  0.00  0.00     0.038 A 
HETATM   12  C   UNK N   1      36.291  13.357  15.576  0.00  0.00     0.070 A 
HETATM   13  C   UNK N   1      36.454  11.986  15.355  0.00  0.00     0.074 A 
HETATM   14  C   UNK N   1      36.019  11.038  16.283  0.00  0.00     0.081 A 
BRANCH  12  15
HETATM   15  O   UNK N   1      36.734  14.273  14.683  0.00  0.00    -0.356 OA
HETATM   16  C   UNK N   1      36.231  14.381  13.405  0.00  0.00     0.210 C 
ENDBRANCH  12  15
BRANCH  14  17
HETATM   17  O   UNK N   1      36.284   9.739  15.981  0.00  0.00    -0.355 OA
HETATM   18  C   UNK N   1      35.920   9.098  14.819  0.00  0.00     0.210 C 
ENDBRANCH  14  17
ENDBRANCH   4   9
BRANCH   6  19
HETATM   19  C   UNK N   1      33.550   8.142  20.095  0.00  0.00     0.006 A 
HETATM   20  C   UNK N   1      32.346   8.764  20.461  0.00  0.00     0.016 A 
HETATM   21  C   UNK N   1      31.124   8.122  20.252  0.00  0.00     0.018 A 
HETATM   22  C   UNK N   1      31.109   6.849  19.685  0.00  0.00     0.087 A 
HETATM   23  N   UNK N   1      32.276   6.242  19.350  0.00  0.00    -0.374 N 
HETATM   24  C   UNK N   1      33.474   6.851  19.551  0.00  0.00     0.101 A 
ATOM     25  HN  UNK N   1      32.253   5.308  18.938  1.00  0.00     0.164 HD
ENDBRANCH   6  19
TORSDOF 4
ENDMDL
MODEL 9
REMARK VINA RESULT:      -6.0      3.401      7.223
REMARK  4 active torsions:
REMARK  status: ('A' for Active; 'I' for Inactive)
REMARK    1  A    between atoms: C_14  and  C_11 
REMARK    2  A    between atoms: C_19  and  C_16 
REMARK    3  A    between atoms: O_24  and  C_17 
REMARK    4  A    between atoms: O_25  and  C_18 
ROOT
HETATM    1  C   UNK N   1      29.833  17.999   9.398  0.00  0.00     0.024 C 
HETATM    2  C   UNK N   1      30.133  16.975   8.325  0.00  0.00     0.042 C 
HETATM    3  C   UNK N   1      28.333  18.290   9.403  0.00  0.00     0.120 C 
HETATM    4  C   UNK N   1      30.587  17.542   5.938  0.00  0.00     0.023 C 
HETATM    5  C   UNK N   1      29.744  17.571   7.008  0.00  0.00    -0.030 C 
HETATM    6  C   UNK N   1      28.370  18.203   6.954  0.00  0.00     0.046 C 
HETATM    7  N   UNK N   1      27.772  18.494   8.074  0.00  0.00    -0.389 N 
ATOM      8  HN  UNK N   1      26.837  18.894   8.015  1.00  0.00     0.159 HD
ENDROOT
BRANCH   4   9
HETATM    9  C   UNK N   1      31.945  16.910   5.868  0.00  0.00    -0.002 A 
HETATM   10  C   UNK N   1      33.025  17.471   6.572  0.00  0.00     0.017 A 
HETATM   11  C   UNK N   1      34.308  16.929   6.488  0.00  0.00     0.038 A 
HETATM   12  C   UNK N   1      34.549  15.814   5.690  0.00  0.00     0.070 A 
HETATM   13  C   UNK N   1      33.489  15.238   4.982  0.00  0.00     0.074 A 
HETATM   14  C   UNK N   1      32.192  15.749   5.061  0.00  0.00     0.081 A 
BRANCH  12  15
HETATM   15  O   UNK N   1      35.800  15.301   5.627  0.00  0.00    -0.356 OA
HETATM   16  C   UNK N   1      36.057  13.980   5.330  0.00  0.00     0.210 C 
ENDBRANCH  12  15
BRANCH  14  17
HETATM   17  O   UNK N   1      31.238  15.070   4.371  0.00  0.00    -0.355 OA
HETATM   18  C   UNK N   1      31.436  14.389   3.192  0.00  0.00     0.210 C 
ENDBRANCH  14  17
ENDBRANCH   4   9
BRANCH   6  19
HETATM   19  C   UNK N   1      27.603  18.454   5.683  0.00  0.00     0.006 A 
HETATM   20  C   UNK N   1      27.741  19.681   5.018  0.00  0.00     0.016 A 
HETATM   21  C   UNK N   1      27.004  19.947   3.862  0.00  0.00     0.018 A 
HETATM   22  C   UNK N   1      26.120  18.985   3.378  0.00  0.00     0.087 A 
HETATM   23  N   UNK N   1      25.975  17.806   4.035  0.00  0.00    -0.374 N 
HETATM   24  C   UNK N   1      26.680  17.534   5.164  0.00  0.00     0.101 A 
ATOM     25  HN  UNK N   1      25.321  17.110   3.674  1.00  0.00     0.164 HD
ENDBRANCH   6  19
TORSDOF 4
ENDMDL
