MODEL 1
REMARK VINA RESULT:      -8.2      0.000      0.000
REMARK  5 active torsions:
REMARK  status: ('A' for Active; 'I' for Inactive)
REMARK    1  A    between atoms: C_18  and  C_14 
REMARK    2  A    between atoms: N_32  and  C_14 
REMARK    3  A    between atoms: C_26  and  C_21 
REMARK    4  A    between atoms: C_25  and  C_22 
REMARK    5  A    between atoms: C_27  and  C_25 
REMARK       I    between atoms: N_33  and  C_26 
REMARK       I    between atoms: N_30  and  C_27 
ROOT
HETATM    1  C   UNK N   1      27.042  21.731   6.063  0.00  0.00     0.156 C 
HETATM    2  C   UNK N   1      25.524  17.312   4.877  0.00  0.00     0.033 A 
HETATM    3  C   UNK N   1      25.014  20.011   4.427  0.00  0.00     0.055 A 
HETATM    4  C   UNK N   1      27.791  19.396   6.584  0.00  0.00     0.107 A 
HETATM    5  C   UNK N   1      26.346  18.266   5.371  0.00  0.00     0.007 A 
HETATM    6  C   UNK N   1      24.357  17.638   4.216  0.00  0.00     0.054 A 
HETATM    7  C   UNK N   1      27.402  18.103   6.224  0.00  0.00     0.048 A 
HETATM    8  C   UNK N   1      24.122  19.020   3.915  0.00  0.00     0.051 A 
HETATM    9  C   UNK N   1      26.107  19.577   5.200  0.00  0.00     0.046 A 
HETATM   10 Cl   UNK N   1      22.682  19.549   3.058  0.00  0.00    -0.083 Cl
HETATM   11  N   UNK N   1      26.996  20.286   5.922  0.00  0.00    -0.359 N 
ENDROOT
BRANCH   6  12
HETATM   12  C   UNK N   1      23.393  16.511   3.955  0.00  0.00     0.256 C 
HETATM   13  N   UNK N   1      22.486  16.067   4.920  0.00  0.00    -0.340 N 
HETATM   14  C   UNK N   1      21.659  14.907   4.585  0.00  0.00     0.162 C 
HETATM   15  C   UNK N   1      22.339  16.731   6.242  0.00  0.00     0.111 C 
HETATM   16  C   UNK N   1      20.759  14.401   5.720  0.00  0.00     0.237 C 
HETATM   17  C   UNK N   1      19.360  15.021   5.598  0.00  0.00     0.044 C 
HETATM   18  N   UNK N   1      21.416  14.667   7.024  0.00  0.00     0.100 N 
HETATM   19  C   UNK N   1      21.363  16.099   7.188  0.00  0.00     0.298 C 
HETATM   20  C   UNK N   1      21.894  18.182   6.082  0.00  0.00     0.034 C 
HETATM   21  O   UNK N   1      23.387  15.995   2.846  0.00  0.00    -0.267 OA
BRANCH  18  22
HETATM   22  C   UNK N   1      20.829  14.112   8.255  0.00  0.00     0.311 C 
BRANCH  22  23
HETATM   23  C   UNK N   1      21.789  13.329   9.061  0.00  0.00    -0.030 A 
HETATM   24  C   UNK N   1      21.422  12.815  10.310  0.00  0.00     0.012 A 
HETATM   25  C   UNK N   1      22.399  12.262  11.138  0.00  0.00     0.043 A 
HETATM   26  C   UNK N   1      23.732  12.224  10.715  0.00  0.00     0.116 A 
HETATM   27  C   UNK N   1      24.083  12.700   9.450  0.00  0.00     0.043 A 
HETATM   28  F   UNK N   1      24.689  11.740  11.537  0.00  0.00    -0.206 F 
HETATM   29  C   UNK N   1      23.110  13.257   8.624  0.00  0.00     0.012 A 
ENDBRANCH  22  23
ENDBRANCH  18  22
ENDBRANCH   6  12
BRANCH   7  30
HETATM   30  C   UNK N   1      27.832  16.757   6.712  0.00  0.00     0.251 C 
HETATM   31  O   UNK N   1      27.402  16.378   7.793  0.00  0.00    -0.281 OA
BRANCH  30  32
HETATM   32  C   UNK N   1      28.848  15.922   6.007  0.00  0.00     0.294 C 
HETATM   33  N   UNK N   1      30.198  16.065   6.225  0.00  0.00    -0.354 N 
HETATM   34  C   UNK N   1      31.144  15.277   5.479  0.00  0.00     0.152 C 
HETATM   35  C   UNK N   1      30.741  17.043   7.143  0.00  0.00     0.152 C 
HETATM   36  O   UNK N   1      28.459  15.120   5.165  0.00  0.00    -0.264 OA
ENDBRANCH  30  32
ENDBRANCH   7  30
TORSDOF 5
ENDMDL
MODEL 2
REMARK VINA RESULT:      -7.9     14.312     16.815
REMARK  5 active torsions:
REMARK  status: ('A' for Active; 'I' for Inactive)
REMARK    1  A    between atoms: C_18  and  C_14 
REMARK    2  A    between atoms: N_32  and  C_14 
REMARK    3  A    between atoms: C_26  and  C_21 
REMARK    4  A    between atoms: C_25  and  C_22 
REMARK    5  A    between atoms: C_27  and  C_25 
REMARK       I    between atoms: N_33  and  C_26 
REMARK       I    between atoms: N_30  and  C_27 
ROOT
HETATM    1  C   UNK N   1      33.674  19.921  -5.513  0.00  0.00     0.156 C 
HETATM    2  C   UNK N   1      29.381  22.113  -5.430  0.00  0.00     0.033 A 
HETATM    3  C   UNK N   1      30.896  20.287  -6.887  0.00  0.00     0.055 A 
HETATM    4  C   UNK N   1      32.524  21.515  -3.958  0.00  0.00     0.107 A 
HETATM    5  C   UNK N   1      30.581  21.683  -4.973  0.00  0.00     0.007 A 
HETATM    6  C   UNK N   1      28.908  21.739  -6.671  0.00  0.00     0.054 A 
HETATM    7  C   UNK N   1      31.271  22.132  -3.882  0.00  0.00     0.048 A 
HETATM    8  C   UNK N   1      29.642  20.744  -7.397  0.00  0.00     0.051 A 
HETATM    9  C   UNK N   1      31.349  20.829  -5.671  0.00  0.00     0.046 A 
HETATM   10 Cl   UNK N   1      29.120  20.177  -8.976  0.00  0.00    -0.083 Cl
HETATM   11  N   UNK N   1      32.538  20.700  -5.052  0.00  0.00    -0.359 N 
ENDROOT
BRANCH   6  12
HETATM   12  C   UNK N   1      27.706  22.487  -7.186  0.00  0.00     0.256 C 
HETATM   13  N   UNK N   1      27.775  23.824  -7.589  0.00  0.00    -0.340 N 
HETATM   14  C   UNK N   1      26.526  24.473  -7.988  0.00  0.00     0.162 C 
HETATM   15  C   UNK N   1      29.055  24.580  -7.627  0.00  0.00     0.111 C 
HETATM   16  C   UNK N   1      26.647  25.966  -8.318  0.00  0.00     0.237 C 
HETATM   17  C   UNK N   1      26.846  26.157  -9.828  0.00  0.00     0.044 C 
HETATM   18  N   UNK N   1      27.728  26.566  -7.495  0.00  0.00     0.100 N 
HETATM   19  C   UNK N   1      28.952  26.021  -8.027  0.00  0.00     0.298 C 
HETATM   20  C   UNK N   1      30.043  23.940  -8.599  0.00  0.00     0.034 C 
HETATM   21  O   UNK N   1      26.645  21.887  -7.285  0.00  0.00    -0.267 OA
BRANCH  18  22
HETATM   22  C   UNK N   1      27.915  28.026  -7.503  0.00  0.00     0.311 C 
BRANCH  22  23
HETATM   23  C   UNK N   1      27.555  28.670  -6.222  0.00  0.00    -0.030 A 
HETATM   24  C   UNK N   1      26.511  28.168  -5.437  0.00  0.00     0.012 A 
HETATM   25  C   UNK N   1      26.057  28.907  -4.345  0.00  0.00     0.043 A 
HETATM   26  C   UNK N   1      26.646  30.139  -4.044  0.00  0.00     0.116 A 
HETATM   27  C   UNK N   1      27.716  30.614  -4.807  0.00  0.00     0.043 A 
HETATM   28  F   UNK N   1      26.172  30.884  -3.021  0.00  0.00    -0.206 F 
HETATM   29  C   UNK N   1      28.167  29.879  -5.900  0.00  0.00     0.012 A 
ENDBRANCH  22  23
ENDBRANCH  18  22
ENDBRANCH   6  12
BRANCH   7  30
HETATM   30  C   UNK N   1      30.731  23.192  -2.977  0.00  0.00     0.251 C 
HETATM   31  O   UNK N   1      30.750  22.976  -1.772  0.00  0.00    -0.281 OA
BRANCH  30  32
HETATM   32  C   UNK N   1      30.065  24.428  -3.478  0.00  0.00     0.294 C 
HETATM   33  N   UNK N   1      30.742  25.396  -4.181  0.00  0.00    -0.354 N 
HETATM   34  C   UNK N   1      30.071  26.601  -4.594  0.00  0.00     0.152 C 
HETATM   35  C   UNK N   1      32.155  25.299  -4.480  0.00  0.00     0.152 C 
HETATM   36  O   UNK N   1      28.884  24.606  -3.200  0.00  0.00    -0.264 OA
ENDBRANCH  30  32
ENDBRANCH   7  30
TORSDOF 5
ENDMDL
MODEL 3
REMARK VINA RESULT:      -7.9     13.221     16.603
REMARK  5 active torsions:
REMARK  status: ('A' for Active; 'I' for Inactive)
REMARK    1  A    between atoms: C_18  and  C_14 
REMARK    2  A    between atoms: N_32  and  C_14 
REMARK    3  A    between atoms: C_26  and  C_21 
REMARK    4  A    between atoms: C_25  and  C_22 
REMARK    5  A    between atoms: C_27  and  C_25 
REMARK       I    between atoms: N_33  and  C_26 
REMARK       I    between atoms: N_30  and  C_27 
ROOT
HETATM    1  C   UNK N   1      34.666  20.083  -6.030  0.00  0.00     0.156 C 
HETATM    2  C   UNK N   1      30.075  21.550  -6.093  0.00  0.00     0.033 A 
HETATM    3  C   UNK N   1      31.815  19.705  -7.242  0.00  0.00     0.055 A 
HETATM    4  C   UNK N   1      33.328  21.782  -4.764  0.00  0.00     0.107 A 
HETATM    5  C   UNK N   1      31.346  21.421  -5.645  0.00  0.00     0.007 A 
HETATM    6  C   UNK N   1      29.622  20.845  -7.189  0.00  0.00     0.054 A 
HETATM    7  C   UNK N   1      31.994  22.199  -4.727  0.00  0.00     0.048 A 
HETATM    8  C   UNK N   1      30.483  19.840  -7.742  0.00  0.00     0.051 A 
HETATM    9  C   UNK N   1      32.218  20.564  -6.203  0.00  0.00     0.046 A 
HETATM   10 Cl   UNK N   1      30.003  18.867  -9.124  0.00  0.00    -0.083 Cl
HETATM   11  N   UNK N   1      33.435  20.759  -5.661  0.00  0.00    -0.359 N 
ENDROOT
BRANCH   6  12
HETATM   12  C   UNK N   1      28.294  21.267  -7.759  0.00  0.00     0.256 C 
HETATM   13  N   UNK N   1      28.062  22.562  -8.232  0.00  0.00    -0.340 N 
HETATM   14  C   UNK N   1      26.707  22.883  -8.682  0.00  0.00     0.162 C 
HETATM   15  C   UNK N   1      29.133  23.591  -8.294  0.00  0.00     0.111 C 
HETATM   16  C   UNK N   1      26.488  24.345  -9.090  0.00  0.00     0.237 C 
HETATM   17  C   UNK N   1      26.675  24.503 -10.606  0.00  0.00     0.044 C 
HETATM   18  N   UNK N   1      27.380  25.219  -8.286  0.00  0.00     0.100 N 
HETATM   19  C   UNK N   1      28.710  24.948  -8.772  0.00  0.00     0.298 C 
HETATM   20  C   UNK N   1      30.266  23.152  -9.217  0.00  0.00     0.034 C 
HETATM   21  O   UNK N   1      27.403  20.432  -7.840  0.00  0.00    -0.267 OA
BRANCH  18  22
HETATM   22  C   UNK N   1      27.224  26.680  -8.370  0.00  0.00     0.311 C 
BRANCH  22  23
HETATM   23  C   UNK N   1      26.693  27.285  -7.130  0.00  0.00    -0.030 A 
HETATM   24  C   UNK N   1      27.414  28.273  -6.450  0.00  0.00     0.012 A 
HETATM   25  C   UNK N   1      26.996  28.678  -5.182  0.00  0.00     0.043 A 
HETATM   26  C   UNK N   1      25.862  28.097  -4.604  0.00  0.00     0.116 A 
HETATM   27  C   UNK N   1      25.123  27.143  -5.307  0.00  0.00     0.043 A 
HETATM   28  F   UNK N   1      25.486  28.446  -3.354  0.00  0.00    -0.206 F 
HETATM   29  C   UNK N   1      25.542  26.734  -6.570  0.00  0.00     0.012 A 
ENDBRANCH  22  23
ENDBRANCH  18  22
ENDBRANCH   6  12
BRANCH   7  30
HETATM   30  C   UNK N   1      31.320  23.336  -4.028  0.00  0.00     0.251 C 
HETATM   31  O   UNK N   1      31.622  24.473  -4.365  0.00  0.00    -0.281 OA
BRANCH  30  32
HETATM   32  C   UNK N   1      30.404  23.148  -2.866  0.00  0.00     0.294 C 
HETATM   33  N   UNK N   1      29.053  23.393  -2.947  0.00  0.00    -0.354 N 
HETATM   34  C   UNK N   1      28.217  23.254  -1.784  0.00  0.00     0.152 C 
HETATM   35  C   UNK N   1      28.417  23.862  -4.159  0.00  0.00     0.152 C 
HETATM   36  O   UNK N   1      30.889  22.817  -1.789  0.00  0.00    -0.264 OA
ENDBRANCH  30  32
ENDBRANCH   7  30
TORSDOF 5
ENDMDL
MODEL 4
REMARK VINA RESULT:      -7.7      6.485      9.886
REMARK  5 active torsions:
REMARK  status: ('A' for Active; 'I' for Inactive)
REMARK    1  A    between atoms: C_18  and  C_14 
REMARK    2  A    between atoms: N_32  and  C_14 
REMARK    3  A    between atoms: C_26  and  C_21 
REMARK    4  A    between atoms: C_25  and  C_22 
REMARK    5  A    between atoms: C_27  and  C_25 
REMARK       I    between atoms: N_33  and  C_26 
REMARK       I    between atoms: N_30  and  C_27 
ROOT
HETATM    1  C   UNK N   1      35.995  11.696   5.486  0.00  0.00     0.156 C 
HETATM    2  C   UNK N   1      34.164  16.130   5.961  0.00  0.00     0.033 A 
HETATM    3  C   UNK N   1      35.683  14.218   7.298  0.00  0.00     0.055 A 
HETATM    4  C   UNK N   1      34.689  13.246   4.010  0.00  0.00     0.107 A 
HETATM    5  C   UNK N   1      34.552  14.992   5.340  0.00  0.00     0.007 A 
HETATM    6  C   UNK N   1      34.423  16.344   7.300  0.00  0.00     0.054 A 
HETATM    7  C   UNK N   1      34.183  14.546   4.101  0.00  0.00     0.048 A 
HETATM    8  C   UNK N   1      35.266  15.403   7.978  0.00  0.00     0.051 A 
HETATM    9  C   UNK N   1      35.255  14.036   5.970  0.00  0.00     0.046 A 
HETATM   10 Cl   UNK N   1      35.681  15.588   9.676  0.00  0.00    -0.083 Cl
HETATM   11  N   UNK N   1      35.366  12.964   5.162  0.00  0.00    -0.359 N 
ENDROOT
BRANCH   6  12
HETATM   12  C   UNK N   1      33.714  17.506   7.945  0.00  0.00     0.256 C 
HETATM   13  N   UNK N   1      32.325  17.543   8.092  0.00  0.00    -0.340 N 
HETATM   14  C   UNK N   1      31.738  18.761   8.654  0.00  0.00     0.162 C 
HETATM   15  C   UNK N   1      31.451  16.403   7.707  0.00  0.00     0.111 C 
HETATM   16  C   UNK N   1      30.206  18.785   8.693  0.00  0.00     0.237 C 
HETATM   17  C   UNK N   1      29.706  18.306  10.063  0.00  0.00     0.044 C 
HETATM   18  N   UNK N   1      29.672  17.995   7.555  0.00  0.00     0.100 N 
HETATM   19  C   UNK N   1      29.978  16.622   7.874  0.00  0.00     0.298 C 
HETATM   20  C   UNK N   1      31.787  15.154   8.518  0.00  0.00     0.034 C 
HETATM   21  O   UNK N   1      34.387  18.428   8.385  0.00  0.00    -0.267 OA
BRANCH  18  22
HETATM   22  C   UNK N   1      28.227  18.018   7.276  0.00  0.00     0.311 C 
BRANCH  22  23
HETATM   23  C   UNK N   1      27.867  18.862   6.116  0.00  0.00    -0.030 A 
HETATM   24  C   UNK N   1      27.462  20.189   6.296  0.00  0.00     0.012 A 
HETATM   25  C   UNK N   1      26.932  20.897   5.217  0.00  0.00     0.043 A 
HETATM   26  C   UNK N   1      26.813  20.277   3.968  0.00  0.00     0.116 A 
HETATM   27  C   UNK N   1      27.259  18.966   3.787  0.00  0.00     0.043 A 
HETATM   28  F   UNK N   1      26.250  20.941   2.935  0.00  0.00    -0.206 F 
HETATM   29  C   UNK N   1      27.783  18.257   4.864  0.00  0.00     0.012 A 
ENDBRANCH  22  23
ENDBRANCH  18  22
ENDBRANCH   6  12
BRANCH   7  30
HETATM   30  C   UNK N   1      33.283  15.334   3.206  0.00  0.00     0.251 C 
HETATM   31  O   UNK N   1      33.792  15.931   2.266  0.00  0.00    -0.281 OA
BRANCH  30  32
HETATM   32  C   UNK N   1      31.828  15.523   3.476  0.00  0.00     0.294 C 
HETATM   33  N   UNK N   1      30.888  14.575   3.148  0.00  0.00    -0.354 N 
HETATM   34  C   UNK N   1      29.489  14.827   3.375  0.00  0.00     0.152 C 
HETATM   35  C   UNK N   1      31.233  13.326   2.504  0.00  0.00     0.152 C 
HETATM   36  O   UNK N   1      31.460  16.589   3.959  0.00  0.00    -0.264 OA
ENDBRANCH  30  32
ENDBRANCH   7  30
TORSDOF 5
ENDMDL
MODEL 5
REMARK VINA RESULT:      -7.3      6.637     11.210
REMARK  5 active torsions:
REMARK  status: ('A' for Active; 'I' for Inactive)
REMARK    1  A    between atoms: C_18  and  C_14 
REMARK    2  A    between atoms: N_32  and  C_14 
REMARK    3  A    between atoms: C_26  and  C_21 
REMARK    4  A    between atoms: C_25  and  C_22 
REMARK    5  A    between atoms: C_27  and  C_25 
REMARK       I    between atoms: N_33  and  C_26 
REMARK       I    between atoms: N_30  and  C_27 
ROOT
HETATM    1  C   UNK N   1      28.815  18.591   7.856  0.00  0.00     0.156 C 
HETATM    2  C   UNK N   1      32.322  15.734   6.191  0.00  0.00     0.033 A 
HETATM    3  C   UNK N   1      31.561  17.219   8.420  0.00  0.00     0.055 A 
HETATM    4  C   UNK N   1      29.188  17.279   5.753  0.00  0.00     0.107 A 
HETATM    5  C   UNK N   1      31.106  16.324   6.251  0.00  0.00     0.007 A 
HETATM    6  C   UNK N   1      33.263  15.922   7.183  0.00  0.00     0.054 A 
HETATM    7  C   UNK N   1      30.167  16.411   5.260  0.00  0.00     0.048 A 
HETATM    8  C   UNK N   1      32.858  16.622   8.367  0.00  0.00     0.051 A 
HETATM    9  C   UNK N   1      30.724  17.076   7.298  0.00  0.00     0.046 A 
HETATM   10 Cl   UNK N   1      33.965  16.899   9.703  0.00  0.00    -0.083 Cl
HETATM   11  N   UNK N   1      29.541  17.654   7.018  0.00  0.00    -0.359 N 
ENDROOT
BRANCH   6  12
HETATM   12  C   UNK N   1      34.661  15.448   6.884  0.00  0.00     0.256 C 
HETATM   13  N   UNK N   1      35.262  14.403   7.591  0.00  0.00    -0.340 N 
HETATM   14  C   UNK N   1      36.655  14.088   7.273  0.00  0.00     0.162 C 
HETATM   15  C   UNK N   1      34.538  13.621   8.627  0.00  0.00     0.111 C 
HETATM   16  C   UNK N   1      37.293  13.005   8.153  0.00  0.00     0.237 C 
HETATM   17  C   UNK N   1      37.171  11.634   7.472  0.00  0.00     0.044 C 
HETATM   18  N   UNK N   1      36.688  13.053   9.508  0.00  0.00     0.100 N 
HETATM   19  C   UNK N   1      35.340  12.571   9.335  0.00  0.00     0.298 C 
HETATM   20  C   UNK N   1      33.332  12.900   8.029  0.00  0.00     0.034 C 
HETATM   21  O   UNK N   1      35.271  15.978   5.966  0.00  0.00    -0.267 OA
BRANCH  18  22
HETATM   22  C   UNK N   1      37.262  12.228  10.583  0.00  0.00     0.311 C 
BRANCH  22  23
HETATM   23  C   UNK N   1      36.885  12.685  11.938  0.00  0.00    -0.030 A 
HETATM   24  C   UNK N   1      36.440  13.995  12.153  0.00  0.00     0.012 A 
HETATM   25  C   UNK N   1      36.289  14.463  13.458  0.00  0.00     0.043 A 
HETATM   26  C   UNK N   1      36.580  13.622  14.537  0.00  0.00     0.116 A 
HETATM   27  C   UNK N   1      36.982  12.303  14.315  0.00  0.00     0.043 A 
HETATM   28  F   UNK N   1      36.488  14.089  15.802  0.00  0.00    -0.206 F 
HETATM   29  C   UNK N   1      37.138  11.836  13.013  0.00  0.00     0.012 A 
ENDBRANCH  22  23
ENDBRANCH  18  22
ENDBRANCH   6  12
BRANCH   7  30
HETATM   30  C   UNK N   1      30.366  15.787   3.917  0.00  0.00     0.251 C 
HETATM   31  O   UNK N   1      30.900  16.464   3.047  0.00  0.00    -0.281 OA
BRANCH  30  32
HETATM   32  C   UNK N   1      29.835  14.440   3.558  0.00  0.00     0.294 C 
HETATM   33  N   UNK N   1      28.568  14.257   3.059  0.00  0.00    -0.354 N 
HETATM   34  C   UNK N   1      28.078  12.933   2.782  0.00  0.00     0.152 C 
HETATM   35  C   UNK N   1      27.645  15.353   2.853  0.00  0.00     0.152 C 
HETATM   36  O   UNK N   1      30.542  13.461   3.772  0.00  0.00    -0.264 OA
ENDBRANCH  30  32
ENDBRANCH   7  30
TORSDOF 5
ENDMDL
MODEL 6
REMARK VINA RESULT:      -7.3      4.997      7.843
REMARK  5 active torsions:
REMARK  status: ('A' for Active; 'I' for Inactive)
REMARK    1  A    between atoms: C_18  and  C_14 
REMARK    2  A    between atoms: N_32  and  C_14 
REMARK    3  A    between atoms: C_26  and  C_21 
REMARK    4  A    between atoms: C_25  and  C_22 
REMARK    5  A    between atoms: C_27  and  C_25 
REMARK       I    between atoms: N_33  and  C_26 
REMARK       I    between atoms: N_30  and  C_27 
ROOT
HETATM    1  C   UNK N   1      34.587  13.568   1.473  0.00  0.00     0.156 C 
HETATM    2  C   UNK N   1      30.802  14.256   4.377  0.00  0.00     0.033 A 
HETATM    3  C   UNK N   1      31.957  12.386   2.668  0.00  0.00     0.055 A 
HETATM    4  C   UNK N   1      33.838  15.401   3.010  0.00  0.00     0.107 A 
HETATM    5  C   UNK N   1      32.020  14.474   3.829  0.00  0.00     0.007 A 
HETATM    6  C   UNK N   1      30.049  13.150   4.040  0.00  0.00     0.054 A 
HETATM    7  C   UNK N   1      32.776  15.612   3.894  0.00  0.00     0.048 A 
HETATM    8  C   UNK N   1      30.661  12.146   3.220  0.00  0.00     0.051 A 
HETATM    9  C   UNK N   1      32.587  13.607   2.973  0.00  0.00     0.046 A 
HETATM   10 Cl   UNK N   1      29.804  10.687   2.746  0.00  0.00    -0.083 Cl
HETATM   11  N   UNK N   1      33.714  14.151   2.476  0.00  0.00    -0.359 N 
ENDROOT
BRANCH   6  12
HETATM   12  C   UNK N   1      28.613  13.150   4.494  0.00  0.00     0.256 C 
HETATM   13  N   UNK N   1      27.681  14.078   4.022  0.00  0.00    -0.340 N 
HETATM   14  C   UNK N   1      26.337  14.038   4.600  0.00  0.00     0.162 C 
HETATM   15  C   UNK N   1      28.011  15.075   2.970  0.00  0.00     0.111 C 
HETATM   16  C   UNK N   1      25.391  15.146   4.120  0.00  0.00     0.237 C 
HETATM   17  C   UNK N   1      24.543  14.642   2.943  0.00  0.00     0.044 C 
HETATM   18  N   UNK N   1      26.179  16.365   3.807  0.00  0.00     0.100 N 
HETATM   19  C   UNK N   1      26.919  16.038   2.613  0.00  0.00     0.298 C 
HETATM   20  C   UNK N   1      28.410  14.388   1.667  0.00  0.00     0.034 C 
HETATM   21  O   UNK N   1      28.249  12.283   5.277  0.00  0.00    -0.267 OA
BRANCH  18  22
HETATM   22  C   UNK N   1      25.474  17.619   3.497  0.00  0.00     0.311 C 
BRANCH  22  23
HETATM   23  C   UNK N   1      26.124  18.815   4.076  0.00  0.00    -0.030 A 
HETATM   24  C   UNK N   1      27.517  18.947   4.065  0.00  0.00     0.012 A 
HETATM   25  C   UNK N   1      28.114  19.975   4.795  0.00  0.00     0.043 A 
HETATM   26  C   UNK N   1      27.319  20.863   5.527  0.00  0.00     0.116 A 
HETATM   27  C   UNK N   1      25.927  20.750   5.498  0.00  0.00     0.043 A 
HETATM   28  F   UNK N   1      27.896  21.826   6.279  0.00  0.00    -0.206 F 
HETATM   29  C   UNK N   1      25.330  19.722   4.774  0.00  0.00     0.012 A 
ENDBRANCH  22  23
ENDBRANCH  18  22
ENDBRANCH   6  12
BRANCH   7  30
HETATM   30  C   UNK N   1      32.341  16.816   4.664  0.00  0.00     0.251 C 
HETATM   31  O   UNK N   1      31.486  17.536   4.163  0.00  0.00    -0.281 OA
BRANCH  30  32
HETATM   32  C   UNK N   1      32.983  17.242   5.942  0.00  0.00     0.294 C 
HETATM   33  N   UNK N   1      32.381  17.063   7.164  0.00  0.00    -0.354 N 
HETATM   34  C   UNK N   1      33.013  17.542   8.365  0.00  0.00     0.152 C 
HETATM   35  C   UNK N   1      31.073  16.460   7.309  0.00  0.00     0.152 C 
HETATM   36  O   UNK N   1      34.063  17.821   5.885  0.00  0.00    -0.264 OA
ENDBRANCH  30  32
ENDBRANCH   7  30
TORSDOF 5
ENDMDL
MODEL 7
REMARK VINA RESULT:      -6.8      3.695      8.262
REMARK  5 active torsions:
REMARK  status: ('A' for Active; 'I' for Inactive)
REMARK    1  A    between atoms: C_18  and  C_14 
REMARK    2  A    between atoms: N_32  and  C_14 
REMARK    3  A    between atoms: C_26  and  C_21 
REMARK    4  A    between atoms: C_25  and  C_22 
REMARK    5  A    between atoms: C_27  and  C_25 
REMARK       I    between atoms: N_33  and  C_26 
REMARK       I    between atoms: N_30  and  C_27 
ROOT
HETATM    1  C   UNK N   1      23.727   8.394   6.457  0.00  0.00     0.156 C 
HETATM    2  C   UNK N   1      24.329  13.084   5.520  0.00  0.00     0.033 A 
HETATM    3  C   UNK N   1      24.278  10.582   4.300  0.00  0.00     0.055 A 
HETATM    4  C   UNK N   1      23.626  10.502   7.809  0.00  0.00     0.107 A 
HETATM    5  C   UNK N   1      23.982  11.977   6.218  0.00  0.00     0.007 A 
HETATM    6  C   UNK N   1      24.760  13.004   4.211  0.00  0.00     0.054 A 
HETATM    7  C   UNK N   1      23.751  11.872   7.561  0.00  0.00     0.048 A 
HETATM    8  C   UNK N   1      24.668  11.735   3.551  0.00  0.00     0.051 A 
HETATM    9  C   UNK N   1      23.982  10.752   5.665  0.00  0.00     0.046 A 
HETATM   10 Cl   UNK N   1      25.166  11.521   1.880  0.00  0.00    -0.083 Cl
HETATM   11  N   UNK N   1      23.746   9.836   6.623  0.00  0.00    -0.359 N 
ENDROOT
BRANCH   6  12
HETATM   12  C   UNK N   1      25.375  14.249   3.628  0.00  0.00     0.256 C 
HETATM   13  N   UNK N   1      26.711  14.595   3.850  0.00  0.00    -0.340 N 
HETATM   14  C   UNK N   1      27.177  15.871   3.307  0.00  0.00     0.162 C 
HETATM   15  C   UNK N   1      27.649  13.716   4.599  0.00  0.00     0.111 C 
HETATM   16  C   UNK N   1      28.619  16.245   3.671  0.00  0.00     0.237 C 
HETATM   17  C   UNK N   1      29.576  15.798   2.558  0.00  0.00     0.044 C 
HETATM   18  N   UNK N   1      28.951  15.681   5.004  0.00  0.00     0.100 N 
HETATM   19  C   UNK N   1      29.032  14.256   4.800  0.00  0.00     0.298 C 
HETATM   20  C   UNK N   1      27.817  12.370   3.901  0.00  0.00     0.034 C 
HETATM   21  O   UNK N   1      24.686  14.958   2.908  0.00  0.00    -0.267 OA
BRANCH  18  22
HETATM   22  C   UNK N   1      30.220  16.056   5.650  0.00  0.00     0.311 C 
BRANCH  22  23
HETATM   23  C   UNK N   1      30.038  16.754   6.940  0.00  0.00    -0.030 A 
HETATM   24  C   UNK N   1      28.792  17.280   7.299  0.00  0.00     0.012 A 
HETATM   25  C   UNK N   1      28.693  18.108   8.417  0.00  0.00     0.043 A 
HETATM   26  C   UNK N   1      29.835  18.404   9.168  0.00  0.00     0.116 A 
HETATM   27  C   UNK N   1      31.067  17.840   8.828  0.00  0.00     0.043 A 
HETATM   28  F   UNK N   1      29.754  19.249  10.219  0.00  0.00    -0.206 F 
HETATM   29  C   UNK N   1      31.168  17.018   7.710  0.00  0.00     0.012 A 
ENDBRANCH  22  23
ENDBRANCH  18  22
ENDBRANCH   6  12
BRANCH   7  30
HETATM   30  C   UNK N   1      23.816  13.052   8.476  0.00  0.00     0.251 C 
HETATM   31  O   UNK N   1      24.920  13.518   8.728  0.00  0.00    -0.281 OA
BRANCH  30  32
HETATM   32  C   UNK N   1      22.624  13.599   9.186  0.00  0.00     0.294 C 
HETATM   33  N   UNK N   1      21.779  14.517   8.607  0.00  0.00    -0.354 N 
HETATM   34  C   UNK N   1      20.674  15.061   9.352  0.00  0.00     0.152 C 
HETATM   35  C   UNK N   1      21.987  15.033   7.271  0.00  0.00     0.152 C 
HETATM   36  O   UNK N   1      22.429  13.254  10.347  0.00  0.00    -0.264 OA
ENDBRANCH  30  32
ENDBRANCH   7  30
TORSDOF 5
ENDMDL
MODEL 8
REMARK VINA RESULT:      -6.7     14.721     16.760
REMARK  5 active torsions:
REMARK  status: ('A' for Active; 'I' for Inactive)
REMARK    1  A    between atoms: C_18  and  C_14 
REMARK    2  A    between atoms: N_32  and  C_14 
REMARK    3  A    between atoms: C_26  and  C_21 
REMARK    4  A    between atoms: C_25  and  C_22 
REMARK    5  A    between atoms: C_27  and  C_25 
REMARK       I    between atoms: N_33  and  C_26 
REMARK       I    between atoms: N_30  and  C_27 
ROOT
HETATM    1  C   UNK N   1      35.412  20.035  -4.970  0.00  0.00     0.156 C 
HETATM    2  C   UNK N   1      31.640  19.824  -7.965  0.00  0.00     0.033 A 
HETATM    3  C   UNK N   1      32.442  20.836  -5.498  0.00  0.00     0.055 A 
HETATM    4  C   UNK N   1      35.008  19.083  -7.254  0.00  0.00     0.107 A 
HETATM    5  C   UNK N   1      32.927  19.724  -7.557  0.00  0.00     0.007 A 
HETATM    6  C   UNK N   1      30.662  20.344  -7.141  0.00  0.00     0.054 A 
HETATM    7  C   UNK N   1      33.947  19.044  -8.163  0.00  0.00     0.048 A 
HETATM    8  C   UNK N   1      31.074  20.934  -5.901  0.00  0.00     0.051 A 
HETATM    9  C   UNK N   1      33.335  20.172  -6.358  0.00  0.00     0.046 A 
HETATM   10 Cl   UNK N   1      29.919  21.645  -4.784  0.00  0.00    -0.083 Cl
HETATM   11  N   UNK N   1      34.617  19.804  -6.164  0.00  0.00    -0.359 N 
ENDROOT
BRANCH   6  12
HETATM   12  C   UNK N   1      29.236  20.156  -7.587  0.00  0.00     0.256 C 
HETATM   13  N   UNK N   1      28.429  21.228  -7.977  0.00  0.00    -0.340 N 
HETATM   14  C   UNK N   1      27.033  20.937  -8.306  0.00  0.00     0.162 C 
HETATM   15  C   UNK N   1      28.942  22.621  -8.069  0.00  0.00     0.111 C 
HETATM   16  C   UNK N   1      26.171  22.165  -8.624  0.00  0.00     0.237 C 
HETATM   17  C   UNK N   1      26.136  22.406 -10.140  0.00  0.00     0.044 C 
HETATM   18  N   UNK N   1      26.669  23.329  -7.848  0.00  0.00     0.100 N 
HETATM   19  C   UNK N   1      27.937  23.666  -8.446  0.00  0.00     0.298 C 
HETATM   20  C   UNK N   1      30.067  22.726  -9.095  0.00  0.00     0.034 C 
HETATM   21  O   UNK N   1      28.788  19.019  -7.641  0.00  0.00    -0.267 OA
BRANCH  18  22
HETATM   22  C   UNK N   1      25.893  24.580  -7.847  0.00  0.00     0.311 C 
BRANCH  22  23
HETATM   23  C   UNK N   1      25.792  25.207  -6.512  0.00  0.00    -0.030 A 
HETATM   24  C   UNK N   1      25.517  26.573  -6.382  0.00  0.00     0.012 A 
HETATM   25  C   UNK N   1      25.631  27.180  -5.131  0.00  0.00     0.043 A 
HETATM   26  C   UNK N   1      26.015  26.420  -4.021  0.00  0.00     0.116 A 
HETATM   27  C   UNK N   1      26.246  25.049  -4.151  0.00  0.00     0.043 A 
HETATM   28  F   UNK N   1      26.180  27.015  -2.819  0.00  0.00    -0.206 F 
HETATM   29  C   UNK N   1      26.138  24.443  -5.399  0.00  0.00     0.012 A 
ENDBRANCH  22  23
ENDBRANCH  18  22
ENDBRANCH   6  12
BRANCH   7  30
HETATM   30  C   UNK N   1      33.763  18.316  -9.456  0.00  0.00     0.251 C 
HETATM   31  O   UNK N   1      33.867  18.960 -10.492  0.00  0.00    -0.281 OA
BRANCH  30  32
HETATM   32  C   UNK N   1      33.340  16.888  -9.533  0.00  0.00     0.294 C 
HETATM   33  N   UNK N   1      34.241  15.860  -9.679  0.00  0.00    -0.354 N 
HETATM   34  C   UNK N   1      33.783  14.502  -9.808  0.00  0.00     0.152 C 
HETATM   35  C   UNK N   1      35.668  16.082  -9.780  0.00  0.00     0.152 C 
HETATM   36  O   UNK N   1      32.140  16.635  -9.522  0.00  0.00    -0.264 OA
ENDBRANCH  30  32
ENDBRANCH   7  30
TORSDOF 5
ENDMDL
MODEL 9
REMARK VINA RESULT:      -6.7      7.855     12.343
REMARK  5 active torsions:
REMARK  status: ('A' for Active; 'I' for Inactive)
REMARK    1  A    between atoms: C_18  and  C_14 
REMARK    2  A    between atoms: N_32  and  C_14 
REMARK    3  A    between atoms: C_26  and  C_21 
REMARK    4  A    between atoms: C_25  and  C_22 
REMARK    5  A    between atoms: C_27  and  C_25 
REMARK       I    between atoms: N_33  and  C_26 
REMARK       I    between atoms: N_30  and  C_27 
ROOT
HETATM    1  C   UNK N   1      34.080   7.854  11.105  0.00  0.00     0.156 C 
HETATM    2  C   UNK N   1      35.170  12.494  10.382  0.00  0.00     0.033 A 
HETATM    3  C   UNK N   1      33.854  10.333   9.221  0.00  0.00     0.055 A 
HETATM    4  C   UNK N   1      35.253   9.630  12.429  0.00  0.00     0.107 A 
HETATM    5  C   UNK N   1      35.012  11.332  11.057  0.00  0.00     0.007 A 
HETATM    6  C   UNK N   1      34.771  12.622   9.067  0.00  0.00     0.054 A 
HETATM    7  C   UNK N   1      35.545  10.988  12.268  0.00  0.00     0.048 A 
HETATM    8  C   UNK N   1      34.028  11.544   8.483  0.00  0.00     0.051 A 
HETATM    9  C   UNK N   1      34.413  10.261  10.510  0.00  0.00     0.046 A 
HETATM   10 Cl   UNK N   1      33.451  11.607   6.825  0.00  0.00    -0.083 Cl
HETATM   11  N   UNK N   1      34.534   9.212  11.347  0.00  0.00    -0.359 N 
ENDROOT
BRANCH   6  12
HETATM   12  C   UNK N   1      35.239  13.855   8.338  0.00  0.00     0.256 C 
HETATM   13  N   UNK N   1      34.396  14.942   8.094  0.00  0.00    -0.340 N 
HETATM   14  C   UNK N   1      34.933  16.048   7.300  0.00  0.00     0.162 C 
HETATM   15  C   UNK N   1      33.004  15.004   8.613  0.00  0.00     0.111 C 
HETATM   16  C   UNK N   1      33.931  17.162   6.976  0.00  0.00     0.237 C 
HETATM   17  C   UNK N   1      34.040  18.288   8.015  0.00  0.00     0.044 C 
HETATM   18  N   UNK N   1      32.568  16.582   6.869  0.00  0.00     0.100 N 
HETATM   19  C   UNK N   1      32.210  16.212   8.216  0.00  0.00     0.298 C 
HETATM   20  C   UNK N   1      32.983  14.968  10.139  0.00  0.00     0.034 C 
HETATM   21  O   UNK N   1      36.408  13.913   7.983  0.00  0.00    -0.267 OA
BRANCH  18  22
HETATM   22  C   UNK N   1      31.461  17.425   6.389  0.00  0.00     0.311 C 
BRANCH  22  23
HETATM   23  C   UNK N   1      30.735  16.842   5.240  0.00  0.00    -0.030 A 
HETATM   24  C   UNK N   1      29.714  15.907   5.439  0.00  0.00     0.012 A 
HETATM   25  C   UNK N   1      29.189  15.220   4.344  0.00  0.00     0.043 A 
HETATM   26  C   UNK N   1      29.685  15.472   3.061  0.00  0.00     0.116 A 
HETATM   27  C   UNK N   1      30.675  16.438   2.865  0.00  0.00     0.043 A 
HETATM   28  F   UNK N   1      29.218  14.770   2.005  0.00  0.00    -0.206 F 
HETATM   29  C   UNK N   1      31.203  17.120   3.957  0.00  0.00     0.012 A 
ENDBRANCH  22  23
ENDBRANCH  18  22
ENDBRANCH   6  12
BRANCH   7  30
HETATM   30  C   UNK N   1      36.387  11.931  13.066  0.00  0.00     0.251 C 
HETATM   31  O   UNK N   1      37.590  11.953  12.839  0.00  0.00    -0.281 OA
BRANCH  30  32
HETATM   32  C   UNK N   1      35.851  12.743  14.197  0.00  0.00     0.294 C 
HETATM   33  N   UNK N   1      35.891  12.307  15.500  0.00  0.00    -0.354 N 
HETATM   34  C   UNK N   1      35.309  13.099  16.551  0.00  0.00     0.152 C 
HETATM   35  C   UNK N   1      36.443  11.023  15.876  0.00  0.00     0.152 C 
HETATM   36  O   UNK N   1      35.307  13.812  13.939  0.00  0.00    -0.264 OA
ENDBRANCH  30  32
ENDBRANCH   7  30
TORSDOF 5
ENDMDL
