MODEL 1
REMARK VINA RESULT:      -7.6      0.000      0.000
REMARK  6 active torsions:
REMARK  status: ('A' for Active; 'I' for Inactive)
REMARK    1  A    between atoms: C_6  and  C_5 
REMARK    2  A    between atoms: C_14  and  C_6 
REMARK    3  A    between atoms: C_20  and  C_11 
REMARK    4  A    between atoms: O_21  and  C_11 
REMARK    5  A    between atoms: C_15  and  O_22 
REMARK    6  A    between atoms: C_17  and  O_23 
ROOT
HETATM    1  C   UNK N   1      31.894  15.383   3.283  0.00  0.00     0.015 C 
HETATM    2  C   UNK N   1      30.187  15.401   6.466  0.00  0.00     0.016 C 
HETATM    3  C   UNK N   1      27.362  16.473   6.783  0.00  0.00     0.020 C 
HETATM    4  C   UNK N   1      30.026  16.958   3.226  0.00  0.00     0.034 C 
HETATM    5  C   UNK N   1      28.867  16.982   4.227  0.00  0.00     0.010 C 
HETATM    6  C   UNK N   1      29.672  17.590   8.485  0.00  0.00     0.033 C 
HETATM    7  C   UNK N   1      30.864  17.550   7.530  0.00  0.00     0.012 C 
HETATM    8  C   UNK N   1      31.266  16.403   3.863  0.00  0.00    -0.084 C 
HETATM    9  C   UNK N   1      31.685  16.999   5.197  0.00  0.00     0.025 C 
HETATM   10  C   UNK N   1      29.273  17.639   5.568  0.00  0.00     0.007 C 
HETATM   11  C   UNK N   1      28.549  18.426   7.876  0.00  0.00     0.128 C 
HETATM   12  C   UNK N   1      30.497  16.879   6.198  0.00  0.00    -0.032 C 
HETATM   13  C   UNK N   1      28.056  17.813   6.532  0.00  0.00     0.008 C 
ENDROOT
BRANCH   9  14
HETATM   14  C   UNK N   1      33.075  16.651   5.788  0.00  0.00     0.037 C 
BRANCH  14  15
HETATM   15  C   UNK N   1      33.932  17.600   6.576  0.00  0.00    -0.010 C 
HETATM   16  C   UNK N   1      34.353  17.287   7.815  0.00  0.00     0.044 A 
HETATM   17  C   UNK N   1      34.179  15.986   8.520  0.00  0.00     0.181 A 
HETATM   18  C   UNK N   1      35.018  18.181   8.718  0.00  0.00     0.291 A 
HETATM   19  C   UNK N   1      34.791  16.283   9.919  0.00  0.00     0.215 A 
HETATM   20  O   UNK N   1      35.249  17.591   9.893  0.00  0.00    -0.315 OA
HETATM   21  O   UNK N   1      35.287  19.348   8.491  0.00  0.00    -0.260 OA
BRANCH  17  22
HETATM   22  O   UNK N   1      34.917  14.988   7.884  0.00  0.00    -0.389 OA
HETATM   23  H   UNK N   1      35.021  14.765   6.946  0.00  0.00     0.210 HD
ENDBRANCH  17  22
ENDBRANCH  14  15
ENDBRANCH   9  14
BRANCH  13  24
HETATM   24  C   UNK N   1      27.050  18.768   5.857  0.00  0.00     0.176 C 
BRANCH  24  25
HETATM   25  O   UNK N   1      26.856  19.942   6.589  0.00  0.00    -0.400 OA
HETATM   26  H   UNK N   1      26.946  20.827   6.201  0.00  0.00     0.209 HD
ENDBRANCH  24  25
ENDBRANCH  13  24
BRANCH  11  27
HETATM   27  O   UNK N   1      27.507  18.515   8.803  0.00  0.00    -0.395 OA
HETATM   28  H   UNK N   1      27.406  17.939   9.576  0.00  0.00     0.210 HD
ENDBRANCH  11  27
TORSDOF 6
ENDMDL
MODEL 2
REMARK VINA RESULT:      -7.1      2.143      7.422
REMARK  6 active torsions:
REMARK  status: ('A' for Active; 'I' for Inactive)
REMARK    1  A    between atoms: C_6  and  C_5 
REMARK    2  A    between atoms: C_14  and  C_6 
REMARK    3  A    between atoms: C_20  and  C_11 
REMARK    4  A    between atoms: O_21  and  C_11 
REMARK    5  A    between atoms: C_15  and  O_22 
REMARK    6  A    between atoms: C_17  and  O_23 
ROOT
HETATM    1  C   UNK N   1      27.073  16.767   7.411  0.00  0.00     0.015 C 
HETATM    2  C   UNK N   1      30.068  15.544   5.804  0.00  0.00     0.016 C 
HETATM    3  C   UNK N   1      32.757  15.487   7.217  0.00  0.00     0.020 C 
HETATM    4  C   UNK N   1      29.052  17.578   8.594  0.00  0.00     0.034 C 
HETATM    5  C   UNK N   1      30.461  16.995   8.449  0.00  0.00     0.010 C 
HETATM    6  C   UNK N   1      32.417  16.959   4.534  0.00  0.00     0.033 C 
HETATM    7  C   UNK N   1      31.002  17.528   4.622  0.00  0.00     0.012 C 
HETATM    8  C   UNK N   1      28.259  17.367   7.337  0.00  0.00    -0.084 C 
HETATM    9  C   UNK N   1      28.911  17.784   6.029  0.00  0.00     0.025 C 
HETATM   10  C   UNK N   1      31.151  17.462   7.145  0.00  0.00     0.007 C 
HETATM   11  C   UNK N   1      33.251  17.462   5.710  0.00  0.00     0.128 C 
HETATM   12  C   UNK N   1      30.283  17.059   5.895  0.00  0.00    -0.032 C 
HETATM   13  C   UNK N   1      32.642  17.005   7.069  0.00  0.00     0.008 C 
ENDROOT
BRANCH   9  14
HETATM   14  C   UNK N   1      28.064  17.824   4.731  0.00  0.00     0.037 C 
BRANCH  14  15
HETATM   15  C   UNK N   1      27.606  19.080   4.046  0.00  0.00    -0.010 C 
HETATM   16  C   UNK N   1      26.303  19.288   3.784  0.00  0.00     0.044 A 
HETATM   17  C   UNK N   1      25.153  18.445   4.217  0.00  0.00     0.181 A 
HETATM   18  C   UNK N   1      25.776  20.356   2.983  0.00  0.00     0.291 A 
HETATM   19  C   UNK N   1      23.947  19.152   3.534  0.00  0.00     0.215 A 
HETATM   20  O   UNK N   1      24.452  20.253   2.858  0.00  0.00    -0.315 OA
HETATM   21  O   UNK N   1      26.436  21.217   2.426  0.00  0.00    -0.260 OA
BRANCH  17  22
HETATM   22  O   UNK N   1      25.009  18.499   5.603  0.00  0.00    -0.389 OA
HETATM   23  H   UNK N   1      25.385  17.953   6.310  0.00  0.00     0.210 HD
ENDBRANCH  17  22
ENDBRANCH  14  15
ENDBRANCH   9  14
BRANCH  13  24
HETATM   24  C   UNK N   1      33.402  17.671   8.235  0.00  0.00     0.176 C 
BRANCH  24  25
HETATM   25  O   UNK N   1      34.413  18.527   7.792  0.00  0.00    -0.400 OA
HETATM   26  H   UNK N   1      34.246  19.285   7.210  0.00  0.00     0.209 HD
ENDBRANCH  24  25
ENDBRANCH  13  24
BRANCH  11  27
HETATM   27  O   UNK N   1      34.560  16.995   5.560  0.00  0.00    -0.395 OA
HETATM   28  H   UNK N   1      35.158  16.787   6.294  0.00  0.00     0.210 HD
ENDBRANCH  11  27
TORSDOF 6
ENDMDL
MODEL 3
REMARK VINA RESULT:      -7.0      1.550      2.131
REMARK  6 active torsions:
REMARK  status: ('A' for Active; 'I' for Inactive)
REMARK    1  A    between atoms: C_6  and  C_5 
REMARK    2  A    between atoms: C_14  and  C_6 
REMARK    3  A    between atoms: C_20  and  C_11 
REMARK    4  A    between atoms: O_21  and  C_11 
REMARK    5  A    between atoms: C_15  and  O_22 
REMARK    6  A    between atoms: C_17  and  O_23 
ROOT
HETATM    1  C   UNK N   1      33.394  16.241   4.670  0.00  0.00     0.015 C 
HETATM    2  C   UNK N   1      31.019  15.720   7.341  0.00  0.00     0.016 C 
HETATM    3  C   UNK N   1      28.080  16.436   7.058  0.00  0.00     0.020 C 
HETATM    4  C   UNK N   1      31.397  17.600   4.296  0.00  0.00     0.034 C 
HETATM    5  C   UNK N   1      30.047  17.386   4.988  0.00  0.00     0.010 C 
HETATM    6  C   UNK N   1      29.774  17.602   9.351  0.00  0.00     0.033 C 
HETATM    7  C   UNK N   1      31.146  17.798   8.710  0.00  0.00     0.012 C 
HETATM    8  C   UNK N   1      32.522  17.116   5.164  0.00  0.00    -0.084 C 
HETATM    9  C   UNK N   1      32.542  17.602   6.604  0.00  0.00     0.025 C 
HETATM   10  C   UNK N   1      30.046  17.930   6.437  0.00  0.00     0.007 C 
HETATM   11  C   UNK N   1      28.718  18.373   8.561  0.00  0.00     0.128 C 
HETATM   12  C   UNK N   1      31.184  17.243   7.278  0.00  0.00    -0.032 C 
HETATM   13  C   UNK N   1      28.630  17.863   7.092  0.00  0.00     0.008 C 
ENDROOT
BRANCH   9  14
HETATM   14  C   UNK N   1      33.794  17.345   7.481  0.00  0.00     0.037 C 
BRANCH  14  15
HETATM   15  C   UNK N   1      34.608  16.081   7.461  0.00  0.00    -0.010 C 
HETATM   16  C   UNK N   1      34.997  15.492   8.605  0.00  0.00     0.044 A 
HETATM   17  C   UNK N   1      34.604  15.873   9.991  0.00  0.00     0.181 A 
HETATM   18  C   UNK N   1      35.917  14.395   8.705  0.00  0.00     0.291 A 
HETATM   19  C   UNK N   1      35.439  14.886  10.857  0.00  0.00     0.215 A 
HETATM   20  O   UNK N   1      36.149  14.079   9.981  0.00  0.00    -0.315 OA
HETATM   21  O   UNK N   1      36.477  13.852   7.769  0.00  0.00    -0.260 OA
BRANCH  17  22
HETATM   22  O   UNK N   1      33.243  15.639  10.190  0.00  0.00    -0.389 OA
HETATM   23  H   UNK N   1      32.739  14.815  10.275  0.00  0.00     0.210 HD
ENDBRANCH  17  22
ENDBRANCH  14  15
ENDBRANCH   9  14
BRANCH  13  24
HETATM   24  C   UNK N   1      27.687  18.771   6.276  0.00  0.00     0.176 C 
BRANCH  24  25
HETATM   25  O   UNK N   1      27.185  19.833   7.032  0.00  0.00    -0.400 OA
HETATM   26  H   UNK N   1      26.380  19.765   7.568  0.00  0.00     0.209 HD
ENDBRANCH  24  25
ENDBRANCH  13  24
BRANCH  11  27
HETATM   27  O   UNK N   1      27.490  18.245   9.215  0.00  0.00    -0.395 OA
HETATM   28  H   UNK N   1      26.718  18.808   9.053  0.00  0.00     0.210 HD
ENDBRANCH  11  27
TORSDOF 6
ENDMDL
MODEL 4
REMARK VINA RESULT:      -6.9      1.861      2.855
REMARK  6 active torsions:
REMARK  status: ('A' for Active; 'I' for Inactive)
REMARK    1  A    between atoms: C_6  and  C_5 
REMARK    2  A    between atoms: C_14  and  C_6 
REMARK    3  A    between atoms: C_20  and  C_11 
REMARK    4  A    between atoms: O_21  and  C_11 
REMARK    5  A    between atoms: C_15  and  O_22 
REMARK    6  A    between atoms: C_17  and  O_23 
ROOT
HETATM    1  C   UNK N   1      29.129  14.294   4.431  0.00  0.00     0.015 C 
HETATM    2  C   UNK N   1      27.335  16.679   6.466  0.00  0.00     0.016 C 
HETATM    3  C   UNK N   1      25.468  18.752   5.265  0.00  0.00     0.020 C 
HETATM    4  C   UNK N   1      28.376  16.172   3.059  0.00  0.00     0.034 C 
HETATM    5  C   UNK N   1      27.295  17.177   3.466  0.00  0.00     0.010 C 
HETATM    6  C   UNK N   1      27.812  19.600   7.073  0.00  0.00     0.033 C 
HETATM    7  C   UNK N   1      28.907  18.594   6.724  0.00  0.00     0.012 C 
HETATM    8  C   UNK N   1      29.064  15.613   4.271  0.00  0.00    -0.084 C 
HETATM    9  C   UNK N   1      29.578  16.612   5.295  0.00  0.00     0.025 C 
HETATM   10  C   UNK N   1      27.829  18.230   4.466  0.00  0.00     0.007 C 
HETATM   11  C   UNK N   1      27.366  20.338   5.812  0.00  0.00     0.128 C 
HETATM   12  C   UNK N   1      28.398  17.521   5.750  0.00  0.00    -0.032 C 
HETATM   13  C   UNK N   1      26.781  19.351   4.759  0.00  0.00     0.008 C 
ENDROOT
BRANCH   9  14
HETATM   14  C   UNK N   1      30.506  16.126   6.438  0.00  0.00     0.037 C 
BRANCH  14  15
HETATM   15  C   UNK N   1      31.998  15.981   6.326  0.00  0.00    -0.010 C 
HETATM   16  C   UNK N   1      32.824  16.848   6.939  0.00  0.00     0.044 A 
HETATM   17  C   UNK N   1      32.444  17.938   7.881  0.00  0.00     0.181 A 
HETATM   18  C   UNK N   1      34.246  16.912   6.756  0.00  0.00     0.291 A 
HETATM   19  C   UNK N   1      33.812  18.623   8.164  0.00  0.00     0.215 A 
HETATM   20  O   UNK N   1      34.773  17.920   7.454  0.00  0.00    -0.315 OA
HETATM   21  O   UNK N   1      34.899  16.195   6.018  0.00  0.00    -0.260 OA
BRANCH  17  22
HETATM   22  O   UNK N   1      31.934  17.400   9.062  0.00  0.00    -0.389 OA
HETATM   23  H   UNK N   1      31.032  17.370   9.417  0.00  0.00     0.210 HD
ENDBRANCH  17  22
ENDBRANCH  14  15
ENDBRANCH   9  14
BRANCH  13  24
HETATM   24  C   UNK N   1      26.504  20.097   3.438  0.00  0.00     0.176 C 
BRANCH  24  25
HETATM   25  O   UNK N   1      25.190  20.563   3.354  0.00  0.00    -0.400 OA
HETATM   26  H   UNK N   1      24.868  21.328   3.855  0.00  0.00     0.209 HD
ENDBRANCH  24  25
ENDBRANCH  13  24
BRANCH  11  27
HETATM   27  O   UNK N   1      26.427  21.307   6.172  0.00  0.00    -0.395 OA
HETATM   28  H   UNK N   1      25.478  21.142   6.283  0.00  0.00     0.210 HD
ENDBRANCH  11  27
TORSDOF 6
ENDMDL
MODEL 5
REMARK VINA RESULT:      -6.9      5.084      9.744
REMARK  6 active torsions:
REMARK  status: ('A' for Active; 'I' for Inactive)
REMARK    1  A    between atoms: C_6  and  C_5 
REMARK    2  A    between atoms: C_14  and  C_6 
REMARK    3  A    between atoms: C_20  and  C_11 
REMARK    4  A    between atoms: O_21  and  C_11 
REMARK    5  A    between atoms: C_15  and  O_22 
REMARK    6  A    between atoms: C_17  and  O_23 
ROOT
HETATM    1  C   UNK N   1      26.280  20.763   5.979  0.00  0.00     0.015 C 
HETATM    2  C   UNK N   1      26.030  17.183   5.564  0.00  0.00     0.016 C 
HETATM    3  C   UNK N   1      28.418  15.472   4.790  0.00  0.00     0.020 C 
HETATM    4  C   UNK N   1      28.172  19.934   4.672  0.00  0.00     0.034 C 
HETATM    5  C   UNK N   1      28.612  18.469   4.597  0.00  0.00     0.010 C 
HETATM    6  C   UNK N   1      25.836  15.429   3.111  0.00  0.00     0.033 C 
HETATM    7  C   UNK N   1      25.342  16.872   3.190  0.00  0.00     0.012 C 
HETATM    8  C   UNK N   1      26.700  20.033   4.949  0.00  0.00    -0.084 C 
HETATM    9  C   UNK N   1      25.774  19.209   4.068  0.00  0.00     0.025 C 
HETATM   10  C   UNK N   1      27.705  17.639   3.657  0.00  0.00     0.007 C 
HETATM   11  C   UNK N   1      27.253  15.398   2.542  0.00  0.00     0.128 C 
HETATM   12  C   UNK N   1      26.209  17.715   4.137  0.00  0.00    -0.032 C 
HETATM   13  C   UNK N   1      28.243  16.187   3.449  0.00  0.00     0.008 C 
ENDROOT
BRANCH   9  14
HETATM   14  C   UNK N   1      24.244  19.448   4.134  0.00  0.00     0.037 C 
BRANCH  14  15
HETATM   15  C   UNK N   1      23.427  20.077   3.041  0.00  0.00    -0.010 C 
HETATM   16  C   UNK N   1      22.122  19.787   2.899  0.00  0.00     0.044 A 
HETATM   17  C   UNK N   1      21.279  18.965   3.814  0.00  0.00     0.181 A 
HETATM   18  C   UNK N   1      21.296  20.185   1.795  0.00  0.00     0.291 A 
HETATM   19  C   UNK N   1      19.915  18.931   3.067  0.00  0.00     0.215 A 
HETATM   20  O   UNK N   1      20.064  19.688   1.914  0.00  0.00    -0.315 OA
HETATM   21  O   UNK N   1      21.665  20.834   0.832  0.00  0.00    -0.260 OA
BRANCH  17  22
HETATM   22  O   UNK N   1      21.129  19.609   5.042  0.00  0.00    -0.389 OA
HETATM   23  H   UNK N   1      20.616  20.391   5.299  0.00  0.00     0.210 HD
ENDBRANCH  17  22
ENDBRANCH  14  15
ENDBRANCH   9  14
BRANCH  13  24
HETATM   24  C   UNK N   1      29.620  16.286   2.762  0.00  0.00     0.176 C 
BRANCH  24  25
HETATM   25  O   UNK N   1      30.413  15.159   2.991  0.00  0.00    -0.400 OA
HETATM   26  H   UNK N   1      30.888  14.695   2.284  0.00  0.00     0.209 HD
ENDBRANCH  24  25
ENDBRANCH  13  24
BRANCH  11  27
HETATM   27  O   UNK N   1      27.648  14.065   2.402  0.00  0.00    -0.395 OA
HETATM   28  H   UNK N   1      27.351  13.473   1.695  0.00  0.00     0.210 HD
ENDBRANCH  11  27
TORSDOF 6
ENDMDL
MODEL 6
REMARK VINA RESULT:      -6.7     12.019     14.214
REMARK  6 active torsions:
REMARK  status: ('A' for Active; 'I' for Inactive)
REMARK    1  A    between atoms: C_6  and  C_5 
REMARK    2  A    between atoms: C_14  and  C_6 
REMARK    3  A    between atoms: C_20  and  C_11 
REMARK    4  A    between atoms: O_21  and  C_11 
REMARK    5  A    between atoms: C_15  and  O_22 
REMARK    6  A    between atoms: C_17  and  O_23 
ROOT
HETATM    1  C   UNK N   1      31.927  25.712  -4.271  0.00  0.00     0.015 C 
HETATM    2  C   UNK N   1      28.888  25.485  -6.211  0.00  0.00     0.016 C 
HETATM    3  C   UNK N   1      26.990  27.836  -6.528  0.00  0.00     0.020 C 
HETATM    4  C   UNK N   1      30.399  27.517  -3.654  0.00  0.00     0.034 C 
HETATM    5  C   UNK N   1      29.196  27.972  -4.486  0.00  0.00     0.010 C 
HETATM    6  C   UNK N   1      25.992  25.142  -5.420  0.00  0.00     0.033 C 
HETATM    7  C   UNK N   1      27.182  24.633  -4.608  0.00  0.00     0.012 C 
HETATM    8  C   UNK N   1      30.699  26.067  -3.902  0.00  0.00    -0.084 C 
HETATM    9  C   UNK N   1      29.537  25.093  -3.796  0.00  0.00     0.025 C 
HETATM   10  C   UNK N   1      27.992  27.012  -4.336  0.00  0.00     0.007 C 
HETATM   11  C   UNK N   1      25.563  26.514  -4.906  0.00  0.00     0.128 C 
HETATM   12  C   UNK N   1      28.402  25.553  -4.758  0.00  0.00    -0.032 C 
HETATM   13  C   UNK N   1      26.713  27.555  -5.051  0.00  0.00     0.008 C 
ENDROOT
BRANCH   9  14
HETATM   14  C   UNK N   1      29.815  23.568  -3.797  0.00  0.00     0.037 C 
BRANCH  14  15
HETATM   15  C   UNK N   1      30.969  22.908  -3.095  0.00  0.00    -0.010 C 
HETATM   16  C   UNK N   1      31.729  21.994  -3.725  0.00  0.00     0.044 A 
HETATM   17  C   UNK N   1      31.662  21.605  -5.162  0.00  0.00     0.181 A 
HETATM   18  C   UNK N   1      32.732  21.177  -3.104  0.00  0.00     0.291 A 
HETATM   19  C   UNK N   1      32.714  20.462  -5.246  0.00  0.00     0.215 A 
HETATM   20  O   UNK N   1      33.266  20.325  -3.981  0.00  0.00    -0.315 OA
HETATM   21  O   UNK N   1      33.029  21.194  -1.922  0.00  0.00    -0.260 OA
BRANCH  17  22
HETATM   22  O   UNK N   1      32.056  22.671  -5.970  0.00  0.00    -0.389 OA
HETATM   23  H   UNK N   1      32.935  22.989  -6.229  0.00  0.00     0.210 HD
ENDBRANCH  17  22
ENDBRANCH  14  15
ENDBRANCH   9  14
BRANCH  13  24
HETATM   24  C   UNK N   1      26.313  28.878  -4.366  0.00  0.00     0.176 C 
BRANCH  24  25
HETATM   25  O   UNK N   1      25.443  28.680  -3.290  0.00  0.00    -0.400 OA
HETATM   26  H   UNK N   1      25.749  28.445  -2.400  0.00  0.00     0.209 HD
ENDBRANCH  24  25
ENDBRANCH  13  24
BRANCH  11  27
HETATM   27  O   UNK N   1      24.424  26.918  -5.608  0.00  0.00    -0.395 OA
HETATM   28  H   UNK N   1      23.786  27.575  -5.292  0.00  0.00     0.210 HD
ENDBRANCH  11  27
TORSDOF 6
ENDMDL
MODEL 7
REMARK VINA RESULT:      -6.7     11.797     14.085
REMARK  6 active torsions:
REMARK  status: ('A' for Active; 'I' for Inactive)
REMARK    1  A    between atoms: C_6  and  C_5 
REMARK    2  A    between atoms: C_14  and  C_6 
REMARK    3  A    between atoms: C_20  and  C_11 
REMARK    4  A    between atoms: O_21  and  C_11 
REMARK    5  A    between atoms: C_15  and  O_22 
REMARK    6  A    between atoms: C_17  and  O_23 
ROOT
HETATM    1  C   UNK N   1      32.032  25.124  -4.467  0.00  0.00     0.015 C 
HETATM    2  C   UNK N   1      28.807  24.515  -5.977  0.00  0.00     0.016 C 
HETATM    3  C   UNK N   1      26.965  26.776  -6.830  0.00  0.00     0.020 C 
HETATM    4  C   UNK N   1      30.634  27.122  -4.299  0.00  0.00     0.034 C 
HETATM    5  C   UNK N   1      29.369  27.381  -5.124  0.00  0.00     0.010 C 
HETATM    6  C   UNK N   1      25.996  24.605  -4.873  0.00  0.00     0.033 C 
HETATM    7  C   UNK N   1      27.244  24.290  -4.051  0.00  0.00     0.012 C 
HETATM    8  C   UNK N   1      30.859  25.649  -4.120  0.00  0.00    -0.084 C 
HETATM    9  C   UNK N   1      29.683  24.825  -3.622  0.00  0.00     0.025 C 
HETATM   10  C   UNK N   1      28.155  26.586  -4.586  0.00  0.00     0.007 C 
HETATM   11  C   UNK N   1      25.666  26.092  -4.766  0.00  0.00     0.128 C 
HETATM   12  C   UNK N   1      28.472  25.045  -4.578  0.00  0.00    -0.032 C 
HETATM   13  C   UNK N   1      26.829  26.968  -5.319  0.00  0.00     0.008 C 
ENDROOT
BRANCH   9  14
HETATM   14  C   UNK N   1      29.909  23.356  -3.184  0.00  0.00     0.037 C 
BRANCH  14  15
HETATM   15  C   UNK N   1      30.042  22.192  -4.125  0.00  0.00    -0.010 C 
HETATM   16  C   UNK N   1      31.207  21.532  -4.249  0.00  0.00     0.044 A 
HETATM   17  C   UNK N   1      32.441  21.728  -3.436  0.00  0.00     0.181 A 
HETATM   18  C   UNK N   1      31.496  20.532  -5.237  0.00  0.00     0.291 A 
HETATM   19  C   UNK N   1      33.443  20.750  -4.114  0.00  0.00     0.215 A 
HETATM   20  O   UNK N   1      32.759  20.113  -5.139  0.00  0.00    -0.315 OA
HETATM   21  O   UNK N   1      30.729  20.148  -6.102  0.00  0.00    -0.260 OA
BRANCH  17  22
HETATM   22  O   UNK N   1      32.219  21.336  -2.117  0.00  0.00    -0.389 OA
HETATM   23  H   UNK N   1      32.192  20.460  -1.703  0.00  0.00     0.210 HD
ENDBRANCH  17  22
ENDBRANCH  14  15
ENDBRANCH   9  14
BRANCH  13  24
HETATM   24  C   UNK N   1      26.544  28.457  -5.037  0.00  0.00     0.176 C 
BRANCH  24  25
HETATM   25  O   UNK N   1      25.589  28.637  -4.034  0.00  0.00    -0.400 OA
HETATM   26  H   UNK N   1      25.534  28.069  -3.249  0.00  0.00     0.209 HD
ENDBRANCH  24  25
ENDBRANCH  13  24
BRANCH  11  27
HETATM   27  O   UNK N   1      24.477  26.336  -5.457  0.00  0.00    -0.395 OA
HETATM   28  H   UNK N   1      23.948  27.145  -5.376  0.00  0.00     0.210 HD
ENDBRANCH  11  27
TORSDOF 6
ENDMDL
MODEL 8
REMARK VINA RESULT:      -6.6      2.362      6.613
REMARK  6 active torsions:
REMARK  status: ('A' for Active; 'I' for Inactive)
REMARK    1  A    between atoms: C_6  and  C_5 
REMARK    2  A    between atoms: C_14  and  C_6 
REMARK    3  A    between atoms: C_20  and  C_11 
REMARK    4  A    between atoms: O_21  and  C_11 
REMARK    5  A    between atoms: C_15  and  O_22 
REMARK    6  A    between atoms: C_17  and  O_23 
ROOT
HETATM    1  C   UNK N   1      32.665  16.754   2.903  0.00  0.00     0.015 C 
HETATM    2  C   UNK N   1      32.904  17.563   6.416  0.00  0.00     0.016 C 
HETATM    3  C   UNK N   1      34.309  15.745   8.404  0.00  0.00     0.020 C 
HETATM    4  C   UNK N   1      33.183  14.745   4.195  0.00  0.00     0.034 C 
HETATM    5  C   UNK N   1      33.716  14.738   5.631  0.00  0.00     0.010 C 
HETATM    6  C   UNK N   1      31.379  16.588   8.835  0.00  0.00     0.033 C 
HETATM    7  C   UNK N   1      30.816  16.643   7.416  0.00  0.00     0.012 C 
HETATM    8  C   UNK N   1      32.362  15.975   3.939  0.00  0.00    -0.084 C 
HETATM    9  C   UNK N   1      31.273  16.302   4.947  0.00  0.00     0.025 C 
HETATM   10  C   UNK N   1      32.598  15.014   6.665  0.00  0.00     0.007 C 
HETATM   11  C   UNK N   1      31.941  15.196   9.116  0.00  0.00     0.128 C 
HETATM   12  C   UNK N   1      31.909  16.397   6.366  0.00  0.00    -0.032 C 
HETATM   13  C   UNK N   1      33.100  14.848   8.135  0.00  0.00     0.008 C 
ENDROOT
BRANCH   9  14
HETATM   14  C   UNK N   1      30.236  17.407   4.622  0.00  0.00     0.037 C 
BRANCH  14  15
HETATM   15  C   UNK N   1      28.908  17.167   3.961  0.00  0.00    -0.010 C 
HETATM   16  C   UNK N   1      27.845  17.943   4.243  0.00  0.00     0.044 A 
HETATM   17  C   UNK N   1      27.828  19.171   5.086  0.00  0.00     0.181 A 
HETATM   18  C   UNK N   1      26.499  17.697   3.813  0.00  0.00     0.291 A 
HETATM   19  C   UNK N   1      26.318  19.546   5.096  0.00  0.00     0.215 A 
HETATM   20  O   UNK N   1      25.663  18.611   4.308  0.00  0.00    -0.315 OA
HETATM   21  O   UNK N   1      26.131  16.750   3.139  0.00  0.00    -0.260 OA
BRANCH  17  22
HETATM   22  O   UNK N   1      28.563  20.187   4.475  0.00  0.00    -0.389 OA
HETATM   23  H   UNK N   1      28.497  21.153   4.537  0.00  0.00     0.210 HD
ENDBRANCH  17  22
ENDBRANCH  14  15
ENDBRANCH   9  14
BRANCH  13  24
HETATM   24  C   UNK N   1      33.527  13.378   8.326  0.00  0.00     0.176 C 
BRANCH  24  25
HETATM   25  O   UNK N   1      32.594  12.644   9.063  0.00  0.00    -0.400 OA
HETATM   26  H   UNK N   1      32.794  12.252   9.927  0.00  0.00     0.209 HD
ENDBRANCH  24  25
ENDBRANCH  13  24
BRANCH  11  27
HETATM   27  O   UNK N   1      32.372  15.148  10.444  0.00  0.00    -0.395 OA
HETATM   28  H   UNK N   1      31.992  14.575  11.127  0.00  0.00     0.210 HD
ENDBRANCH  11  27
TORSDOF 6
ENDMDL
MODEL 9
REMARK VINA RESULT:      -6.6     10.549     14.372
REMARK  6 active torsions:
REMARK  status: ('A' for Active; 'I' for Inactive)
REMARK    1  A    between atoms: C_6  and  C_5 
REMARK    2  A    between atoms: C_14  and  C_6 
REMARK    3  A    between atoms: C_20  and  C_11 
REMARK    4  A    between atoms: O_21  and  C_11 
REMARK    5  A    between atoms: C_15  and  O_22 
REMARK    6  A    between atoms: C_17  and  O_23 
ROOT
HETATM    1  C   UNK N   1      35.908  11.923  19.950  0.00  0.00     0.015 C 
HETATM    2  C   UNK N   1      36.943  10.280  16.903  0.00  0.00     0.016 C 
HETATM    3  C   UNK N   1      37.220  11.773  14.272  0.00  0.00     0.020 C 
HETATM    4  C   UNK N   1      35.286  13.276  18.012  0.00  0.00     0.034 C 
HETATM    5  C   UNK N   1      35.861  13.107  16.602  0.00  0.00     0.010 C 
HETATM    6  C   UNK N   1      35.401   9.298  14.498  0.00  0.00     0.033 C 
HETATM    7  C   UNK N   1      34.831   9.408  15.911  0.00  0.00     0.012 C 
HETATM    8  C   UNK N   1      35.319  11.974  18.758  0.00  0.00    -0.084 C 
HETATM    9  C   UNK N   1      34.739  10.758  18.053  0.00  0.00     0.025 C 
HETATM   10  C   UNK N   1      35.233  11.904  15.860  0.00  0.00     0.007 C 
HETATM   11  C   UNK N   1      35.069  10.561  13.706  0.00  0.00     0.128 C 
HETATM   12  C   UNK N   1      35.456  10.581  16.681  0.00  0.00    -0.032 C 
HETATM   13  C   UNK N   1      35.694  11.824  14.370  0.00  0.00     0.008 C 
ENDROOT
BRANCH   9  14
HETATM   14  C   UNK N   1      34.518   9.446  18.848  0.00  0.00     0.037 C 
BRANCH  14  15
HETATM   15  C   UNK N   1      33.173   8.890  19.225  0.00  0.00    -0.010 C 
HETATM   16  C   UNK N   1      32.806   8.786  20.515  0.00  0.00     0.044 A 
HETATM   17  C   UNK N   1      33.546   9.293  21.704  0.00  0.00     0.181 A 
HETATM   18  C   UNK N   1      31.633   8.111  20.993  0.00  0.00     0.291 A 
HETATM   19  C   UNK N   1      32.665   8.790  22.883  0.00  0.00     0.215 A 
HETATM   20  O   UNK N   1      31.581   8.127  22.326  0.00  0.00    -0.315 OA
HETATM   21  O   UNK N   1      30.813   7.537  20.299  0.00  0.00    -0.260 OA
BRANCH  17  22
HETATM   22  O   UNK N   1      33.574  10.687  21.698  0.00  0.00    -0.389 OA
HETATM   23  H   UNK N   1      33.111  11.342  22.244  0.00  0.00     0.210 HD
ENDBRANCH  17  22
ENDBRANCH  14  15
ENDBRANCH   9  14
BRANCH  13  24
HETATM   24  C   UNK N   1      35.198  13.095  13.651  0.00  0.00     0.176 C 
BRANCH  24  25
HETATM   25  O   UNK N   1      34.285  12.810  12.633  0.00  0.00    -0.400 OA
HETATM   26  H   UNK N   1      34.524  12.319  11.832  0.00  0.00     0.209 HD
ENDBRANCH  24  25
ENDBRANCH  13  24
BRANCH  11  27
HETATM   27  O   UNK N   1      35.527  10.400  12.396  0.00  0.00    -0.395 OA
HETATM   28  H   UNK N   1      36.392  10.032  12.155  0.00  0.00     0.210 HD
ENDBRANCH  11  27
TORSDOF 6
ENDMDL
