MODEL 1
REMARK VINA RESULT:      -6.5      0.000      0.000
REMARK  3 active torsions:
REMARK  status: ('A' for Active; 'I' for Inactive)
REMARK    1  A    between atoms: C_7  and  O_1 
REMARK    2  A    between atoms: O_3  and  C_17 
REMARK    3  A    between atoms: C_14  and  C_17 
ROOT
HETATM    1  O   UNK N   1      22.600  21.529   2.705  0.00  0.00    -0.289 OA
HETATM    2  C   UNK N   1      21.647  18.055   3.636  0.00  0.00     0.022 A 
HETATM    3  C   UNK N   1      20.445  17.285   4.172  0.00  0.00     0.018 A 
HETATM    4  C   UNK N   1      20.955  16.987   2.785  0.00  0.00     0.018 A 
HETATM    5  C   UNK N   1      21.382  19.537   3.163  0.00  0.00     0.131 A 
HETATM    6  C   UNK N   1      23.032  17.586   4.075  0.00  0.00    -0.060 A 
HETATM    7  C   UNK N   1      24.078  18.417   3.932  0.00  0.00    -0.010 A 
HETATM    8  C   UNK N   1      22.654  20.357   3.054  0.00  0.00     0.195 A 
HETATM    9  C   UNK N   1      20.686  19.595   1.803  0.00  0.00     0.056 C 
HETATM   10  C   UNK N   1      23.946  19.764   3.421  0.00  0.00     0.025 A 
HETATM   11  C   UNK N   1      23.218  16.217   4.664  0.00  0.00     0.045 C 
HETATM   12  C   UNK N   1      25.500  18.240   4.254  0.00  0.00    -0.017 A 
HETATM   13  C   UNK N   1      25.137  20.362   3.419  0.00  0.00     0.023 A 
HETATM   14  C   UNK N   1      26.120  19.393   3.943  0.00  0.00    -0.052 A 
HETATM   15  C   UNK N   1      27.572  19.703   4.105  0.00  0.00     0.049 C 
ENDROOT
BRANCH   5  16
HETATM   16  O   UNK N   1      20.555  20.160   4.099  0.00  0.00    -0.381 OA
HETATM   17  H   UNK N   1      19.803  20.703   4.382  0.00  0.00     0.211 HD
ENDBRANCH   5  16
BRANCH  12  18
HETATM   18  C   UNK N   1      26.112  16.987   4.835  0.00  0.00     0.204 C 
BRANCH  18  19
HETATM   19  O   UNK N   1      26.297  17.062   6.217  0.00  0.00    -0.396 OA
HETATM   20  H   UNK N   1      26.062  16.308   6.779  0.00  0.00     0.209 HD
ENDBRANCH  18  19
ENDBRANCH  12  18
TORSDOF 3
ENDMDL
MODEL 2
REMARK VINA RESULT:      -6.4      5.949      8.003
REMARK  3 active torsions:
REMARK  status: ('A' for Active; 'I' for Inactive)
REMARK    1  A    between atoms: C_7  and  O_1 
REMARK    2  A    between atoms: O_3  and  C_17 
REMARK    3  A    between atoms: C_14  and  C_17 
ROOT
HETATM    1  O   UNK N   1      19.172  14.265   9.516  0.00  0.00    -0.289 OA
HETATM    2  C   UNK N   1      22.129  14.549   7.276  0.00  0.00     0.022 A 
HETATM    3  C   UNK N   1      22.455  14.653   5.790  0.00  0.00     0.018 A 
HETATM    4  C   UNK N   1      22.783  15.809   6.702  0.00  0.00     0.018 A 
HETATM    5  C   UNK N   1      20.615  14.728   7.682  0.00  0.00     0.131 A 
HETATM    6  C   UNK N   1      23.112  13.781   8.156  0.00  0.00    -0.060 A 
HETATM    7  C   UNK N   1      22.712  13.358   9.367  0.00  0.00    -0.010 A 
HETATM    8  C   UNK N   1      20.311  14.200   9.071  0.00  0.00     0.195 A 
HETATM    9  C   UNK N   1      20.175  16.192   7.646  0.00  0.00     0.056 C 
HETATM   10  C   UNK N   1      21.367  13.558   9.862  0.00  0.00     0.025 A 
HETATM   11  C   UNK N   1      24.504  13.497   7.670  0.00  0.00     0.045 C 
HETATM   12  C   UNK N   1      23.426  12.616  10.414  0.00  0.00    -0.017 A 
HETATM   13  C   UNK N   1      21.248  13.011  11.072  0.00  0.00     0.023 A 
HETATM   14  C   UNK N   1      22.555  12.420  11.420  0.00  0.00    -0.052 A 
HETATM   15  C   UNK N   1      22.814  11.700  12.703  0.00  0.00     0.049 C 
ENDROOT
BRANCH   5  16
HETATM   16  O   UNK N   1      19.827  14.018   6.775  0.00  0.00    -0.381 OA
HETATM   17  H   UNK N   1      19.025  13.558   6.481  0.00  0.00     0.211 HD
ENDBRANCH   5  16
BRANCH  12  18
HETATM   18  C   UNK N   1      24.866  12.166  10.334  0.00  0.00     0.204 C 
BRANCH  18  19
HETATM   19  O   UNK N   1      25.737  13.004  11.033  0.00  0.00    -0.396 OA
HETATM   20  H   UNK N   1      25.969  13.873  10.671  0.00  0.00     0.209 HD
ENDBRANCH  18  19
ENDBRANCH  12  18
TORSDOF 3
ENDMDL
MODEL 3
REMARK VINA RESULT:      -6.2      5.824      9.844
REMARK  3 active torsions:
REMARK  status: ('A' for Active; 'I' for Inactive)
REMARK    1  A    between atoms: C_7  and  O_1 
REMARK    2  A    between atoms: O_3  and  C_17 
REMARK    3  A    between atoms: C_14  and  C_17 
ROOT
HETATM    1  O   UNK N   1      33.409  17.153   8.902  0.00  0.00    -0.289 OA
HETATM    2  C   UNK N   1      32.538  16.854   5.297  0.00  0.00     0.022 A 
HETATM    3  C   UNK N   1      33.153  17.123   3.927  0.00  0.00     0.018 A 
HETATM    4  C   UNK N   1      32.832  15.705   4.328  0.00  0.00     0.018 A 
HETATM    5  C   UNK N   1      33.513  16.928   6.536  0.00  0.00     0.131 A 
HETATM    6  C   UNK N   1      31.034  17.068   5.443  0.00  0.00    -0.060 A 
HETATM    7  C   UNK N   1      30.509  17.193   6.674  0.00  0.00    -0.010 A 
HETATM    8  C   UNK N   1      32.779  17.075   7.855  0.00  0.00     0.195 A 
HETATM    9  C   UNK N   1      34.404  15.690   6.646  0.00  0.00     0.056 C 
HETATM   10  C   UNK N   1      31.315  17.181   7.875  0.00  0.00     0.025 A 
HETATM   11  C   UNK N   1      30.156  17.143   4.227  0.00  0.00     0.045 C 
HETATM   12  C   UNK N   1      29.123  17.397   7.114  0.00  0.00    -0.017 A 
HETATM   13  C   UNK N   1      30.534  17.354   8.942  0.00  0.00     0.023 A 
HETATM   14  C   UNK N   1      29.146  17.486   8.456  0.00  0.00    -0.052 A 
HETATM   15  C   UNK N   1      27.978  17.707   9.361  0.00  0.00     0.049 C 
ENDROOT
BRANCH   5  16
HETATM   16  O   UNK N   1      34.339  18.043   6.383  0.00  0.00    -0.381 OA
HETATM   17  H   UNK N   1      34.959  18.724   6.686  0.00  0.00     0.211 HD
ENDBRANCH   5  16
BRANCH  12  18
HETATM   18  C   UNK N   1      27.924  17.494   6.200  0.00  0.00     0.204 C 
BRANCH  18  19
HETATM   19  O   UNK N   1      27.517  18.810   5.975  0.00  0.00    -0.396 OA
HETATM   20  H   UNK N   1      27.955  19.344   5.294  0.00  0.00     0.209 HD
ENDBRANCH  18  19
ENDBRANCH  12  18
TORSDOF 3
ENDMDL
MODEL 4
REMARK VINA RESULT:      -6.1      4.944      8.164
REMARK  3 active torsions:
REMARK  status: ('A' for Active; 'I' for Inactive)
REMARK    1  A    between atoms: C_7  and  O_1 
REMARK    2  A    between atoms: O_3  and  C_17 
REMARK    3  A    between atoms: C_14  and  C_17 
ROOT
HETATM    1  O   UNK N   1      21.410  12.722  10.808  0.00  0.00    -0.289 OA
HETATM    2  C   UNK N   1      23.689  13.633   8.013  0.00  0.00     0.022 A 
HETATM    3  C   UNK N   1      25.173  13.588   7.662  0.00  0.00     0.018 A 
HETATM    4  C   UNK N   1      24.199  12.758   6.863  0.00  0.00     0.018 A 
HETATM    5  C   UNK N   1      23.242  12.829   9.295  0.00  0.00     0.131 A 
HETATM    6  C   UNK N   1      22.879  14.812   7.479  0.00  0.00    -0.060 A 
HETATM    7  C   UNK N   1      21.688  15.090   8.036  0.00  0.00    -0.010 A 
HETATM    8  C   UNK N   1      21.882  13.256   9.813  0.00  0.00     0.195 A 
HETATM    9  C   UNK N   1      23.179  11.322   9.040  0.00  0.00     0.056 C 
HETATM   10  C   UNK N   1      21.153  14.348   9.157  0.00  0.00     0.025 A 
HETATM   11  C   UNK N   1      23.411  15.650   6.353  0.00  0.00     0.045 C 
HETATM   12  C   UNK N   1      20.704  16.138   7.733  0.00  0.00    -0.017 A 
HETATM   13  C   UNK N   1      19.977  14.863   9.516  0.00  0.00     0.023 A 
HETATM   14  C   UNK N   1      19.694  15.993   8.609  0.00  0.00    -0.052 A 
HETATM   15  C   UNK N   1      18.463  16.834   8.706  0.00  0.00     0.049 C 
ENDROOT
BRANCH   5  16
HETATM   16  O   UNK N   1      24.174  13.057  10.308  0.00  0.00    -0.381 OA
HETATM   17  H   UNK N   1      24.906  12.817  10.897  0.00  0.00     0.211 HD
ENDBRANCH   5  16
BRANCH  12  18
HETATM   18  C   UNK N   1      20.842  17.172   6.640  0.00  0.00     0.204 C 
BRANCH  18  19
HETATM   19  O   UNK N   1      21.155  18.441   7.130  0.00  0.00    -0.396 OA
HETATM   20  H   UNK N   1      21.986  18.584   7.610  0.00  0.00     0.209 HD
ENDBRANCH  18  19
ENDBRANCH  12  18
TORSDOF 3
ENDMDL
MODEL 5
REMARK VINA RESULT:      -6.0      6.231      8.392
REMARK  3 active torsions:
REMARK  status: ('A' for Active; 'I' for Inactive)
REMARK    1  A    between atoms: C_7  and  O_1 
REMARK    2  A    between atoms: O_3  and  C_17 
REMARK    3  A    between atoms: C_14  and  C_17 
ROOT
HETATM    1  O   UNK N   1      28.042  17.624   4.974  0.00  0.00    -0.289 OA
HETATM    2  C   UNK N   1      29.823  17.804   8.236  0.00  0.00     0.022 A 
HETATM    3  C   UNK N   1      29.729  18.533   9.572  0.00  0.00     0.018 A 
HETATM    4  C   UNK N   1      29.538  17.038   9.531  0.00  0.00     0.018 A 
HETATM    5  C   UNK N   1      28.582  17.936   7.270  0.00  0.00     0.131 A 
HETATM    6  C   UNK N   1      31.220  17.481   7.711  0.00  0.00    -0.060 A 
HETATM    7  C   UNK N   1      31.374  17.173   6.412  0.00  0.00    -0.010 A 
HETATM    8  C   UNK N   1      28.908  17.562   5.837  0.00  0.00     0.195 A 
HETATM    9  C   UNK N   1      27.408  17.060   7.713  0.00  0.00     0.056 C 
HETATM   10  C   UNK N   1      30.277  17.178   5.469  0.00  0.00     0.025 A 
HETATM   11  C   UNK N   1      32.403  17.514   8.634  0.00  0.00     0.045 C 
HETATM   12  C   UNK N   1      32.573  16.820   5.641  0.00  0.00    -0.017 A 
HETATM   13  C   UNK N   1      30.727  16.865   4.254  0.00  0.00     0.023 A 
HETATM   14  C   UNK N   1      32.181  16.634   4.368  0.00  0.00    -0.052 A 
HETATM   15  C   UNK N   1      33.047  16.273   3.206  0.00  0.00     0.049 C 
ENDROOT
BRANCH   5  16
HETATM   16  O   UNK N   1      28.156  19.265   7.276  0.00  0.00    -0.381 OA
HETATM   17  H   UNK N   1      27.918  20.112   6.868  0.00  0.00     0.211 HD
ENDBRANCH   5  16
BRANCH  12  18
HETATM   18  C   UNK N   1      33.969  16.706   6.207  0.00  0.00     0.204 C 
BRANCH  18  19
HETATM   19  O   UNK N   1      34.574  17.947   6.414  0.00  0.00    -0.396 OA
HETATM   20  H   UNK N   1      35.192  18.068   7.152  0.00  0.00     0.209 HD
ENDBRANCH  18  19
ENDBRANCH  12  18
TORSDOF 3
ENDMDL
MODEL 6
REMARK VINA RESULT:      -5.9      5.592      9.784
REMARK  3 active torsions:
REMARK  status: ('A' for Active; 'I' for Inactive)
REMARK    1  A    between atoms: C_7  and  O_1 
REMARK    2  A    between atoms: O_3  and  C_17 
REMARK    3  A    between atoms: C_14  and  C_17 
ROOT
HETATM    1  O   UNK N   1      31.607  14.498   5.173  0.00  0.00    -0.289 OA
HETATM    2  C   UNK N   1      32.560  17.020   7.737  0.00  0.00     0.022 A 
HETATM    3  C   UNK N   1      33.601  17.226   8.832  0.00  0.00     0.018 A 
HETATM    4  C   UNK N   1      33.589  18.149   7.639  0.00  0.00     0.018 A 
HETATM    5  C   UNK N   1      32.810  15.821   6.741  0.00  0.00     0.131 A 
HETATM    6  C   UNK N   1      31.162  17.580   7.987  0.00  0.00    -0.060 A 
HETATM    7  C   UNK N   1      30.136  17.130   7.243  0.00  0.00    -0.010 A 
HETATM    8  C   UNK N   1      31.563  15.420   5.978  0.00  0.00     0.195 A 
HETATM    9  C   UNK N   1      33.892  16.143   5.709  0.00  0.00     0.056 C 
HETATM   10  C   UNK N   1      30.288  16.098   6.241  0.00  0.00     0.025 A 
HETATM   11  C   UNK N   1      30.937  18.613   9.052  0.00  0.00     0.045 C 
HETATM   12  C   UNK N   1      28.711  17.483   7.253  0.00  0.00    -0.017 A 
HETATM   13  C   UNK N   1      29.105  15.833   5.686  0.00  0.00     0.023 A 
HETATM   14  C   UNK N   1      28.109  16.716   6.327  0.00  0.00    -0.052 A 
HETATM   15  C   UNK N   1      26.657  16.703   5.977  0.00  0.00     0.049 C 
ENDROOT
BRANCH   5  16
HETATM   16  O   UNK N   1      33.232  14.714   7.479  0.00  0.00    -0.381 OA
HETATM   17  H   UNK N   1      33.794  14.246   8.116  0.00  0.00     0.211 HD
ENDBRANCH   5  16
BRANCH  12  18
HETATM   18  C   UNK N   1      28.076  18.513   8.157  0.00  0.00     0.204 C 
BRANCH  18  19
HETATM   19  O   UNK N   1      27.475  17.950   9.285  0.00  0.00    -0.396 OA
HETATM   20  H   UNK N   1      26.525  17.759   9.283  0.00  0.00     0.209 HD
ENDBRANCH  18  19
ENDBRANCH  12  18
TORSDOF 3
ENDMDL
MODEL 7
REMARK VINA RESULT:      -5.9      6.976      8.930
REMARK  3 active torsions:
REMARK  status: ('A' for Active; 'I' for Inactive)
REMARK    1  A    between atoms: C_7  and  O_1 
REMARK    2  A    between atoms: O_3  and  C_17 
REMARK    3  A    between atoms: C_14  and  C_17 
ROOT
HETATM    1  O   UNK N   1      28.162  15.891   5.035  0.00  0.00    -0.289 OA
HETATM    2  C   UNK N   1      31.767  16.247   4.188  0.00  0.00     0.022 A 
HETATM    3  C   UNK N   1      32.831  15.571   3.329  0.00  0.00     0.018 A 
HETATM    4  C   UNK N   1      32.410  16.984   3.009  0.00  0.00     0.018 A 
HETATM    5  C   UNK N   1      30.273  15.802   3.942  0.00  0.00     0.131 A 
HETATM    6  C   UNK N   1      32.219  16.849   5.516  0.00  0.00    -0.060 A 
HETATM    7  C   UNK N   1      31.297  17.130   6.453  0.00  0.00    -0.010 A 
HETATM    8  C   UNK N   1      29.351  16.179   5.085  0.00  0.00     0.195 A 
HETATM    9  C   UNK N   1      29.690  16.413   2.666  0.00  0.00     0.056 C 
HETATM   10  C   UNK N   1      29.890  16.842   6.279  0.00  0.00     0.025 A 
HETATM   11  C   UNK N   1      33.674  17.118   5.771  0.00  0.00     0.045 C 
HETATM   12  C   UNK N   1      31.433  17.708   7.796  0.00  0.00    -0.017 A 
HETATM   13  C   UNK N   1      29.220  17.196   7.376  0.00  0.00     0.023 A 
HETATM   14  C   UNK N   1      30.200  17.748   8.332  0.00  0.00    -0.052 A 
HETATM   15  C   UNK N   1      29.829  18.244   9.691  0.00  0.00     0.049 C 
ENDROOT
BRANCH   5  16
HETATM   16  O   UNK N   1      30.241  14.413   3.810  0.00  0.00    -0.381 OA
HETATM   17  H   UNK N   1      30.619  13.541   3.620  0.00  0.00     0.211 HD
ENDBRANCH   5  16
BRANCH  12  18
HETATM   18  C   UNK N   1      32.732  18.152   8.425  0.00  0.00     0.204 C 
BRANCH  18  19
HETATM   19  O   UNK N   1      33.265  17.203   9.299  0.00  0.00    -0.396 OA
HETATM   20  H   UNK N   1      34.145  17.339   9.684  0.00  0.00     0.209 HD
ENDBRANCH  18  19
ENDBRANCH  12  18
TORSDOF 3
ENDMDL
MODEL 8
REMARK VINA RESULT:      -5.9     16.889     18.625
REMARK  3 active torsions:
REMARK  status: ('A' for Active; 'I' for Inactive)
REMARK    1  A    between atoms: C_7  and  O_1 
REMARK    2  A    between atoms: O_3  and  C_17 
REMARK    3  A    between atoms: C_14  and  C_17 
ROOT
HETATM    1  O   UNK N   1      35.107  13.788  13.942  0.00  0.00    -0.289 OA
HETATM    2  C   UNK N   1      35.549  10.094  13.947  0.00  0.00     0.022 A 
HETATM    3  C   UNK N   1      35.238   8.886  13.070  0.00  0.00     0.018 A 
HETATM    4  C   UNK N   1      36.676   9.259  13.332  0.00  0.00     0.018 A 
HETATM    5  C   UNK N   1      35.355  11.515  13.288  0.00  0.00     0.131 A 
HETATM    6  C   UNK N   1      35.490   9.894  15.459  0.00  0.00    -0.060 A 
HETATM    7  C   UNK N   1      35.401  10.973  16.257  0.00  0.00    -0.010 A 
HETATM    8  C   UNK N   1      35.265  12.631  14.310  0.00  0.00     0.195 A 
HETATM    9  C   UNK N   1      36.493  11.867  12.328  0.00  0.00     0.056 C 
HETATM   10  C   UNK N   1      35.312  12.322  15.744  0.00  0.00     0.025 A 
HETATM   11  C   UNK N   1      35.524   8.512  16.044  0.00  0.00     0.045 C 
HETATM   12  C   UNK N   1      35.335  11.086  17.719  0.00  0.00    -0.017 A 
HETATM   13  C   UNK N   1      35.204  13.182  16.758  0.00  0.00     0.023 A 
HETATM   14  C   UNK N   1      35.224  12.396  18.007  0.00  0.00    -0.052 A 
HETATM   15  C   UNK N   1      35.111  13.010  19.364  0.00  0.00     0.049 C 
ENDROOT
BRANCH   5  16
HETATM   16  O   UNK N   1      34.164  11.507  12.561  0.00  0.00    -0.381 OA
HETATM   17  H   UNK N   1      33.221  11.324  12.423  0.00  0.00     0.211 HD
ENDBRANCH   5  16
BRANCH  12  18
HETATM   18  C   UNK N   1      35.377   9.926  18.686  0.00  0.00     0.204 C 
BRANCH  18  19
HETATM   19  O   UNK N   1      34.111   9.555  19.144  0.00  0.00    -0.396 OA
HETATM   20  H   UNK N   1      33.416  10.223  19.242  0.00  0.00     0.209 HD
ENDBRANCH  18  19
ENDBRANCH  12  18
TORSDOF 3
ENDMDL
MODEL 9
REMARK VINA RESULT:      -5.8     17.434     20.161
REMARK  3 active torsions:
REMARK  status: ('A' for Active; 'I' for Inactive)
REMARK    1  A    between atoms: C_7  and  O_1 
REMARK    2  A    between atoms: O_3  and  C_17 
REMARK    3  A    between atoms: C_14  and  C_17 
ROOT
HETATM    1  O   UNK N   1      37.917   9.099  15.047  0.00  0.00    -0.289 OA
HETATM    2  C   UNK N   1      36.192  12.393  15.173  0.00  0.00     0.022 A 
HETATM    3  C   UNK N   1      36.270  13.770  14.522  0.00  0.00     0.018 A 
HETATM    4  C   UNK N   1      35.049  12.914  14.297  0.00  0.00     0.018 A 
HETATM    5  C   UNK N   1      37.053  11.248  14.508  0.00  0.00     0.131 A 
HETATM    6  C   UNK N   1      35.770  12.334  16.638  0.00  0.00    -0.060 A 
HETATM    7  C   UNK N   1      36.024  11.220  17.347  0.00  0.00    -0.010 A 
HETATM    8  C   UNK N   1      37.262  10.060  15.428  0.00  0.00     0.195 A 
HETATM    9  C   UNK N   1      36.418  10.721  13.220  0.00  0.00     0.056 C 
HETATM   10  C   UNK N   1      36.726  10.083  16.794  0.00  0.00     0.025 A 
HETATM   11  C   UNK N   1      35.086  13.507  17.279  0.00  0.00     0.045 C 
HETATM   12  C   UNK N   1      35.734  10.881  18.745  0.00  0.00    -0.017 A 
HETATM   13  C   UNK N   1      36.861   9.141  17.728  0.00  0.00     0.023 A 
HETATM   14  C   UNK N   1      36.227   9.648  18.961  0.00  0.00    -0.052 A 
HETATM   15  C   UNK N   1      36.186   8.876  20.239  0.00  0.00     0.049 C 
ENDROOT
BRANCH   5  16
HETATM   16  O   UNK N   1      38.309  11.766  14.191  0.00  0.00    -0.381 OA
HETATM   17  H   UNK N   1      38.920  12.388  13.765  0.00  0.00     0.211 HD
ENDBRANCH   5  16
BRANCH  12  18
HETATM   18  C   UNK N   1      35.021  11.779  19.729  0.00  0.00     0.204 C 
BRANCH  18  19
HETATM   19  O   UNK N   1      35.897  12.556  20.489  0.00  0.00    -0.396 OA
HETATM   20  H   UNK N   1      36.844  12.562  20.281  0.00  0.00     0.209 HD
ENDBRANCH  18  19
ENDBRANCH  12  18
TORSDOF 3
ENDMDL
