MODEL 1
REMARK VINA RESULT:      -8.4      0.000      0.000
REMARK  7 active torsions:
REMARK  status: ('A' for Active; 'I' for Inactive)
REMARK    1  A    between atoms: C_15  and  O_3 
REMARK    2  A    between atoms: C_17  and  O_4 
REMARK    3  A    between atoms: C_16  and  N_6 
REMARK       I    between atoms: N_9  and  C_19 
REMARK    4  A    between atoms: N_12  and  C_23 
REMARK    5  A    between atoms: N_12  and  C_26 
REMARK    6  A    between atoms: C_18  and  C_19 
REMARK    7  A    between atoms: C_26  and  C_27 
ROOT
HETATM    1  N   UNK N   1      31.380  16.708   7.352  0.00  0.00    -0.297 N 
HETATM    2  N   UNK N   1      29.671  17.151   5.969  0.00  0.00    -0.346 N 
ATOM      3  HN  UNK N   1      29.080  17.195   5.139  1.00  0.00     0.167 HD
HETATM    4  N   UNK N   1      30.406  17.723   9.336  0.00  0.00    -0.336 N 
ATOM      5  HN  UNK N   1      31.192  17.508   9.949  1.00  0.00     0.168 HD
HETATM    6  N   UNK N   1      28.304  18.767   8.944  0.00  0.00    -0.337 N 
ATOM      7  HN  UNK N   1      27.514  19.313   9.291  1.00  0.00     0.168 HD
HETATM    8  C   UNK N   1      30.399  17.315   8.039  0.00  0.00     0.142 A 
HETATM    9  C   UNK N   1      30.914  16.614   6.081  0.00  0.00     0.188 A 
HETATM   10  C   UNK N   1      29.396  17.610   7.206  0.00  0.00     0.122 A 
HETATM   11  C   UNK N   1      28.336  18.375   7.634  0.00  0.00     0.133 A 
HETATM   12  C   UNK N   1      29.328  18.431   9.796  0.00  0.00     0.183 A 
ENDROOT
BRANCH   1  13
HETATM   13  C   UNK N   1      32.783  16.580   7.730  0.00  0.00     0.263 C 
HETATM   14  O   UNK N   1      33.001  16.248   9.073  0.00  0.00    -0.346 OA
HETATM   15  C   UNK N   1      34.339  16.673   9.309  0.00  0.00     0.247 C 
HETATM   16  C   UNK N   1      34.764  17.620   8.193  0.00  0.00     0.189 C 
HETATM   17  C   UNK N   1      33.498  17.876   7.491  0.00  0.00     0.199 C 
BRANCH  15  18
HETATM   18  C   UNK N   1      35.387  15.569   9.383  0.00  0.00     0.249 C 
HETATM   19  O   UNK N   1      35.693  15.008   8.343  0.00  0.00    -0.271 OA
HETATM   20  N   UNK N   1      35.982  15.154  10.534  0.00  0.00    -0.363 N 
HETATM   21  C   UNK N   1      35.725  15.698  11.842  0.00  0.00     0.149 C 
HETATM   22  H   UNK N   1      36.640  14.425  10.468  0.00  0.00     0.162 HD
ENDBRANCH  15  18
BRANCH  16  23
HETATM   23  O   UNK N   1      35.270  18.811   8.710  0.00  0.00    -0.390 OA
HETATM   24  H   UNK N   1      35.506  18.946   9.641  0.00  0.00     0.210 HD
ENDBRANCH  16  23
BRANCH  17  25
HETATM   25  O   UNK N   1      33.691  18.105   6.129  0.00  0.00    -0.388 OA
HETATM   26  H   UNK N   1      33.760  18.574   5.283  0.00  0.00     0.210 HD
ENDBRANCH  17  25
ENDBRANCH   1  13
BRANCH  11  27
HETATM   27  N   UNK N   1      27.379  18.809   6.706  0.00  0.00    -0.370 N 
HETATM   28  H   UNK N   1      26.481  18.407   6.738  0.00  0.00     0.161 HD
BRANCH  27  29
HETATM   29  C   UNK N   1      27.642  19.807   5.714  0.00  0.00     0.160 C 
BRANCH  29  30
HETATM   30  C   UNK N   1      26.496  19.793   4.756  0.00  0.00    -0.039 A 
HETATM   31  C   UNK N   1      25.336  19.092   5.077  0.00  0.00     0.027 A 
HETATM   32  C   UNK N   1      24.242  19.121   4.207  0.00  0.00     0.007 A 
HETATM   33  I   UNK N   1      22.491  18.077   4.696  0.00  0.00    -0.045 I 
HETATM   34  C   UNK N   1      24.307  19.853   3.016  0.00  0.00     0.018 A 
HETATM   35  C   UNK N   1      25.467  20.555   2.689  0.00  0.00     0.002 A 
HETATM   36  C   UNK N   1      26.555  20.526   3.555  0.00  0.00     0.009 A 
ENDBRANCH  29  30
ENDBRANCH  27  29
ENDBRANCH  11  27
TORSDOF 7
ENDMDL
MODEL 2
REMARK VINA RESULT:      -8.0      6.900     12.820
REMARK  7 active torsions:
REMARK  status: ('A' for Active; 'I' for Inactive)
REMARK    1  A    between atoms: C_15  and  O_3 
REMARK    2  A    between atoms: C_17  and  O_4 
REMARK    3  A    between atoms: C_16  and  N_6 
REMARK       I    between atoms: N_9  and  C_19 
REMARK    4  A    between atoms: N_12  and  C_23 
REMARK    5  A    between atoms: N_12  and  C_26 
REMARK    6  A    between atoms: C_18  and  C_19 
REMARK    7  A    between atoms: C_26  and  C_27 
ROOT
HETATM    1  N   UNK N   1      35.644  13.754  13.376  0.00  0.00    -0.297 N 
HETATM    2  N   UNK N   1      36.454  12.797  15.235  0.00  0.00    -0.346 N 
ATOM      3  HN  UNK N   1      36.950  12.649  16.114  1.00  0.00     0.167 HD
HETATM    4  N   UNK N   1      34.352  11.840  12.615  0.00  0.00    -0.336 N 
ATOM      5  HN  UNK N   1      33.991  12.295  11.776  1.00  0.00     0.168 HD
HETATM    6  N   UNK N   1      34.596   9.912  13.989  0.00  0.00    -0.337 N 
ATOM      7  HN  UNK N   1      34.385   8.931  14.173  1.00  0.00     0.168 HD
HETATM    8  C   UNK N   1      35.142  12.514  13.492  0.00  0.00     0.142 A 
HETATM    9  C   UNK N   1      36.448  13.911  14.458  0.00  0.00     0.188 A 
HETATM   10  C   UNK N   1      35.655  11.932  14.581  0.00  0.00     0.122 A 
HETATM   11  C   UNK N   1      35.417  10.602  14.837  0.00  0.00     0.133 A 
HETATM   12  C   UNK N   1      34.054  10.531  12.889  0.00  0.00     0.183 A 
ENDROOT
BRANCH   1  13
HETATM   13  C   UNK N   1      35.701  14.583  12.176  0.00  0.00     0.263 C 
HETATM   14  O   UNK N   1      34.453  14.926  11.641  0.00  0.00    -0.346 OA
HETATM   15  C   UNK N   1      34.750  15.255  10.289  0.00  0.00     0.247 C 
HETATM   16  C   UNK N   1      36.131  14.717   9.937  0.00  0.00     0.189 C 
HETATM   17  C   UNK N   1      36.447  13.865  11.092  0.00  0.00     0.199 C 
BRANCH  15  18
HETATM   18  C   UNK N   1      34.748  16.741   9.948  0.00  0.00     0.249 C 
HETATM   19  O   UNK N   1      35.665  17.422  10.379  0.00  0.00    -0.271 OA
HETATM   20  N   UNK N   1      33.779  17.358   9.218  0.00  0.00    -0.363 N 
HETATM   21  C   UNK N   1      32.628  16.706   8.652  0.00  0.00     0.149 C 
HETATM   22  H   UNK N   1      33.873  18.326   9.065  0.00  0.00     0.162 HD
ENDBRANCH  15  18
BRANCH  16  23
HETATM   23  O   UNK N   1      36.091  13.948   8.775  0.00  0.00    -0.390 OA
HETATM   24  H   UNK N   1      36.530  13.090   8.673  0.00  0.00     0.210 HD
ENDBRANCH  16  23
BRANCH  17  25
HETATM   25  O   UNK N   1      37.815  13.825  11.357  0.00  0.00    -0.388 OA
HETATM   26  H   UNK N   1      38.753  13.592  11.281  0.00  0.00     0.210 HD
ENDBRANCH  17  25
ENDBRANCH   1  13
BRANCH  11  27
HETATM   27  N   UNK N   1      36.092   9.971  15.892  0.00  0.00    -0.370 N 
HETATM   28  H   UNK N   1      37.006  10.266  16.105  0.00  0.00     0.161 HD
BRANCH  27  29
HETATM   29  C   UNK N   1      35.517   8.919  16.675  0.00  0.00     0.160 C 
BRANCH  29  30
HETATM   30  C   UNK N   1      35.179   9.496  18.011  0.00  0.00    -0.039 A 
HETATM   31  C   UNK N   1      34.111   8.975  18.739  0.00  0.00     0.027 A 
HETATM   32  C   UNK N   1      33.826   9.477  20.012  0.00  0.00     0.007 A 
HETATM   33  I   UNK N   1      32.227   8.684  21.112  0.00  0.00    -0.045 I 
HETATM   34  C   UNK N   1      34.609  10.499  20.559  0.00  0.00     0.018 A 
HETATM   35  C   UNK N   1      35.678  11.026  19.834  0.00  0.00     0.002 A 
HETATM   36  C   UNK N   1      35.962  10.526  18.567  0.00  0.00     0.009 A 
ENDBRANCH  29  30
ENDBRANCH  27  29
ENDBRANCH  11  27
TORSDOF 7
ENDMDL
MODEL 3
REMARK VINA RESULT:      -7.9      4.248      6.768
REMARK  7 active torsions:
REMARK  status: ('A' for Active; 'I' for Inactive)
REMARK    1  A    between atoms: C_15  and  O_3 
REMARK    2  A    between atoms: C_17  and  O_4 
REMARK    3  A    between atoms: C_16  and  N_6 
REMARK       I    between atoms: N_9  and  C_19 
REMARK    4  A    between atoms: N_12  and  C_23 
REMARK    5  A    between atoms: N_12  and  C_26 
REMARK    6  A    between atoms: C_18  and  C_19 
REMARK    7  A    between atoms: C_26  and  C_27 
ROOT
HETATM    1  N   UNK N   1      35.309  14.545  11.714  0.00  0.00    -0.297 N 
HETATM    2  N   UNK N   1      34.918  16.617  10.949  0.00  0.00    -0.346 N 
ATOM      3  HN  UNK N   1      34.936  17.630  10.839  1.00  0.00     0.167 HD
HETATM    4  N   UNK N   1      33.978  13.375  10.048  0.00  0.00    -0.336 N 
ATOM      5  HN  UNK N   1      34.172  12.441  10.410  1.00  0.00     0.168 HD
HETATM    6  N   UNK N   1      32.837  14.824   8.544  0.00  0.00    -0.337 N 
ATOM      7  HN  UNK N   1      32.193  14.950   7.762  1.00  0.00     0.168 HD
HETATM    8  C   UNK N   1      34.547  14.475  10.611  0.00  0.00     0.142 A 
HETATM    9  C   UNK N   1      35.528  15.870  11.906  0.00  0.00     0.188 A 
HETATM   10  C   UNK N   1      34.285  15.712  10.177  0.00  0.00     0.122 A 
HETATM   11  C   UNK N   1      33.394  15.916   9.149  0.00  0.00     0.133 A 
HETATM   12  C   UNK N   1      33.137  13.557   8.982  0.00  0.00     0.183 A 
ENDROOT
BRANCH   1  13
HETATM   13  C   UNK N   1      35.493  13.520  12.736  0.00  0.00     0.263 C 
HETATM   14  O   UNK N   1      35.505  13.999  14.052  0.00  0.00    -0.346 OA
HETATM   15  C   UNK N   1      36.179  12.974  14.773  0.00  0.00     0.247 C 
HETATM   16  C   UNK N   1      36.911  12.071  13.788  0.00  0.00     0.189 C 
HETATM   17  C   UNK N   1      36.800  12.817  12.527  0.00  0.00     0.199 C 
BRANCH  15  18
HETATM   18  C   UNK N   1      35.300  12.076  15.636  0.00  0.00     0.249 C 
HETATM   19  O   UNK N   1      34.932  11.015  15.157  0.00  0.00    -0.271 OA
HETATM   20  N   UNK N   1      34.881  12.393  16.892  0.00  0.00    -0.363 N 
HETATM   21  C   UNK N   1      35.211  13.605  17.593  0.00  0.00     0.149 C 
HETATM   22  H   UNK N   1      34.307  11.742  17.356  0.00  0.00     0.162 HD
ENDBRANCH  15  18
BRANCH  16  23
HETATM   23  O   UNK N   1      38.252  11.927  14.140  0.00  0.00    -0.390 OA
HETATM   24  H   UNK N   1      38.858  12.667  14.298  0.00  0.00     0.210 HD
ENDBRANCH  16  23
BRANCH  17  25
HETATM   25  O   UNK N   1      36.751  11.971  11.419  0.00  0.00    -0.388 OA
HETATM   26  H   UNK N   1      37.030  11.331  10.747  0.00  0.00     0.210 HD
ENDBRANCH  17  25
ENDBRANCH   1  13
BRANCH  11  27
HETATM   27  N   UNK N   1      33.012  17.224   8.818  0.00  0.00    -0.370 N 
HETATM   28  H   UNK N   1      33.220  17.947   9.451  0.00  0.00     0.161 HD
BRANCH  27  29
HETATM   29  C   UNK N   1      32.332  17.559   7.603  0.00  0.00     0.160 C 
BRANCH  29  30
HETATM   30  C   UNK N   1      30.881  17.692   7.930  0.00  0.00    -0.039 A 
HETATM   31  C   UNK N   1      29.928  17.106   7.100  0.00  0.00     0.027 A 
HETATM   32  C   UNK N   1      28.572  17.184   7.433  0.00  0.00     0.007 A 
HETATM   33  I   UNK N   1      27.139  16.290   6.190  0.00  0.00    -0.045 I 
HETATM   34  C   UNK N   1      28.168  17.846   8.597  0.00  0.00     0.018 A 
HETATM   35  C   UNK N   1      29.118  18.437   9.431  0.00  0.00     0.002 A 
HETATM   36  C   UNK N   1      30.467  18.359   9.099  0.00  0.00     0.009 A 
ENDBRANCH  29  30
ENDBRANCH  27  29
ENDBRANCH  11  27
TORSDOF 7
ENDMDL
MODEL 4
REMARK VINA RESULT:      -7.8      4.680      7.128
REMARK  7 active torsions:
REMARK  status: ('A' for Active; 'I' for Inactive)
REMARK    1  A    between atoms: C_15  and  O_3 
REMARK    2  A    between atoms: C_17  and  O_4 
REMARK    3  A    between atoms: C_16  and  N_6 
REMARK       I    between atoms: N_9  and  C_19 
REMARK    4  A    between atoms: N_12  and  C_23 
REMARK    5  A    between atoms: N_12  and  C_26 
REMARK    6  A    between atoms: C_18  and  C_19 
REMARK    7  A    between atoms: C_26  and  C_27 
ROOT
HETATM    1  N   UNK N   1      35.379  14.343  11.819  0.00  0.00    -0.297 N 
HETATM    2  N   UNK N   1      34.919  16.379  10.998  0.00  0.00    -0.346 N 
ATOM      3  HN  UNK N   1      34.902  17.390  10.863  1.00  0.00     0.167 HD
HETATM    4  N   UNK N   1      34.100  13.084  10.178  0.00  0.00    -0.336 N 
ATOM      5  HN  UNK N   1      34.324  12.167  10.564  1.00  0.00     0.168 HD
HETATM    6  N   UNK N   1      32.916  14.452   8.632  0.00  0.00    -0.337 N 
ATOM      7  HN  UNK N   1      32.272  14.535   7.844  1.00  0.00     0.168 HD
HETATM    8  C   UNK N   1      34.626  14.217  10.714  0.00  0.00     0.142 A 
HETATM    9  C   UNK N   1      35.550  15.680  11.978  0.00  0.00     0.188 A 
HETATM   10  C   UNK N   1      34.323  15.433  10.248  0.00  0.00     0.122 A 
HETATM   11  C   UNK N   1      33.431  15.579   9.211  0.00  0.00     0.133 A 
HETATM   12  C   UNK N   1      33.259  13.208   9.104  0.00  0.00     0.183 A 
ENDROOT
BRANCH   1  13
HETATM   13  C   UNK N   1      35.594  13.351  12.867  0.00  0.00     0.263 C 
HETATM   14  O   UNK N   1      35.642  13.873  14.166  0.00  0.00    -0.346 OA
HETATM   15  C   UNK N   1      36.339  12.873  14.901  0.00  0.00     0.247 C 
HETATM   16  C   UNK N   1      37.045  11.939  13.926  0.00  0.00     0.189 C 
HETATM   17  C   UNK N   1      36.897  12.644  12.644  0.00  0.00     0.199 C 
BRANCH  15  18
HETATM   18  C   UNK N   1      35.486  12.002  15.817  0.00  0.00     0.249 C 
HETATM   19  O   UNK N   1      35.200  10.881  15.427  0.00  0.00    -0.271 OA
HETATM   20  N   UNK N   1      35.005  12.403  17.025  0.00  0.00    -0.363 N 
HETATM   21  C   UNK N   1      35.237  13.693  17.622  0.00  0.00     0.149 C 
HETATM   22  H   UNK N   1      34.456  11.762  17.531  0.00  0.00     0.162 HD
ENDBRANCH  15  18
BRANCH  16  23
HETATM   23  O   UNK N   1      38.395  11.808  14.243  0.00  0.00    -0.390 OA
HETATM   24  H   UNK N   1      39.107  12.313  13.821  0.00  0.00     0.210 HD
ENDBRANCH  16  23
BRANCH  17  25
HETATM   25  O   UNK N   1      36.818  11.762  11.567  0.00  0.00    -0.388 OA
HETATM   26  H   UNK N   1      36.446  11.145  10.918  0.00  0.00     0.210 HD
ENDBRANCH  17  25
ENDBRANCH   1  13
BRANCH  11  27
HETATM   27  N   UNK N   1      33.004  16.863   8.844  0.00  0.00    -0.370 N 
HETATM   28  H   UNK N   1      32.233  17.252   9.315  0.00  0.00     0.161 HD
BRANCH  27  29
HETATM   29  C   UNK N   1      33.634  17.637   7.817  0.00  0.00     0.160 C 
BRANCH  29  30
HETATM   30  C   UNK N   1      32.832  17.454   6.571  0.00  0.00    -0.039 A 
HETATM   31  C   UNK N   1      31.459  17.227   6.658  0.00  0.00     0.027 A 
HETATM   32  C   UNK N   1      30.698  17.108   5.492  0.00  0.00     0.007 A 
HETATM   33  I   UNK N   1      28.631  16.779   5.624  0.00  0.00    -0.045 I 
HETATM   34  C   UNK N   1      31.306  17.219   4.237  0.00  0.00     0.018 A 
HETATM   35  C   UNK N   1      32.680  17.445   4.143  0.00  0.00     0.002 A 
HETATM   36  C   UNK N   1      33.438  17.563   5.304  0.00  0.00     0.009 A 
ENDBRANCH  29  30
ENDBRANCH  27  29
ENDBRANCH  11  27
TORSDOF 7
ENDMDL
MODEL 5
REMARK VINA RESULT:      -7.6      5.539     11.002
REMARK  7 active torsions:
REMARK  status: ('A' for Active; 'I' for Inactive)
REMARK    1  A    between atoms: C_15  and  O_3 
REMARK    2  A    between atoms: C_17  and  O_4 
REMARK    3  A    between atoms: C_16  and  N_6 
REMARK       I    between atoms: N_9  and  C_19 
REMARK    4  A    between atoms: N_12  and  C_23 
REMARK    5  A    between atoms: N_12  and  C_26 
REMARK    6  A    between atoms: C_18  and  C_19 
REMARK    7  A    between atoms: C_26  and  C_27 
ROOT
HETATM    1  N   UNK N   1      34.527  15.590  10.625  0.00  0.00    -0.297 N 
HETATM    2  N   UNK N   1      36.239  15.305  12.045  0.00  0.00    -0.346 N 
ATOM      3  HN  UNK N   1      36.999  15.491  12.698  1.00  0.00     0.167 HD
HETATM    4  N   UNK N   1      34.109  13.230  10.211  0.00  0.00    -0.336 N 
ATOM      5  HN  UNK N   1      33.330  13.381   9.570  1.00  0.00     0.168 HD
HETATM    6  N   UNK N   1      35.651  11.779  11.298  0.00  0.00    -0.337 N 
ATOM      7  HN  UNK N   1      35.994  10.835  11.478  1.00  0.00     0.168 HD
HETATM    8  C   UNK N   1      34.728  14.277  10.819  0.00  0.00     0.142 A 
HETATM    9  C   UNK N   1      35.464  16.207  11.387  0.00  0.00     0.188 A 
HETATM   10  C   UNK N   1      35.772  14.108  11.637  0.00  0.00     0.122 A 
HETATM   11  C   UNK N   1      36.279  12.851  11.870  0.00  0.00     0.133 A 
HETATM   12  C   UNK N   1      34.562  11.966  10.482  0.00  0.00     0.183 A 
ENDROOT
BRANCH   1  13
HETATM   13  C   UNK N   1      33.801  16.227   9.531  0.00  0.00     0.263 C 
HETATM   14  O   UNK N   1      33.096  15.344   8.702  0.00  0.00    -0.346 OA
HETATM   15  C   UNK N   1      32.926  16.082   7.498  0.00  0.00     0.247 C 
HETATM   16  C   UNK N   1      33.888  17.263   7.497  0.00  0.00     0.189 C 
HETATM   17  C   UNK N   1      34.757  16.969   8.646  0.00  0.00     0.199 C 
BRANCH  15  18
HETATM   18  C   UNK N   1      31.530  16.642   7.250  0.00  0.00     0.249 C 
HETATM   19  O   UNK N   1      31.214  17.660   7.847  0.00  0.00    -0.271 OA
HETATM   20  N   UNK N   1      30.608  16.068   6.429  0.00  0.00    -0.363 N 
HETATM   21  C   UNK N   1      30.814  14.865   5.668  0.00  0.00     0.149 C 
HETATM   22  H   UNK N   1      29.732  16.511   6.350  0.00  0.00     0.162 HD
ENDBRANCH  15  18
BRANCH  16  23
HETATM   23  O   UNK N   1      34.644  17.295   6.326  0.00  0.00    -0.390 OA
HETATM   24  H   UNK N   1      35.588  17.083   6.279  0.00  0.00     0.210 HD
ENDBRANCH  16  23
BRANCH  17  25
HETATM   25  O   UNK N   1      35.222  18.130   9.263  0.00  0.00    -0.388 OA
HETATM   26  H   UNK N   1      35.289  19.062   9.521  0.00  0.00     0.210 HD
ENDBRANCH  17  25
ENDBRANCH   1  13
BRANCH  11  27
HETATM   27  N   UNK N   1      37.469  12.711  12.599  0.00  0.00    -0.370 N 
HETATM   28  H   UNK N   1      38.181  13.376  12.465  0.00  0.00     0.161 HD
BRANCH  27  29
HETATM   29  C   UNK N   1      37.699  11.648  13.530  0.00  0.00     0.160 C 
BRANCH  29  30
HETATM   30  C   UNK N   1      36.869  11.930  14.739  0.00  0.00    -0.039 A 
HETATM   31  C   UNK N   1      36.417  10.876  15.530  0.00  0.00     0.027 A 
HETATM   32  C   UNK N   1      35.685  11.141  16.691  0.00  0.00     0.007 A 
HETATM   33  I   UNK N   1      35.017   9.554  17.889  0.00  0.00    -0.045 I 
HETATM   34  C   UNK N   1      35.405  12.460  17.063  0.00  0.00     0.018 A 
HETATM   35  C   UNK N   1      35.852  13.520  16.274  0.00  0.00     0.002 A 
HETATM   36  C   UNK N   1      36.581  13.256  15.119  0.00  0.00     0.009 A 
ENDBRANCH  29  30
ENDBRANCH  27  29
ENDBRANCH  11  27
TORSDOF 7
ENDMDL
MODEL 6
REMARK VINA RESULT:      -7.6      6.754     11.100
REMARK  7 active torsions:
REMARK  status: ('A' for Active; 'I' for Inactive)
REMARK    1  A    between atoms: C_15  and  O_3 
REMARK    2  A    between atoms: C_17  and  O_4 
REMARK    3  A    between atoms: C_16  and  N_6 
REMARK       I    between atoms: N_9  and  C_19 
REMARK    4  A    between atoms: N_12  and  C_23 
REMARK    5  A    between atoms: N_12  and  C_26 
REMARK    6  A    between atoms: C_18  and  C_19 
REMARK    7  A    between atoms: C_26  and  C_27 
ROOT
HETATM    1  N   UNK N   1      34.546  14.295   9.427  0.00  0.00    -0.297 N 
HETATM    2  N   UNK N   1      34.603  13.727  11.596  0.00  0.00    -0.346 N 
ATOM      3  HN  UNK N   1      34.316  13.507  12.549  1.00  0.00     0.167 HD
HETATM    4  N   UNK N   1      36.935  14.091   9.021  0.00  0.00    -0.336 N 
ATOM      5  HN  UNK N   1      36.887  14.347   8.035  1.00  0.00     0.168 HD
HETATM    6  N   UNK N   1      38.195  13.552  10.967  0.00  0.00    -0.337 N 
ATOM      7  HN  UNK N   1      39.097  13.384  11.411  1.00  0.00     0.168 HD
HETATM    8  C   UNK N   1      35.807  13.992   9.774  0.00  0.00     0.142 A 
HETATM    9  C   UNK N   1      33.819  14.125  10.559  0.00  0.00     0.188 A 
HETATM   10  C   UNK N   1      35.845  13.689  11.075  0.00  0.00     0.122 A 
HETATM   11  C   UNK N   1      37.049  13.493  11.711  0.00  0.00     0.133 A 
HETATM   12  C   UNK N   1      38.138  13.836   9.624  0.00  0.00     0.183 A 
ENDROOT
BRANCH   1  13
HETATM   13  C   UNK N   1      34.101  15.057   8.265  0.00  0.00     0.263 C 
HETATM   14  O   UNK N   1      34.854  14.848   7.103  0.00  0.00    -0.346 OA
HETATM   15  C   UNK N   1      34.586  16.005   6.319  0.00  0.00     0.247 C 
HETATM   16  C   UNK N   1      33.977  17.080   7.211  0.00  0.00     0.189 C 
HETATM   17  C   UNK N   1      34.171  16.526   8.559  0.00  0.00     0.199 C 
BRANCH  15  18
HETATM   18  C   UNK N   1      33.637  15.810   5.142  0.00  0.00     0.249 C 
HETATM   19  O   UNK N   1      32.629  16.498   5.107  0.00  0.00    -0.271 OA
HETATM   20  N   UNK N   1      33.829  14.903   4.146  0.00  0.00    -0.363 N 
HETATM   21  C   UNK N   1      34.953  14.009   4.046  0.00  0.00     0.149 C 
HETATM   22  H   UNK N   1      33.147  14.855   3.438  0.00  0.00     0.162 HD
ENDBRANCH  15  18
BRANCH  16  23
HETATM   23  O   UNK N   1      34.667  18.285   7.089  0.00  0.00    -0.390 OA
HETATM   24  H   UNK N   1      35.364  18.452   6.436  0.00  0.00     0.210 HD
ENDBRANCH  16  23
BRANCH  17  25
HETATM   25  O   UNK N   1      33.161  16.916   9.437  0.00  0.00    -0.388 OA
HETATM   26  H   UNK N   1      32.562  17.486   9.944  0.00  0.00     0.210 HD
ENDBRANCH  17  25
ENDBRANCH   1  13
BRANCH  11  27
HETATM   27  N   UNK N   1      37.076  13.337  13.104  0.00  0.00    -0.370 N 
HETATM   28  H   UNK N   1      37.034  14.143  13.666  0.00  0.00     0.161 HD
BRANCH  27  29
HETATM   29  C   UNK N   1      37.163  12.062  13.750  0.00  0.00     0.160 C 
BRANCH  29  30
HETATM   30  C   UNK N   1      36.449  12.178  15.056  0.00  0.00    -0.039 A 
HETATM   31  C   UNK N   1      36.215  11.036  15.820  0.00  0.00     0.027 A 
HETATM   32  C   UNK N   1      35.594  11.149  17.068  0.00  0.00     0.007 A 
HETATM   33  I   UNK N   1      35.253   9.432  18.223  0.00  0.00    -0.045 I 
HETATM   34  C   UNK N   1      35.209  12.403  17.554  0.00  0.00     0.018 A 
HETATM   35  C   UNK N   1      35.439  13.549  16.792  0.00  0.00     0.002 A 
HETATM   36  C   UNK N   1      36.057  13.437  15.551  0.00  0.00     0.009 A 
ENDBRANCH  29  30
ENDBRANCH  27  29
ENDBRANCH  11  27
TORSDOF 7
ENDMDL
MODEL 7
REMARK VINA RESULT:      -7.6      6.640     12.506
REMARK  7 active torsions:
REMARK  status: ('A' for Active; 'I' for Inactive)
REMARK    1  A    between atoms: C_15  and  O_3 
REMARK    2  A    between atoms: C_17  and  O_4 
REMARK    3  A    between atoms: C_16  and  N_6 
REMARK       I    between atoms: N_9  and  C_19 
REMARK    4  A    between atoms: N_12  and  C_23 
REMARK    5  A    between atoms: N_12  and  C_26 
REMARK    6  A    between atoms: C_18  and  C_19 
REMARK    7  A    between atoms: C_26  and  C_27 
ROOT
HETATM    1  N   UNK N   1      35.660  13.534  12.154  0.00  0.00    -0.297 N 
HETATM    2  N   UNK N   1      34.850  11.876  13.428  0.00  0.00    -0.346 N 
ATOM      3  HN  UNK N   1      34.380  11.021  13.725  1.00  0.00     0.167 HD
HETATM    4  N   UNK N   1      36.755  14.757  13.948  0.00  0.00    -0.336 N 
ATOM      5  HN  UNK N   1      37.118  15.500  13.350  1.00  0.00     0.168 HD
HETATM    6  N   UNK N   1      36.408  13.811  16.104  0.00  0.00    -0.337 N 
ATOM      7  HN  UNK N   1      36.544  13.851  17.114  1.00  0.00     0.168 HD
HETATM    8  C   UNK N   1      36.061  13.713  13.423  0.00  0.00     0.142 A 
HETATM    9  C   UNK N   1      34.917  12.399  12.176  0.00  0.00     0.188 A 
HETATM   10  C   UNK N   1      35.547  12.744  14.187  0.00  0.00     0.122 A 
HETATM   11  C   UNK N   1      35.683  12.789  15.555  0.00  0.00     0.133 A 
HETATM   12  C   UNK N   1      36.954  14.785  15.303  0.00  0.00     0.183 A 
ENDROOT
BRANCH   1  13
HETATM   13  C   UNK N   1      35.623  14.526  11.084  0.00  0.00     0.263 C 
HETATM   14  O   UNK N   1      34.442  15.275  11.018  0.00  0.00    -0.346 OA
HETATM   15  C   UNK N   1      34.427  15.758   9.680  0.00  0.00     0.247 C 
HETATM   16  C   UNK N   1      35.418  14.952   8.849  0.00  0.00     0.189 C 
HETATM   17  C   UNK N   1      35.773  13.850   9.754  0.00  0.00     0.199 C 
BRANCH  15  18
HETATM   18  C   UNK N   1      34.781  17.229   9.498  0.00  0.00     0.249 C 
HETATM   19  O   UNK N   1      35.653  17.695  10.215  0.00  0.00    -0.271 OA
HETATM   20  N   UNK N   1      34.173  18.059   8.608  0.00  0.00    -0.363 N 
HETATM   21  C   UNK N   1      33.122  17.675   7.703  0.00  0.00     0.149 C 
HETATM   22  H   UNK N   1      34.475  18.996   8.580  0.00  0.00     0.162 HD
ENDBRANCH  15  18
BRANCH  16  23
HETATM   23  O   UNK N   1      34.815  14.448   7.698  0.00  0.00    -0.390 OA
HETATM   24  H   UNK N   1      34.800  13.509   7.456  0.00  0.00     0.210 HD
ENDBRANCH  16  23
BRANCH  17  25
HETATM   25  O   UNK N   1      37.080  13.407   9.554  0.00  0.00    -0.388 OA
HETATM   26  H   UNK N   1      37.863  13.045   9.112  0.00  0.00     0.210 HD
ENDBRANCH  17  25
ENDBRANCH   1  13
BRANCH  11  27
HETATM   27  N   UNK N   1      35.001  11.854  16.347  0.00  0.00    -0.370 N 
HETATM   28  H   UNK N   1      34.063  12.035  16.582  0.00  0.00     0.161 HD
BRANCH  27  29
HETATM   29  C   UNK N   1      35.604  10.649  16.833  0.00  0.00     0.160 C 
BRANCH  29  30
HETATM   30  C   UNK N   1      35.043  10.391  18.193  0.00  0.00    -0.039 A 
HETATM   31  C   UNK N   1      34.211   9.293  18.401  0.00  0.00     0.027 A 
HETATM   32  C   UNK N   1      33.728   9.020  19.684  0.00  0.00     0.007 A 
HETATM   33  I   UNK N   1      32.487   7.359  19.999  0.00  0.00    -0.045 I 
HETATM   34  C   UNK N   1      34.077   9.842  20.760  0.00  0.00     0.018 A 
HETATM   35  C   UNK N   1      34.907  10.944  20.557  0.00  0.00     0.002 A 
HETATM   36  C   UNK N   1      35.389  11.216  19.281  0.00  0.00     0.009 A 
ENDBRANCH  29  30
ENDBRANCH  27  29
ENDBRANCH  11  27
TORSDOF 7
ENDMDL
MODEL 8
REMARK VINA RESULT:      -7.6      1.461      2.290
REMARK  7 active torsions:
REMARK  status: ('A' for Active; 'I' for Inactive)
REMARK    1  A    between atoms: C_15  and  O_3 
REMARK    2  A    between atoms: C_17  and  O_4 
REMARK    3  A    between atoms: C_16  and  N_6 
REMARK       I    between atoms: N_9  and  C_19 
REMARK    4  A    between atoms: N_12  and  C_23 
REMARK    5  A    between atoms: N_12  and  C_26 
REMARK    6  A    between atoms: C_18  and  C_19 
REMARK    7  A    between atoms: C_26  and  C_27 
ROOT
HETATM    1  N   UNK N   1      31.757  17.106   7.771  0.00  0.00    -0.297 N 
HETATM    2  N   UNK N   1      29.542  17.451   7.695  0.00  0.00    -0.346 N 
ATOM      3  HN  UNK N   1      28.571  17.588   7.974  1.00  0.00     0.167 HD
HETATM    4  N   UNK N   1      32.143  17.236   5.374  0.00  0.00    -0.336 N 
ATOM      5  HN  UNK N   1      33.150  17.081   5.430  1.00  0.00     0.168 HD
HETATM    6  N   UNK N   1      30.155  17.518   4.096  0.00  0.00    -0.337 N 
ATOM      7  HN  UNK N   1      29.697  17.597   3.188  1.00  0.00     0.168 HD
HETATM    8  C   UNK N   1      31.383  17.312   6.498  0.00  0.00     0.142 A 
HETATM    9  C   UNK N   1      30.612  17.196   8.493  0.00  0.00     0.188 A 
HETATM   10  C   UNK N   1      30.058  17.481   6.451  0.00  0.00     0.122 A 
HETATM   11  C   UNK N   1      29.407  17.556   5.241  0.00  0.00     0.133 A 
HETATM   12  C   UNK N   1      31.520  17.371   4.162  0.00  0.00     0.183 A 
ENDROOT
BRANCH   1  13
HETATM   13  C   UNK N   1      32.988  16.485   8.248  0.00  0.00     0.263 C 
HETATM   14  O   UNK N   1      32.837  15.677   9.381  0.00  0.00    -0.346 OA
HETATM   15  C   UNK N   1      34.149  15.621   9.929  0.00  0.00     0.247 C 
HETATM   16  C   UNK N   1      34.991  16.734   9.318  0.00  0.00     0.189 C 
HETATM   17  C   UNK N   1      33.988  17.542   8.609  0.00  0.00     0.199 C 
BRANCH  15  18
HETATM   18  C   UNK N   1      34.907  14.316   9.713  0.00  0.00     0.249 C 
HETATM   19  O   UNK N   1      34.837  13.796   8.610  0.00  0.00    -0.271 OA
HETATM   20  N   UNK N   1      35.632  13.683  10.675  0.00  0.00    -0.363 N 
HETATM   21  C   UNK N   1      35.803  14.152  12.025  0.00  0.00     0.149 C 
HETATM   22  H   UNK N   1      36.075  12.839  10.428  0.00  0.00     0.162 HD
ENDBRANCH  15  18
BRANCH  16  23
HETATM   23  O   UNK N   1      35.606  17.500  10.306  0.00  0.00    -0.390 OA
HETATM   24  H   UNK N   1      35.920  18.408  10.177  0.00  0.00     0.210 HD
ENDBRANCH  16  23
BRANCH  17  25
HETATM   25  O   UNK N   1      34.515  18.152   7.471  0.00  0.00    -0.388 OA
HETATM   26  H   UNK N   1      35.135  18.618   6.890  0.00  0.00     0.210 HD
ENDBRANCH  17  25
ENDBRANCH   1  13
BRANCH  11  27
HETATM   27  N   UNK N   1      28.005  17.571   5.211  0.00  0.00    -0.370 N 
HETATM   28  H   UNK N   1      27.524  17.879   6.011  0.00  0.00     0.161 HD
BRANCH  27  29
HETATM   29  C   UNK N   1      27.240  17.160   4.072  0.00  0.00     0.160 C 
BRANCH  29  30
HETATM   30  C   UNK N   1      26.243  18.238   3.797  0.00  0.00    -0.039 A 
HETATM   31  C   UNK N   1      24.882  17.971   3.930  0.00  0.00     0.027 A 
HETATM   32  C   UNK N   1      23.950  18.993   3.725  0.00  0.00     0.007 A 
HETATM   33  I   UNK N   1      21.902  18.594   3.937  0.00  0.00    -0.045 I 
HETATM   34  C   UNK N   1      24.377  20.281   3.389  0.00  0.00     0.018 A 
HETATM   35  C   UNK N   1      25.739  20.554   3.252  0.00  0.00     0.002 A 
HETATM   36  C   UNK N   1      26.666  19.537   3.457  0.00  0.00     0.009 A 
ENDBRANCH  29  30
ENDBRANCH  27  29
ENDBRANCH  11  27
TORSDOF 7
ENDMDL
MODEL 9
REMARK VINA RESULT:      -7.4      5.613     10.377
REMARK  7 active torsions:
REMARK  status: ('A' for Active; 'I' for Inactive)
REMARK    1  A    between atoms: C_15  and  O_3 
REMARK    2  A    between atoms: C_17  and  O_4 
REMARK    3  A    between atoms: C_16  and  N_6 
REMARK       I    between atoms: N_9  and  C_19 
REMARK    4  A    between atoms: N_12  and  C_23 
REMARK    5  A    between atoms: N_12  and  C_26 
REMARK    6  A    between atoms: C_18  and  C_19 
REMARK    7  A    between atoms: C_26  and  C_27 
ROOT
HETATM    1  N   UNK N   1      24.861  17.745   4.241  0.00  0.00    -0.297 N 
HETATM    2  N   UNK N   1      26.860  16.741   4.407  0.00  0.00    -0.346 N 
ATOM      3  HN  UNK N   1      27.614  16.062   4.319  1.00  0.00     0.167 HD
HETATM    4  N   UNK N   1      25.483  19.799   5.385  0.00  0.00    -0.336 N 
ATOM      5  HN  UNK N   1      24.567  20.240   5.296  1.00  0.00     0.168 HD
HETATM    6  N   UNK N   1      27.710  19.792   6.223  0.00  0.00    -0.337 N 
ATOM      7  HN  UNK N   1      28.456  20.256   6.742  1.00  0.00     0.168 HD
HETATM    8  C   UNK N   1      25.727  18.576   4.843  0.00  0.00     0.142 A 
HETATM    9  C   UNK N   1      25.575  16.622   3.979  0.00  0.00     0.188 A 
HETATM   10  C   UNK N   1      26.907  17.963   4.973  0.00  0.00     0.122 A 
HETATM   11  C   UNK N   1      27.920  18.547   5.698  0.00  0.00     0.133 A 
HETATM   12  C   UNK N   1      26.501  20.423   6.056  0.00  0.00     0.183 A 
ENDROOT
BRANCH   1  13
HETATM   13  C   UNK N   1      23.403  17.813   4.259  0.00  0.00     0.263 C 
HETATM   14  O   UNK N   1      22.863  18.966   3.677  0.00  0.00    -0.346 OA
HETATM   15  C   UNK N   1      21.562  19.049   4.247  0.00  0.00     0.247 C 
HETATM   16  C   UNK N   1      21.497  18.147   5.473  0.00  0.00     0.189 C 
HETATM   17  C   UNK N   1      22.906  17.777   5.673  0.00  0.00     0.199 C 
BRANCH  15  18
HETATM   18  C   UNK N   1      20.407  18.650   3.336  0.00  0.00     0.249 C 
HETATM   19  O   UNK N   1      19.811  17.617   3.597  0.00  0.00    -0.271 OA
HETATM   20  N   UNK N   1      20.015  19.356   2.241  0.00  0.00    -0.363 N 
HETATM   21  C   UNK N   1      20.618  20.583   1.788  0.00  0.00     0.149 C 
HETATM   22  H   UNK N   1      19.261  19.001   1.717  0.00  0.00     0.162 HD
ENDBRANCH  15  18
BRANCH  16  23
HETATM   23  O   UNK N   1      21.026  18.842   6.586  0.00  0.00    -0.390 OA
HETATM   24  H   UNK N   1      20.153  18.707   6.984  0.00  0.00     0.210 HD
ENDBRANCH  16  23
BRANCH  17  25
HETATM   25  O   UNK N   1      23.041  16.504   6.226  0.00  0.00    -0.388 OA
HETATM   26  H   UNK N   1      22.851  15.714   6.755  0.00  0.00     0.210 HD
ENDBRANCH  17  25
ENDBRANCH   1  13
BRANCH  11  27
HETATM   27  N   UNK N   1      29.090  17.819   5.958  0.00  0.00    -0.370 N 
HETATM   28  H   UNK N   1      29.723  17.671   5.220  0.00  0.00     0.161 HD
BRANCH  27  29
HETATM   29  C   UNK N   1      29.410  17.281   7.247  0.00  0.00     0.160 C 
BRANCH  29  30
HETATM   30  C   UNK N   1      30.898  17.194   7.332  0.00  0.00    -0.039 A 
HETATM   31  C   UNK N   1      31.599  16.410   6.417  0.00  0.00     0.027 A 
HETATM   32  C   UNK N   1      32.996  16.369   6.463  0.00  0.00     0.007 A 
HETATM   33  I   UNK N   1      34.050  15.201   5.077  0.00  0.00    -0.045 I 
HETATM   34  C   UNK N   1      33.693  17.111   7.421  0.00  0.00     0.018 A 
HETATM   35  C   UNK N   1      32.997  17.895   8.341  0.00  0.00     0.002 A 
HETATM   36  C   UNK N   1      31.607  17.937   8.296  0.00  0.00     0.009 A 
ENDBRANCH  29  30
ENDBRANCH  27  29
ENDBRANCH  11  27
TORSDOF 7
ENDMDL
