MODEL 1
REMARK VINA RESULT:      -7.4      0.000      0.000
REMARK  12 active torsions:
REMARK  status: ('A' for Active; 'I' for Inactive)
REMARK    1  A    between atoms: C_2  and  C_3 
REMARK    2  A    between atoms: C_2  and  N_7 
REMARK    3  A    between atoms: C_3  and  O_5 
REMARK    4  A    between atoms: N_7  and  P_8 
REMARK    5  A    between atoms: P_8  and  O_10 
REMARK    6  A    between atoms: P_8  and  O_29 
REMARK    7  A    between atoms: O_10  and  C_11 
REMARK    8  A    between atoms: C_12  and  C_11 
REMARK    9  A    between atoms: C_13  and  O_28 
REMARK   10  A    between atoms: C_15  and  N_17 
REMARK   11  A    between atoms: C_19  and  C_25 
REMARK   12  A    between atoms: O_29  and  C_30 
ROOT
HETATM    1  C   UNK N   1      34.147  14.808   9.032  0.00  0.00     0.177 C 
HETATM    2  C   UNK N   1      33.818  15.695  10.203  0.00  0.00     0.153 C 
HETATM    3  C   UNK N   1      35.131  15.732  10.926  0.00  0.00     0.088 C 
HETATM    4  C   UNK N   1      35.898  14.537  10.342  0.00  0.00     0.235 C 
HETATM    5  O   UNK N   1      35.019  13.823   9.508  0.00  0.00    -0.356 OA
ENDROOT
BRANCH   1   6
HETATM    6  C   UNK N   1      34.819  15.586   7.901  0.00  0.00     0.214 C 
BRANCH   6   7
HETATM    7  O   UNK N   1      34.327  16.891   7.950  0.00  0.00    -0.295 OA
BRANCH   7   8
HETATM    8  P   UNK N   1      33.692  17.276   6.368  0.00  0.00     0.436 P 
HETATM    9  O   UNK N   1      34.978  16.435   6.155  0.00  0.00    -0.234 OA
BRANCH   8  10
HETATM   10  N   UNK N   1      33.250  15.813   5.422  0.00  0.00    -0.314 N 
HETATM   11  H   UNK N   1      32.977  14.915   5.823  0.00  0.00     0.166 HD
BRANCH  10  12
HETATM   12  C   UNK N   1      33.336  16.102   3.998  0.00  0.00     0.183 C 
HETATM   13  C   UNK N   1      32.415  17.273   3.704  0.00  0.00     0.043 C 
BRANCH  12  14
HETATM   14  C   UNK N   1      32.928  14.892   3.190  0.00  0.00     0.281 C 
HETATM   15  O   UNK N   1      33.526  14.623   2.158  0.00  0.00    -0.263 OA
BRANCH  14  16
HETATM   16  O   UNK N   1      31.900  14.095   3.575  0.00  0.00    -0.325 OA
HETATM   17  C   UNK N   1      30.730  13.974   2.863  0.00  0.00     0.213 C 
ENDBRANCH  14  16
ENDBRANCH  12  14
ENDBRANCH  10  12
ENDBRANCH   8  10
BRANCH   8  18
HETATM   18  O   UNK N   1      32.344  16.497   7.134  0.00  0.00    -0.256 OA
BRANCH  18  19
HETATM   19  C   UNK N   1      31.219  17.170   7.501  0.00  0.00     0.080 A 
HETATM   20  C   UNK N   1      30.060  17.159   6.699  0.00  0.00     0.037 A 
HETATM   21  C   UNK N   1      28.936  17.902   7.070  0.00  0.00     0.003 A 
HETATM   22  C   UNK N   1      28.957  18.658   8.244  0.00  0.00     0.000 A 
HETATM   23  C   UNK N   1      30.100  18.668   9.049  0.00  0.00     0.003 A 
HETATM   24  C   UNK N   1      31.229  17.929   8.675  0.00  0.00     0.037 A 
ENDBRANCH  18  19
ENDBRANCH   8  18
ENDBRANCH   7   8
ENDBRANCH   6   7
ENDBRANCH   1   6
BRANCH   2  25
HETATM   25  O   UNK N   1      32.875  15.047  11.003  0.00  0.00    -0.393 OA
HETATM   26  H   UNK N   1      31.960  14.797  11.210  0.00  0.00     0.210 HD
ENDBRANCH   2  25
BRANCH   4  27
HETATM   27  N   UNK N   1      36.480  13.658  11.361  0.00  0.00    -0.281 N 
HETATM   28  C   UNK N   1      35.926  13.613  12.601  0.00  0.00     0.115 A 
HETATM   29  C   UNK N   1      36.444  12.810  13.598  0.00  0.00     0.048 A 
HETATM   30  C   UNK N   1      37.583  12.037  13.307  0.00  0.00     0.261 A 
HETATM   31  O   UNK N   1      38.085  11.317  14.151  0.00  0.00    -0.267 OA
HETATM   32  N   UNK N   1      38.133  12.092  12.053  0.00  0.00    -0.275 N 
HETATM   33  C   UNK N   1      37.591  12.889  11.081  0.00  0.00     0.331 A 
HETATM   34  H   UNK N   1      38.930  11.551  11.849  0.00  0.00     0.173 HD
HETATM   35  O   UNK N   1      38.096  12.911   9.970  0.00  0.00    -0.246 OA
BRANCH  29  36
HETATM   36  C   UNK N   1      35.717  12.815  14.880  0.00  0.00     0.026 C 
HETATM   37  C   UNK N   1      36.104  13.464  15.972  0.00  0.00     0.057 C 
HETATM   38 Br   UNK N   1      35.055  13.272  17.553  0.00  0.00    -0.064 Br
ENDBRANCH  29  36
ENDBRANCH   4  27
TORSDOF 12
ENDMDL
MODEL 2
REMARK VINA RESULT:      -7.1      1.662      2.197
REMARK  12 active torsions:
REMARK  status: ('A' for Active; 'I' for Inactive)
REMARK    1  A    between atoms: C_2  and  C_3 
REMARK    2  A    between atoms: C_2  and  N_7 
REMARK    3  A    between atoms: C_3  and  O_5 
REMARK    4  A    between atoms: N_7  and  P_8 
REMARK    5  A    between atoms: P_8  and  O_10 
REMARK    6  A    between atoms: P_8  and  O_29 
REMARK    7  A    between atoms: O_10  and  C_11 
REMARK    8  A    between atoms: C_12  and  C_11 
REMARK    9  A    between atoms: C_13  and  O_28 
REMARK   10  A    between atoms: C_15  and  N_17 
REMARK   11  A    between atoms: C_19  and  C_25 
REMARK   12  A    between atoms: O_29  and  C_30 
ROOT
HETATM    1  C   UNK N   1      34.757  16.017  10.377  0.00  0.00     0.177 C 
HETATM    2  C   UNK N   1      36.172  15.614  10.060  0.00  0.00     0.153 C 
HETATM    3  C   UNK N   1      36.044  14.122   9.974  0.00  0.00     0.088 C 
HETATM    4  C   UNK N   1      34.708  13.834  10.675  0.00  0.00     0.235 C 
HETATM    5  O   UNK N   1      34.244  15.038  11.234  0.00  0.00    -0.356 OA
ENDROOT
BRANCH   1   6
HETATM    6  C   UNK N   1      33.895  16.102   9.118  0.00  0.00     0.214 C 
BRANCH   6   7
HETATM    7  O   UNK N   1      33.792  17.451   8.780  0.00  0.00    -0.295 OA
BRANCH   7   8
HETATM    8  P   UNK N   1      33.365  17.541   7.087  0.00  0.00     0.436 P 
HETATM    9  O   UNK N   1      34.738  16.824   7.178  0.00  0.00    -0.234 OA
BRANCH   8  10
HETATM   10  N   UNK N   1      33.199  15.920   6.326  0.00  0.00    -0.314 N 
HETATM   11  H   UNK N   1      33.203  15.033   6.830  0.00  0.00     0.166 HD
BRANCH  10  12
HETATM   12  C   UNK N   1      33.057  16.065   4.886  0.00  0.00     0.183 C 
HETATM   13  C   UNK N   1      32.929  17.546   4.577  0.00  0.00     0.043 C 
BRANCH  12  14
HETATM   14  C   UNK N   1      31.836  15.316   4.400  0.00  0.00     0.281 C 
HETATM   15  O   UNK N   1      31.380  14.402   5.070  0.00  0.00    -0.263 OA
BRANCH  14  16
HETATM   16  O   UNK N   1      31.236  15.626   3.224  0.00  0.00    -0.325 OA
HETATM   17  C   UNK N   1      29.875  15.770   3.085  0.00  0.00     0.213 C 
ENDBRANCH  14  16
ENDBRANCH  12  14
ENDBRANCH  10  12
ENDBRANCH   8  10
BRANCH   8  18
HETATM   18  O   UNK N   1      31.994  16.732   7.779  0.00  0.00    -0.256 OA
BRANCH  18  19
HETATM   19  C   UNK N   1      30.777  17.328   7.904  0.00  0.00     0.080 A 
HETATM   20  C   UNK N   1      30.431  18.065   9.055  0.00  0.00     0.037 A 
HETATM   21  C   UNK N   1      29.157  18.622   9.182  0.00  0.00     0.003 A 
HETATM   22  C   UNK N   1      28.217  18.453   8.163  0.00  0.00     0.000 A 
HETATM   23  C   UNK N   1      28.554  17.729   7.015  0.00  0.00     0.003 A 
HETATM   24  C   UNK N   1      29.829  17.166   6.889  0.00  0.00     0.037 A 
ENDBRANCH  18  19
ENDBRANCH   8  18
ENDBRANCH   7   8
ENDBRANCH   6   7
ENDBRANCH   1   6
BRANCH   2  25
HETATM   25  O   UNK N   1      36.984  15.940  11.149  0.00  0.00    -0.393 OA
HETATM   26  H   UNK N   1      37.694  15.730  11.776  0.00  0.00     0.210 HD
ENDBRANCH   2  25
BRANCH   4  27
HETATM   27  N   UNK N   1      34.794  12.784  11.693  0.00  0.00    -0.281 N 
HETATM   28  C   UNK N   1      35.110  13.116  12.973  0.00  0.00     0.115 A 
HETATM   29  C   UNK N   1      35.213  12.161  13.965  0.00  0.00     0.048 A 
HETATM   30  C   UNK N   1      34.996  10.814  13.620  0.00  0.00     0.261 A 
HETATM   31  O   UNK N   1      35.082   9.931  14.454  0.00  0.00    -0.267 OA
HETATM   32  N   UNK N   1      34.680  10.492  12.326  0.00  0.00    -0.275 N 
HETATM   33  C   UNK N   1      34.572  11.461  11.365  0.00  0.00     0.331 A 
HETATM   34  H   UNK N   1      34.527   9.550  12.085  0.00  0.00     0.173 HD
HETATM   35  O   UNK N   1      34.279  11.146  10.223  0.00  0.00    -0.246 OA
BRANCH  29  36
HETATM   36  C   UNK N   1      35.510  12.661  15.319  0.00  0.00     0.026 C 
HETATM   37  C   UNK N   1      34.601  12.903  16.257  0.00  0.00     0.057 C 
HETATM   38 Br   UNK N   1      35.194  13.623  17.920  0.00  0.00    -0.064 Br
ENDBRANCH  29  36
ENDBRANCH   4  27
TORSDOF 12
ENDMDL
MODEL 3
REMARK VINA RESULT:      -7.1      2.164      4.214
REMARK  12 active torsions:
REMARK  status: ('A' for Active; 'I' for Inactive)
REMARK    1  A    between atoms: C_2  and  C_3 
REMARK    2  A    between atoms: C_2  and  N_7 
REMARK    3  A    between atoms: C_3  and  O_5 
REMARK    4  A    between atoms: N_7  and  P_8 
REMARK    5  A    between atoms: P_8  and  O_10 
REMARK    6  A    between atoms: P_8  and  O_29 
REMARK    7  A    between atoms: O_10  and  C_11 
REMARK    8  A    between atoms: C_12  and  C_11 
REMARK    9  A    between atoms: C_13  and  O_28 
REMARK   10  A    between atoms: C_15  and  N_17 
REMARK   11  A    between atoms: C_19  and  C_25 
REMARK   12  A    between atoms: O_29  and  C_30 
ROOT
HETATM    1  C   UNK N   1      34.512  15.530  10.446  0.00  0.00     0.177 C 
HETATM    2  C   UNK N   1      35.966  15.445  10.069  0.00  0.00     0.153 C 
HETATM    3  C   UNK N   1      36.214  13.969  10.169  0.00  0.00     0.088 C 
HETATM    4  C   UNK N   1      35.028  13.461  11.001  0.00  0.00     0.235 C 
HETATM    5  O   UNK N   1      34.302  14.579  11.450  0.00  0.00    -0.356 OA
ENDROOT
BRANCH   1   6
HETATM    6  C   UNK N   1      33.598  15.233   9.257  0.00  0.00     0.214 C 
BRANCH   6   7
HETATM    7  O   UNK N   1      33.030  16.444   8.862  0.00  0.00    -0.295 OA
BRANCH   7   8
HETATM    8  P   UNK N   1      31.595  16.078   7.935  0.00  0.00     0.436 P 
HETATM    9  O   UNK N   1      31.130  16.743   9.257  0.00  0.00    -0.234 OA
BRANCH   8  10
HETATM   10  N   UNK N   1      30.645  17.546   7.516  0.00  0.00    -0.314 N 
HETATM   11  H   UNK N   1      31.034  18.480   7.391  0.00  0.00     0.166 HD
BRANCH  10  12
HETATM   12  C   UNK N   1      29.238  17.200   7.381  0.00  0.00     0.183 C 
HETATM   13  C   UNK N   1      29.028  16.640   5.985  0.00  0.00     0.043 C 
BRANCH  12  14
HETATM   14  C   UNK N   1      28.373  18.421   7.597  0.00  0.00     0.281 C 
HETATM   15  O   UNK N   1      28.098  18.774   8.734  0.00  0.00    -0.263 OA
BRANCH  14  16
HETATM   16  O   UNK N   1      27.880  19.134   6.554  0.00  0.00    -0.325 OA
HETATM   17  C   UNK N   1      27.261  20.354   6.698  0.00  0.00     0.213 C 
ENDBRANCH  14  16
ENDBRANCH  12  14
ENDBRANCH  10  12
ENDBRANCH   8  10
BRANCH   8  18
HETATM   18  O   UNK N   1      32.518  17.050   6.832  0.00  0.00    -0.256 OA
BRANCH  18  19
HETATM   19  C   UNK N   1      32.774  16.664   5.552  0.00  0.00     0.080 A 
HETATM   20  C   UNK N   1      33.498  15.488   5.267  0.00  0.00     0.037 A 
HETATM   21  C   UNK N   1      33.794  15.142   3.947  0.00  0.00     0.003 A 
HETATM   22  C   UNK N   1      33.370  15.963   2.899  0.00  0.00     0.000 A 
HETATM   23  C   UNK N   1      32.645  17.127   3.173  0.00  0.00     0.003 A 
HETATM   24  C   UNK N   1      32.352  17.478   4.495  0.00  0.00     0.037 A 
ENDBRANCH  18  19
ENDBRANCH   8  18
ENDBRANCH   7   8
ENDBRANCH   6   7
ENDBRANCH   1   6
BRANCH   2  25
HETATM   25  O   UNK N   1      36.720  16.101  11.044  0.00  0.00    -0.393 OA
HETATM   26  H   UNK N   1      37.396  16.104  11.740  0.00  0.00     0.210 HD
ENDBRANCH   2  25
BRANCH   4  27
HETATM   27  N   UNK N   1      35.423  12.608  12.126  0.00  0.00    -0.281 N 
HETATM   28  C   UNK N   1      35.561  13.154  13.363  0.00  0.00     0.115 A 
HETATM   29  C   UNK N   1      35.942  12.395  14.452  0.00  0.00     0.048 A 
HETATM   30  C   UNK N   1      36.202  11.026  14.253  0.00  0.00     0.261 A 
HETATM   31  O   UNK N   1      36.547  10.312  15.177  0.00  0.00    -0.267 OA
HETATM   32  N   UNK N   1      36.060  10.488  13.000  0.00  0.00    -0.275 N 
HETATM   33  C   UNK N   1      35.670  11.263  11.941  0.00  0.00     0.331 A 
HETATM   34  H   UNK N   1      36.242   9.530  12.860  0.00  0.00     0.173 HD
HETATM   35  O   UNK N   1      35.542  10.754  10.838  0.00  0.00    -0.246 OA
BRANCH  29  36
HETATM   36  C   UNK N   1      36.003  13.098  15.745  0.00  0.00     0.026 C 
HETATM   37  C   UNK N   1      35.019  13.139  16.636  0.00  0.00     0.057 C 
HETATM   38 Br   UNK N   1      35.278  14.175  18.216  0.00  0.00    -0.064 Br
ENDBRANCH  29  36
ENDBRANCH   4  27
TORSDOF 12
ENDMDL
MODEL 4
REMARK VINA RESULT:      -7.0      3.246      4.627
REMARK  12 active torsions:
REMARK  status: ('A' for Active; 'I' for Inactive)
REMARK    1  A    between atoms: C_2  and  C_3 
REMARK    2  A    between atoms: C_2  and  N_7 
REMARK    3  A    between atoms: C_3  and  O_5 
REMARK    4  A    between atoms: N_7  and  P_8 
REMARK    5  A    between atoms: P_8  and  O_10 
REMARK    6  A    between atoms: P_8  and  O_29 
REMARK    7  A    between atoms: O_10  and  C_11 
REMARK    8  A    between atoms: C_12  and  C_11 
REMARK    9  A    between atoms: C_13  and  O_28 
REMARK   10  A    between atoms: C_15  and  N_17 
REMARK   11  A    between atoms: C_19  and  C_25 
REMARK   12  A    between atoms: O_29  and  C_30 
ROOT
HETATM    1  C   UNK N   1      32.683  17.587   7.749  0.00  0.00     0.177 C 
HETATM    2  C   UNK N   1      34.020  17.541   7.059  0.00  0.00     0.153 C 
HETATM    3  C   UNK N   1      34.553  16.221   7.530  0.00  0.00     0.088 C 
HETATM    4  C   UNK N   1      33.677  15.892   8.747  0.00  0.00     0.235 C 
HETATM    5  O   UNK N   1      32.863  17.009   9.010  0.00  0.00    -0.356 OA
ENDROOT
BRANCH   1   6
HETATM    6  C   UNK N   1      31.618  16.810   6.975  0.00  0.00     0.214 C 
BRANCH   6   7
HETATM    7  O   UNK N   1      31.400  17.492   5.778  0.00  0.00    -0.295 OA
BRANCH   7   8
HETATM    8  P   UNK N   1      30.049  16.729   4.973  0.00  0.00     0.436 P 
HETATM    9  O   UNK N   1      31.014  15.600   5.420  0.00  0.00    -0.234 OA
BRANCH   8  10
HETATM   10  N   UNK N   1      29.140  15.613   6.050  0.00  0.00    -0.314 N 
HETATM   11  H   UNK N   1      29.309  15.494   7.049  0.00  0.00     0.166 HD
BRANCH  10  12
HETATM   12  C   UNK N   1      28.126  14.906   5.283  0.00  0.00     0.183 C 
HETATM   13  C   UNK N   1      28.146  15.455   3.867  0.00  0.00     0.043 C 
BRANCH  12  14
HETATM   14  C   UNK N   1      26.762  15.101   5.907  0.00  0.00     0.281 C 
HETATM   15  O   UNK N   1      26.201  16.181   5.806  0.00  0.00    -0.263 OA
BRANCH  14  16
HETATM   16  O   UNK N   1      26.145  14.105   6.590  0.00  0.00    -0.325 OA
HETATM   17  C   UNK N   1      24.942  14.264   7.235  0.00  0.00     0.213 C 
ENDBRANCH  14  16
ENDBRANCH  12  14
ENDBRANCH  10  12
ENDBRANCH   8  10
BRANCH   8  18
HETATM   18  O   UNK N   1      29.272  17.656   6.218  0.00  0.00    -0.256 OA
BRANCH  18  19
HETATM   19  C   UNK N   1      28.475  18.725   5.946  0.00  0.00     0.080 A 
HETATM   20  C   UNK N   1      27.913  19.507   6.977  0.00  0.00     0.037 A 
HETATM   21  C   UNK N   1      27.054  20.567   6.673  0.00  0.00     0.003 A 
HETATM   22  C   UNK N   1      26.751  20.859   5.342  0.00  0.00     0.000 A 
HETATM   23  C   UNK N   1      27.310  20.093   4.314  0.00  0.00     0.003 A 
HETATM   24  C   UNK N   1      28.165  19.028   4.616  0.00  0.00     0.037 A 
ENDBRANCH  18  19
ENDBRANCH   8  18
ENDBRANCH   7   8
ENDBRANCH   6   7
ENDBRANCH   1   6
BRANCH   2  25
HETATM   25  O   UNK N   1      34.821  18.565   7.570  0.00  0.00    -0.393 OA
HETATM   26  H   UNK N   1      35.218  19.448   7.507  0.00  0.00     0.210 HD
ENDBRANCH   2  25
BRANCH   4  27
HETATM   27  N   UNK N   1      34.445  15.514   9.937  0.00  0.00    -0.281 N 
HETATM   28  C   UNK N   1      34.309  14.264  10.453  0.00  0.00     0.115 A 
HETATM   29  C   UNK N   1      35.002  13.864  11.578  0.00  0.00     0.048 A 
HETATM   30  C   UNK N   1      35.855  14.794  12.202  0.00  0.00     0.261 A 
HETATM   31  O   UNK N   1      36.485  14.496  13.201  0.00  0.00    -0.267 OA
HETATM   32  N   UNK N   1      35.983  16.052  11.673  0.00  0.00    -0.275 N 
HETATM   33  C   UNK N   1      35.292  16.417  10.549  0.00  0.00     0.331 A 
HETATM   34  H   UNK N   1      36.580  16.702  12.108  0.00  0.00     0.173 HD
HETATM   35  O   UNK N   1      35.433  17.541  10.095  0.00  0.00    -0.246 OA
BRANCH  29  36
HETATM   36  C   UNK N   1      34.803  12.467  12.001  0.00  0.00     0.026 C 
HETATM   37  C   UNK N   1      34.705  11.429  11.178  0.00  0.00     0.057 C 
HETATM   38 Br   UNK N   1      34.370   9.710  11.933  0.00  0.00    -0.064 Br
ENDBRANCH  29  36
ENDBRANCH   4  27
TORSDOF 12
ENDMDL
MODEL 5
REMARK VINA RESULT:      -7.0      5.892     11.439
REMARK  12 active torsions:
REMARK  status: ('A' for Active; 'I' for Inactive)
REMARK    1  A    between atoms: C_2  and  C_3 
REMARK    2  A    between atoms: C_2  and  N_7 
REMARK    3  A    between atoms: C_3  and  O_5 
REMARK    4  A    between atoms: N_7  and  P_8 
REMARK    5  A    between atoms: P_8  and  O_10 
REMARK    6  A    between atoms: P_8  and  O_29 
REMARK    7  A    between atoms: O_10  and  C_11 
REMARK    8  A    between atoms: C_12  and  C_11 
REMARK    9  A    between atoms: C_13  and  O_28 
REMARK   10  A    between atoms: C_15  and  N_17 
REMARK   11  A    between atoms: C_19  and  C_25 
REMARK   12  A    between atoms: O_29  and  C_30 
ROOT
HETATM    1  C   UNK N   1      27.844  17.464   6.645  0.00  0.00     0.177 C 
HETATM    2  C   UNK N   1      27.126  16.240   6.141  0.00  0.00     0.153 C 
HETATM    3  C   UNK N   1      26.791  16.649   4.737  0.00  0.00     0.088 C 
HETATM    4  C   UNK N   1      26.957  18.175   4.757  0.00  0.00     0.235 C 
HETATM    5  O   UNK N   1      27.193  18.569   6.087  0.00  0.00    -0.356 OA
ENDROOT
BRANCH   1   6
HETATM    6  C   UNK N   1      29.315  17.470   6.230  0.00  0.00     0.214 C 
BRANCH   6   7
HETATM    7  O   UNK N   1      30.016  16.734   7.186  0.00  0.00    -0.295 OA
BRANCH   7   8
HETATM    8  P   UNK N   1      31.591  17.469   7.369  0.00  0.00     0.436 P 
HETATM    9  O   UNK N   1      30.907  17.496   8.761  0.00  0.00    -0.234 OA
BRANCH   8  10
HETATM   10  N   UNK N   1      32.643  16.579   8.523  0.00  0.00    -0.314 N 
HETATM   11  H   UNK N   1      32.518  15.605   8.799  0.00  0.00     0.166 HD
BRANCH  10  12
HETATM   12  C   UNK N   1      33.700  17.456   9.003  0.00  0.00     0.183 C 
HETATM   13  C   UNK N   1      34.224  18.245   7.816  0.00  0.00     0.043 C 
BRANCH  12  14
HETATM   14  C   UNK N   1      34.811  16.646   9.632  0.00  0.00     0.281 C 
HETATM   15  O   UNK N   1      35.606  17.191  10.383  0.00  0.00    -0.263 OA
BRANCH  14  16
HETATM   16  O   UNK N   1      34.956  15.322   9.376  0.00  0.00    -0.325 OA
HETATM   17  C   UNK N   1      35.017  14.364  10.360  0.00  0.00     0.213 C 
ENDBRANCH  14  16
ENDBRANCH  12  14
ENDBRANCH  10  12
ENDBRANCH   8  10
BRANCH   8  18
HETATM   18  O   UNK N   1      31.975  15.916   6.697  0.00  0.00    -0.256 OA
BRANCH  18  19
HETATM   19  C   UNK N   1      32.485  15.764   5.444  0.00  0.00     0.080 A 
HETATM   20  C   UNK N   1      32.597  16.854   4.557  0.00  0.00     0.037 A 
HETATM   21  C   UNK N   1      33.073  16.663   3.257  0.00  0.00     0.003 A 
HETATM   22  C   UNK N   1      33.444  15.385   2.832  0.00  0.00     0.000 A 
HETATM   23  C   UNK N   1      33.343  14.300   3.708  0.00  0.00     0.003 A 
HETATM   24  C   UNK N   1      32.861  14.489   5.008  0.00  0.00     0.037 A 
ENDBRANCH  18  19
ENDBRANCH   8  18
ENDBRANCH   7   8
ENDBRANCH   6   7
ENDBRANCH   1   6
BRANCH   2  25
HETATM   25  O   UNK N   1      25.942  16.088   6.866  0.00  0.00    -0.393 OA
HETATM   26  H   UNK N   1      25.013  15.817   6.934  0.00  0.00     0.210 HD
ENDBRANCH   2  25
BRANCH   4  27
HETATM   27  N   UNK N   1      25.813  18.898   4.194  0.00  0.00    -0.281 N 
HETATM   28  C   UNK N   1      24.557  18.414   4.383  0.00  0.00     0.115 A 
HETATM   29  C   UNK N   1      23.448  19.052   3.864  0.00  0.00     0.048 A 
HETATM   30  C   UNK N   1      23.645  20.224   3.109  0.00  0.00     0.261 A 
HETATM   31  O   UNK N   1      22.703  20.822   2.622  0.00  0.00    -0.267 OA
HETATM   32  N   UNK N   1      24.917  20.701   2.925  0.00  0.00    -0.275 N 
HETATM   33  C   UNK N   1      25.997  20.053   3.462  0.00  0.00     0.331 A 
HETATM   34  H   UNK N   1      25.055  21.521   2.397  0.00  0.00     0.173 HD
HETATM   35  O   UNK N   1      27.117  20.507   3.289  0.00  0.00    -0.246 OA
BRANCH  29  36
HETATM   36  C   UNK N   1      22.142  18.452   4.187  0.00  0.00     0.026 C 
HETATM   37  C   UNK N   1      21.551  17.491   3.486  0.00  0.00     0.057 C 
HETATM   38 Br   UNK N   1      19.820  16.910   4.036  0.00  0.00    -0.064 Br
ENDBRANCH  29  36
ENDBRANCH   4  27
TORSDOF 12
ENDMDL
MODEL 6
REMARK VINA RESULT:      -6.9      3.897      9.734
REMARK  12 active torsions:
REMARK  status: ('A' for Active; 'I' for Inactive)
REMARK    1  A    between atoms: C_2  and  C_3 
REMARK    2  A    between atoms: C_2  and  N_7 
REMARK    3  A    between atoms: C_3  and  O_5 
REMARK    4  A    between atoms: N_7  and  P_8 
REMARK    5  A    between atoms: P_8  and  O_10 
REMARK    6  A    between atoms: P_8  and  O_29 
REMARK    7  A    between atoms: O_10  and  C_11 
REMARK    8  A    between atoms: C_12  and  C_11 
REMARK    9  A    between atoms: C_13  and  O_28 
REMARK   10  A    between atoms: C_15  and  N_17 
REMARK   11  A    between atoms: C_19  and  C_25 
REMARK   12  A    between atoms: O_29  and  C_30 
ROOT
HETATM    1  C   UNK N   1      33.878  16.021   8.099  0.00  0.00     0.177 C 
HETATM    2  C   UNK N   1      34.295  17.435   7.792  0.00  0.00     0.153 C 
HETATM    3  C   UNK N   1      33.120  18.210   8.309  0.00  0.00     0.088 C 
HETATM    4  C   UNK N   1      32.016  17.151   8.434  0.00  0.00     0.235 C 
HETATM    5  O   UNK N   1      32.499  15.953   7.876  0.00  0.00    -0.356 OA
ENDROOT
BRANCH   1   6
HETATM    6  C   UNK N   1      34.185  15.640   9.547  0.00  0.00     0.214 C 
BRANCH   6   7
HETATM    7  O   UNK N   1      35.557  15.806   9.734  0.00  0.00    -0.295 OA
BRANCH   7   8
HETATM    8  P   UNK N   1      36.020  14.856  11.126  0.00  0.00     0.436 P 
HETATM    9  O   UNK N   1      34.659  15.523  11.457  0.00  0.00    -0.234 OA
BRANCH   8  10
HETATM   10  N   UNK N   1      34.838  13.554  11.502  0.00  0.00    -0.314 N 
HETATM   11  H   UNK N   1      33.869  13.531  11.181  0.00  0.00     0.166 HD
BRANCH  10  12
HETATM   12  C   UNK N   1      35.470  12.539  12.330  0.00  0.00     0.183 C 
HETATM   13  C   UNK N   1      34.644  11.269  12.221  0.00  0.00     0.043 C 
BRANCH  12  14
HETATM   14  C   UNK N   1      35.542  13.001  13.768  0.00  0.00     0.281 C 
HETATM   15  O   UNK N   1      34.511  13.162  14.403  0.00  0.00    -0.263 OA
BRANCH  14  16
HETATM   16  O   UNK N   1      36.729  13.254  14.373  0.00  0.00    -0.325 OA
HETATM   17  C   UNK N   1      36.888  14.197  15.361  0.00  0.00     0.213 C 
ENDBRANCH  14  16
ENDBRANCH  12  14
ENDBRANCH  10  12
ENDBRANCH   8  10
BRANCH   8  18
HETATM   18  O   UNK N   1      36.045  13.685   9.845  0.00  0.00    -0.256 OA
BRANCH  18  19
HETATM   19  C   UNK N   1      37.193  13.311   9.216  0.00  0.00     0.080 A 
HETATM   20  C   UNK N   1      38.290  12.789   9.931  0.00  0.00     0.037 A 
HETATM   21  C   UNK N   1      39.476  12.463   9.269  0.00  0.00     0.003 A 
HETATM   22  C   UNK N   1      39.579  12.652   7.889  0.00  0.00     0.000 A 
HETATM   23  C   UNK N   1      38.493  13.162   7.171  0.00  0.00     0.003 A 
HETATM   24  C   UNK N   1      37.306  13.494   7.834  0.00  0.00     0.037 A 
ENDBRANCH  18  19
ENDBRANCH   8  18
ENDBRANCH   7   8
ENDBRANCH   6   7
ENDBRANCH   1   6
BRANCH   2  25
HETATM   25  O   UNK N   1      34.368  17.588   6.406  0.00  0.00    -0.393 OA
HETATM   26  H   UNK N   1      34.845  17.844   5.601  0.00  0.00     0.210 HD
ENDBRANCH   2  25
BRANCH   4  27
HETATM   27  N   UNK N   1      30.751  17.545   7.808  0.00  0.00    -0.281 N 
HETATM   28  C   UNK N   1      30.483  17.153   6.534  0.00  0.00     0.115 A 
HETATM   29  C   UNK N   1      29.311  17.508   5.897  0.00  0.00     0.048 A 
HETATM   30  C   UNK N   1      28.388  18.309   6.597  0.00  0.00     0.261 A 
HETATM   31  O   UNK N   1      27.341  18.657   6.080  0.00  0.00    -0.267 OA
HETATM   32  N   UNK N   1      28.670  18.698   7.880  0.00  0.00    -0.275 N 
HETATM   33  C   UNK N   1      29.836  18.321   8.490  0.00  0.00     0.331 A 
HETATM   34  H   UNK N   1      28.024  19.258   8.369  0.00  0.00     0.173 HD
HETATM   35  O   UNK N   1      30.056  18.675   9.638  0.00  0.00    -0.246 OA
BRANCH  29  36
HETATM   36  C   UNK N   1      29.122  16.974   4.537  0.00  0.00     0.026 C 
HETATM   37  C   UNK N   1      28.836  15.709   4.250  0.00  0.00     0.057 C 
HETATM   38 Br   UNK N   1      28.710  15.210   2.413  0.00  0.00    -0.064 Br
ENDBRANCH  29  36
ENDBRANCH   4  27
TORSDOF 12
ENDMDL
MODEL 7
REMARK VINA RESULT:      -6.8      2.676      4.602
REMARK  12 active torsions:
REMARK  status: ('A' for Active; 'I' for Inactive)
REMARK    1  A    between atoms: C_2  and  C_3 
REMARK    2  A    between atoms: C_2  and  N_7 
REMARK    3  A    between atoms: C_3  and  O_5 
REMARK    4  A    between atoms: N_7  and  P_8 
REMARK    5  A    between atoms: P_8  and  O_10 
REMARK    6  A    between atoms: P_8  and  O_29 
REMARK    7  A    between atoms: O_10  and  C_11 
REMARK    8  A    between atoms: C_12  and  C_11 
REMARK    9  A    between atoms: C_13  and  O_28 
REMARK   10  A    between atoms: C_15  and  N_17 
REMARK   11  A    between atoms: C_19  and  C_25 
REMARK   12  A    between atoms: O_29  and  C_30 
ROOT
HETATM    1  C   UNK N   1      34.536  15.669  10.547  0.00  0.00     0.177 C 
HETATM    2  C   UNK N   1      35.948  15.440  10.079  0.00  0.00     0.153 C 
HETATM    3  C   UNK N   1      36.128  13.981  10.378  0.00  0.00     0.088 C 
HETATM    4  C   UNK N   1      34.990  13.673  11.362  0.00  0.00     0.235 C 
HETATM    5  O   UNK N   1      34.361  14.886  11.694  0.00  0.00    -0.356 OA
ENDROOT
BRANCH   1   6
HETATM    6  C   UNK N   1      33.513  15.262   9.487  0.00  0.00     0.214 C 
BRANCH   6   7
HETATM    7  O   UNK N   1      33.078  16.432   8.864  0.00  0.00    -0.295 OA
BRANCH   7   8
HETATM    8  P   UNK N   1      31.697  16.023   7.874  0.00  0.00     0.436 P 
HETATM    9  O   UNK N   1      31.154  16.670   9.175  0.00  0.00    -0.234 OA
BRANCH   8  10
HETATM   10  N   UNK N   1      30.721  17.461   7.415  0.00  0.00    -0.314 N 
HETATM   11  H   UNK N   1      31.102  18.376   7.175  0.00  0.00     0.166 HD
BRANCH  10  12
HETATM   12  C   UNK N   1      29.306  17.123   7.435  0.00  0.00     0.183 C 
HETATM   13  C   UNK N   1      28.959  16.492   6.098  0.00  0.00     0.043 C 
BRANCH  12  14
HETATM   14  C   UNK N   1      28.471  18.361   7.668  0.00  0.00     0.281 C 
HETATM   15  O   UNK N   1      28.084  18.627   8.796  0.00  0.00    -0.263 OA
BRANCH  14  16
HETATM   16  O   UNK N   1      28.128  19.188   6.648  0.00  0.00    -0.325 OA
HETATM   17  C   UNK N   1      27.267  20.250   6.793  0.00  0.00     0.213 C 
ENDBRANCH  14  16
ENDBRANCH  12  14
ENDBRANCH  10  12
ENDBRANCH   8  10
BRANCH   8  18
HETATM   18  O   UNK N   1      32.636  17.025   6.814  0.00  0.00    -0.256 OA
BRANCH  18  19
HETATM   19  C   UNK N   1      32.902  16.682   5.524  0.00  0.00     0.080 A 
HETATM   20  C   UNK N   1      32.434  17.457   4.443  0.00  0.00     0.037 A 
HETATM   21  C   UNK N   1      32.674  17.054   3.127  0.00  0.00     0.003 A 
HETATM   22  C   UNK N   1      33.383  15.877   2.876  0.00  0.00     0.000 A 
HETATM   23  C   UNK N   1      33.857  15.106   3.943  0.00  0.00     0.003 A 
HETATM   24  C   UNK N   1      33.612  15.506   5.262  0.00  0.00     0.037 A 
ENDBRANCH  18  19
ENDBRANCH   8  18
ENDBRANCH   7   8
ENDBRANCH   6   7
ENDBRANCH   1   6
BRANCH   2  25
HETATM   25  O   UNK N   1      36.812  16.181  10.889  0.00  0.00    -0.393 OA
HETATM   26  H   UNK N   1      37.615  16.264  11.426  0.00  0.00     0.210 HD
ENDBRANCH   2  25
BRANCH   4  27
HETATM   27  N   UNK N   1      35.433  12.967  12.568  0.00  0.00    -0.281 N 
HETATM   28  C   UNK N   1      35.212  11.631  12.681  0.00  0.00     0.115 A 
HETATM   29  C   UNK N   1      35.601  10.924  13.802  0.00  0.00     0.048 A 
HETATM   30  C   UNK N   1      36.226  11.625  14.850  0.00  0.00     0.261 A 
HETATM   31  O   UNK N   1      36.583  11.053  15.863  0.00  0.00    -0.267 OA
HETATM   32  N   UNK N   1      36.442  12.973  14.724  0.00  0.00    -0.275 N 
HETATM   33  C   UNK N   1      36.056  13.646  13.596  0.00  0.00     0.331 A 
HETATM   34  H   UNK N   1      36.880  13.464  15.457  0.00  0.00     0.173 HD
HETATM   35  O   UNK N   1      36.270  14.845  13.508  0.00  0.00    -0.246 OA
BRANCH  29  36
HETATM   36  C   UNK N   1      35.350   9.472  13.774  0.00  0.00     0.026 C 
HETATM   37  C   UNK N   1      36.214   8.559  13.346  0.00  0.00     0.057 C 
HETATM   38 Br   UNK N   1      35.658   6.735  13.321  0.00  0.00    -0.064 Br
ENDBRANCH  29  36
ENDBRANCH   4  27
TORSDOF 12
ENDMDL
MODEL 8
REMARK VINA RESULT:      -6.8      7.811     11.230
REMARK  12 active torsions:
REMARK  status: ('A' for Active; 'I' for Inactive)
REMARK    1  A    between atoms: C_2  and  C_3 
REMARK    2  A    between atoms: C_2  and  N_7 
REMARK    3  A    between atoms: C_3  and  O_5 
REMARK    4  A    between atoms: N_7  and  P_8 
REMARK    5  A    between atoms: P_8  and  O_10 
REMARK    6  A    between atoms: P_8  and  O_29 
REMARK    7  A    between atoms: O_10  and  C_11 
REMARK    8  A    between atoms: C_12  and  C_11 
REMARK    9  A    between atoms: C_13  and  O_28 
REMARK   10  A    between atoms: C_15  and  N_17 
REMARK   11  A    between atoms: C_19  and  C_25 
REMARK   12  A    between atoms: O_29  and  C_30 
ROOT
HETATM    1  C   UNK N   1      25.567  15.815   4.847  0.00  0.00     0.177 C 
HETATM    2  C   UNK N   1      25.255  14.397   5.245  0.00  0.00     0.153 C 
HETATM    3  C   UNK N   1      23.756  14.395   5.189  0.00  0.00     0.088 C 
HETATM    4  C   UNK N   1      23.393  15.887   5.204  0.00  0.00     0.235 C 
HETATM    5  O   UNK N   1      24.575  16.619   5.419  0.00  0.00    -0.356 OA
ENDROOT
BRANCH   1   6
HETATM    6  C   UNK N   1      25.561  15.993   3.329  0.00  0.00     0.214 C 
BRANCH   6   7
HETATM    7  O   UNK N   1      26.582  16.890   3.016  0.00  0.00    -0.295 OA
BRANCH   7   8
HETATM    8  P   UNK N   1      27.991  16.434   3.944  0.00  0.00     0.436 P 
HETATM    9  O   UNK N   1      28.013  15.602   2.636  0.00  0.00    -0.234 OA
BRANCH   8  10
HETATM   10  N   UNK N   1      29.531  16.786   3.087  0.00  0.00    -0.314 N 
HETATM   11  H   UNK N   1      29.604  17.206   2.160  0.00  0.00     0.166 HD
BRANCH  10  12
HETATM   12  C   UNK N   1      30.658  16.384   3.914  0.00  0.00     0.183 C 
HETATM   13  C   UNK N   1      31.475  17.626   4.223  0.00  0.00     0.043 C 
BRANCH  12  14
HETATM   14  C   UNK N   1      31.504  15.361   3.191  0.00  0.00     0.281 C 
HETATM   15  O   UNK N   1      31.111  14.208   3.097  0.00  0.00    -0.263 OA
BRANCH  14  16
HETATM   16  O   UNK N   1      32.704  15.688   2.649  0.00  0.00    -0.325 OA
HETATM   17  C   UNK N   1      33.834  14.919   2.796  0.00  0.00     0.213 C 
ENDBRANCH  14  16
ENDBRANCH  12  14
ENDBRANCH  10  12
ENDBRANCH   8  10
BRANCH   8  18
HETATM   18  O   UNK N   1      28.175  18.154   3.801  0.00  0.00    -0.256 OA
BRANCH  18  19
HETATM   19  C   UNK N   1      27.858  19.012   4.809  0.00  0.00     0.080 A 
HETATM   20  C   UNK N   1      28.169  18.719   6.152  0.00  0.00     0.037 A 
HETATM   21  C   UNK N   1      27.786  19.590   7.174  0.00  0.00     0.003 A 
HETATM   22  C   UNK N   1      27.092  20.763   6.867  0.00  0.00     0.000 A 
HETATM   23  C   UNK N   1      26.787  21.065   5.536  0.00  0.00     0.003 A 
HETATM   24  C   UNK N   1      27.165  20.190   4.512  0.00  0.00     0.037 A 
ENDBRANCH  18  19
ENDBRANCH   8  18
ENDBRANCH   7   8
ENDBRANCH   6   7
ENDBRANCH   1   6
BRANCH   2  25
HETATM   25  O   UNK N   1      25.663  14.205   6.567  0.00  0.00    -0.393 OA
HETATM   26  H   UNK N   1      25.676  14.466   7.501  0.00  0.00     0.210 HD
ENDBRANCH   2  25
BRANCH   4  27
HETATM   27  N   UNK N   1      22.376  16.233   6.200  0.00  0.00    -0.281 N 
HETATM   28  C   UNK N   1      22.026  15.321   7.145  0.00  0.00     0.115 A 
HETATM   29  C   UNK N   1      21.065  15.596   8.098  0.00  0.00     0.048 A 
HETATM   30  C   UNK N   1      20.433  16.853   8.065  0.00  0.00     0.261 A 
HETATM   31  O   UNK N   1      19.574  17.145   8.877  0.00  0.00    -0.267 OA
HETATM   32  N   UNK N   1      20.794  17.764   7.106  0.00  0.00    -0.275 N 
HETATM   33  C   UNK N   1      21.759  17.468   6.181  0.00  0.00     0.331 A 
HETATM   34  H   UNK N   1      20.353  18.644   7.083  0.00  0.00     0.173 HD
HETATM   35  O   UNK N   1      22.066  18.303   5.345  0.00  0.00    -0.246 OA
BRANCH  29  36
HETATM   36  C   UNK N   1      20.819  14.540   9.096  0.00  0.00     0.026 C 
HETATM   37  C   UNK N   1      21.764  13.830   9.701  0.00  0.00     0.057 C 
HETATM   38 Br   UNK N   1      21.223  12.454  10.906  0.00  0.00    -0.064 Br
ENDBRANCH  29  36
ENDBRANCH   4  27
TORSDOF 12
ENDMDL
MODEL 9
REMARK VINA RESULT:      -6.6      2.858      3.720
REMARK  12 active torsions:
REMARK  status: ('A' for Active; 'I' for Inactive)
REMARK    1  A    between atoms: C_2  and  C_3 
REMARK    2  A    between atoms: C_2  and  N_7 
REMARK    3  A    between atoms: C_3  and  O_5 
REMARK    4  A    between atoms: N_7  and  P_8 
REMARK    5  A    between atoms: P_8  and  O_10 
REMARK    6  A    between atoms: P_8  and  O_29 
REMARK    7  A    between atoms: O_10  and  C_11 
REMARK    8  A    between atoms: C_12  and  C_11 
REMARK    9  A    between atoms: C_13  and  O_28 
REMARK   10  A    between atoms: C_15  and  N_17 
REMARK   11  A    between atoms: C_19  and  C_25 
REMARK   12  A    between atoms: O_29  and  C_30 
ROOT
HETATM    1  C   UNK N   1      32.735  16.509   8.432  0.00  0.00     0.177 C 
HETATM    2  C   UNK N   1      34.178  16.894   8.624  0.00  0.00     0.153 C 
HETATM    3  C   UNK N   1      34.865  15.574   8.442  0.00  0.00     0.088 C 
HETATM    4  C   UNK N   1      33.731  14.552   8.609  0.00  0.00     0.235 C 
HETATM    5  O   UNK N   1      32.577  15.246   9.013  0.00  0.00    -0.356 OA
ENDROOT
BRANCH   1   6
HETATM    6  C   UNK N   1      32.357  16.446   6.953  0.00  0.00     0.214 C 
BRANCH   6   7
HETATM    7  O   UNK N   1      31.181  17.180   6.797  0.00  0.00    -0.295 OA
BRANCH   7   8
HETATM    8  P   UNK N   1      30.622  16.943   5.158  0.00  0.00     0.436 P 
HETATM    9  O   UNK N   1      31.418  15.674   5.561  0.00  0.00    -0.234 OA
BRANCH   8  10
HETATM   10  N   UNK N   1      29.529  15.524   4.996  0.00  0.00    -0.314 N 
HETATM   11  H   UNK N   1      29.155  14.980   5.774  0.00  0.00     0.166 HD
BRANCH  10  12
HETATM   12  C   UNK N   1      29.257  15.270   3.590  0.00  0.00     0.183 C 
HETATM   13  C   UNK N   1      29.998  16.316   2.776  0.00  0.00     0.043 C 
BRANCH  12  14
HETATM   14  C   UNK N   1      27.771  15.344   3.319  0.00  0.00     0.281 C 
HETATM   15  O   UNK N   1      26.986  15.361   4.255  0.00  0.00    -0.263 OA
BRANCH  14  16
HETATM   16  O   UNK N   1      27.282  15.382   2.055  0.00  0.00    -0.325 OA
HETATM   17  C   UNK N   1      25.938  15.360   1.764  0.00  0.00     0.213 C 
ENDBRANCH  14  16
ENDBRANCH  12  14
ENDBRANCH  10  12
ENDBRANCH   8  10
BRANCH   8  18
HETATM   18  O   UNK N   1      29.148  17.266   6.016  0.00  0.00    -0.256 OA
BRANCH  18  19
HETATM   19  C   UNK N   1      28.431  18.410   5.836  0.00  0.00     0.080 A 
HETATM   20  C   UNK N   1      28.100  18.878   4.548  0.00  0.00     0.037 A 
HETATM   21  C   UNK N   1      27.410  20.082   4.388  0.00  0.00     0.003 A 
HETATM   22  C   UNK N   1      27.041  20.828   5.510  0.00  0.00     0.000 A 
HETATM   23  C   UNK N   1      27.358  20.366   6.791  0.00  0.00     0.003 A 
HETATM   24  C   UNK N   1      28.054  19.163   6.952  0.00  0.00     0.037 A 
ENDBRANCH  18  19
ENDBRANCH   8  18
ENDBRANCH   7   8
ENDBRANCH   6   7
ENDBRANCH   1   6
BRANCH   2  25
HETATM   25  O   UNK N   1      34.354  17.322   9.942  0.00  0.00    -0.393 OA
HETATM   26  H   UNK N   1      34.921  17.560  10.692  0.00  0.00     0.210 HD
ENDBRANCH   2  25
BRANCH   4  27
HETATM   27  N   UNK N   1      34.048  13.474   9.551  0.00  0.00    -0.281 N 
HETATM   28  C   UNK N   1      34.852  13.730  10.617  0.00  0.00     0.115 A 
HETATM   29  C   UNK N   1      35.187  12.746  11.525  0.00  0.00     0.048 A 
HETATM   30  C   UNK N   1      34.686  11.447  11.318  0.00  0.00     0.261 A 
HETATM   31  O   UNK N   1      34.956  10.541  12.084  0.00  0.00    -0.267 OA
HETATM   32  N   UNK N   1      33.877  11.201  10.239  0.00  0.00    -0.275 N 
HETATM   33  C   UNK N   1      33.551  12.200   9.361  0.00  0.00     0.331 A 
HETATM   34  H   UNK N   1      33.526  10.293  10.094  0.00  0.00     0.173 HD
HETATM   35  O   UNK N   1      32.821  11.954   8.414  0.00  0.00    -0.246 OA
BRANCH  29  36
HETATM   36  C   UNK N   1      36.023  13.170  12.663  0.00  0.00     0.026 C 
HETATM   37  C   UNK N   1      35.563  13.483  13.869  0.00  0.00     0.057 C 
HETATM   38 Br   UNK N   1      36.812  14.084  15.179  0.00  0.00    -0.064 Br
ENDBRANCH  29  36
ENDBRANCH   4  27
TORSDOF 12
ENDMDL
