MODEL 1
REMARK VINA RESULT:      -6.9      0.000      0.000
REMARK  9 active torsions:
REMARK  status: ('A' for Active; 'I' for Inactive)
REMARK    1  A    between atoms: C_13  and  O_3 
REMARK    2  A    between atoms: C_16  and  O_4 
REMARK    3  A    between atoms: O_4  and  C_22 
REMARK       I    between atoms: N_7  and  C_22 
REMARK    4  A    between atoms: C_26  and  N_7 
REMARK       I    between atoms: N_8  and  C_28 
REMARK    5  A    between atoms: C_9  and  C_11 
REMARK    6  A    between atoms: C_12  and  C_19 
REMARK    7  A    between atoms: C_19  and  C_20 
REMARK    8  A    between atoms: C_26  and  C_27 
REMARK    9  A    between atoms: C_26  and  C_28 
ROOT
HETATM    1  O   UNK N   1      21.899  18.506   6.374  0.00  0.00    -0.374 OA
HETATM    2  C   UNK N   1      22.631  16.221   6.548  0.00  0.00     0.091 C 
HETATM    3  C   UNK N   1      22.501  17.478   5.607  0.00  0.00     0.091 A 
HETATM    4  C   UNK N   1      23.874  15.370   6.090  0.00  0.00     0.160 C 
HETATM    5  C   UNK N   1      21.241  18.152   5.199  0.00  0.00     0.207 A 
HETATM    6  C   UNK N   1      23.749  18.077   4.980  0.00  0.00     0.043 C 
HETATM    7  C   UNK N   1      25.003  15.964   5.223  0.00  0.00     0.163 C 
HETATM    8  C   UNK N   1      24.501  17.000   4.235  0.00  0.00     0.038 C 
ENDROOT
BRANCH   7   9
HETATM    9  O   UNK N   1      26.160  16.359   5.879  0.00  0.00    -0.296 OA
BRANCH   9  10
HETATM   10  C   UNK N   1      27.389  16.568   5.343  0.00  0.00     0.361 C 
HETATM   11  O   UNK N   1      27.885  15.745   4.583  0.00  0.00    -0.238 OA
HETATM   12  N   UNK N   1      28.078  17.702   5.621  0.00  0.00    -0.323 N 
HETATM   13  H   UNK N   1      28.932  17.841   5.152  0.00  0.00     0.165 HD
BRANCH  12  14
HETATM   14  C   UNK N   1      27.650  18.736   6.561  0.00  0.00     0.182 C 
BRANCH  14  15
HETATM   15  C   UNK N   1      27.650  20.152   5.952  0.00  0.00     0.009 C 
HETATM   16  C   UNK N   1      27.407  20.202   4.454  0.00  0.00     0.012 C 
HETATM   17  C   UNK N   1      26.669  21.062   6.670  0.00  0.00     0.012 C 
ENDBRANCH  14  15
BRANCH  14  18
HETATM   18  C   UNK N   1      28.314  18.656   7.917  0.00  0.00     0.238 C 
HETATM   19  O   UNK N   1      29.528  18.710   8.026  0.00  0.00    -0.271 OA
HETATM   20  N   UNK N   1      27.557  18.489   9.020  0.00  0.00    -0.368 N 
HETATM   21  H   UNK N   1      26.662  18.842   9.226  0.00  0.00     0.159 HD
HETATM   22  H   UNK N   1      27.959  17.930   9.723  0.00  0.00     0.159 HD
ENDBRANCH  14  18
ENDBRANCH  12  14
ENDBRANCH   9  10
ENDBRANCH   7   9
BRANCH   4  23
HETATM   23  O   UNK N   1      24.297  14.326   6.943  0.00  0.00    -0.388 OA
HETATM   24  C   UNK N   1      24.522  13.177   6.173  0.00  0.00     0.202 C 
ENDBRANCH   4  23
BRANCH   2  25
HETATM   25  C   UNK N   1      21.400  15.228   6.633  0.00  0.00     0.093 A 
HETATM   26  O   UNK N   1      20.381  15.747   7.458  0.00  0.00    -0.369 OA
HETATM   27  C   UNK N   1      20.778  14.414   7.710  0.00  0.00     0.160 A 
HETATM   28  C   UNK N   1      20.851  14.672   5.327  0.00  0.00     0.049 C 
BRANCH  27  29
HETATM   29  C   UNK N   1      21.498  14.248   9.029  0.00  0.00     0.062 C 
BRANCH  29  30
HETATM   30  C   UNK N   1      20.600  13.525   9.995  0.00  0.00    -0.022 C 
HETATM   31  C   UNK N   1      21.042  12.618  10.884  0.00  0.00    -0.091 C 
HETATM   32  C   UNK N   1      20.067  11.948  11.787  0.00  0.00     0.042 C 
HETATM   33  C   UNK N   1      22.490  12.252  10.988  0.00  0.00     0.042 C 
ENDBRANCH  29  30
ENDBRANCH  27  29
ENDBRANCH   2  25
TORSDOF 9
ENDMDL
MODEL 2
REMARK VINA RESULT:      -6.8      1.818      2.763
REMARK  9 active torsions:
REMARK  status: ('A' for Active; 'I' for Inactive)
REMARK    1  A    between atoms: C_13  and  O_3 
REMARK    2  A    between atoms: C_16  and  O_4 
REMARK    3  A    between atoms: O_4  and  C_22 
REMARK       I    between atoms: N_7  and  C_22 
REMARK    4  A    between atoms: C_26  and  N_7 
REMARK       I    between atoms: N_8  and  C_28 
REMARK    5  A    between atoms: C_9  and  C_11 
REMARK    6  A    between atoms: C_12  and  C_19 
REMARK    7  A    between atoms: C_19  and  C_20 
REMARK    8  A    between atoms: C_26  and  C_27 
REMARK    9  A    between atoms: C_26  and  C_28 
ROOT
HETATM    1  O   UNK N   1      20.466  17.013   8.796  0.00  0.00    -0.374 OA
HETATM    2  C   UNK N   1      21.644  15.658   7.194  0.00  0.00     0.091 C 
HETATM    3  C   UNK N   1      20.628  16.846   7.399  0.00  0.00     0.091 A 
HETATM    4  C   UNK N   1      22.424  15.884   5.846  0.00  0.00     0.160 C 
HETATM    5  C   UNK N   1      19.303  16.773   8.068  0.00  0.00     0.207 A 
HETATM    6  C   UNK N   1      20.956  18.218   6.832  0.00  0.00     0.043 C 
HETATM    7  C   UNK N   1      22.510  17.266   5.165  0.00  0.00     0.163 C 
HETATM    8  C   UNK N   1      21.252  18.092   5.356  0.00  0.00     0.038 C 
ENDROOT
BRANCH   7   9
HETATM    9  O   UNK N   1      23.671  17.996   5.366  0.00  0.00    -0.296 OA
BRANCH   9  10
HETATM   10  C   UNK N   1      24.320  18.787   4.473  0.00  0.00     0.361 C 
HETATM   11  O   UNK N   1      23.734  19.232   3.495  0.00  0.00    -0.238 OA
HETATM   12  N   UNK N   1      25.620  19.119   4.666  0.00  0.00    -0.323 N 
HETATM   13  H   UNK N   1      26.026  19.752   4.031  0.00  0.00     0.165 HD
BRANCH  12  14
HETATM   14  C   UNK N   1      26.468  18.610   5.741  0.00  0.00     0.182 C 
BRANCH  14  15
HETATM   15  C   UNK N   1      27.696  19.497   6.022  0.00  0.00     0.009 C 
HETATM   16  C   UNK N   1      27.450  20.989   5.888  0.00  0.00     0.012 C 
HETATM   17  C   UNK N   1      28.302  19.189   7.380  0.00  0.00     0.012 C 
ENDBRANCH  14  15
BRANCH  14  18
HETATM   18  C   UNK N   1      26.792  17.137   5.634  0.00  0.00     0.238 C 
HETATM   19  O   UNK N   1      27.634  16.735   4.848  0.00  0.00    -0.271 OA
HETATM   20  N   UNK N   1      26.117  16.250   6.392  0.00  0.00    -0.368 N 
HETATM   21  H   UNK N   1      25.777  16.341   7.311  0.00  0.00     0.159 HD
HETATM   22  H   UNK N   1      25.937  15.382   5.963  0.00  0.00     0.159 HD
ENDBRANCH  14  18
ENDBRANCH  12  14
ENDBRANCH   9  10
ENDBRANCH   7   9
BRANCH   4  23
HETATM   23  O   UNK N   1      23.538  15.053   5.593  0.00  0.00    -0.388 OA
HETATM   24  C   UNK N   1      23.498  14.639   4.254  0.00  0.00     0.202 C 
ENDBRANCH   4  23
BRANCH   2  25
HETATM   25  C   UNK N   1      21.062  14.186   7.149  0.00  0.00     0.093 A 
HETATM   26  O   UNK N   1      20.450  13.841   8.371  0.00  0.00    -0.369 OA
HETATM   27  C   UNK N   1      21.375  12.911   7.845  0.00  0.00     0.160 A 
HETATM   28  C   UNK N   1      20.205  13.803   5.952  0.00  0.00     0.049 C 
BRANCH  27  29
HETATM   29  C   UNK N   1      22.639  12.800   8.666  0.00  0.00     0.062 C 
BRANCH  29  30
HETATM   30  C   UNK N   1      22.279  12.462  10.087  0.00  0.00    -0.022 C 
HETATM   31  C   UNK N   1      23.188  12.189  11.039  0.00  0.00    -0.091 C 
HETATM   32  C   UNK N   1      22.725  11.852  12.412  0.00  0.00     0.042 C 
HETATM   33  C   UNK N   1      24.658  12.202  10.758  0.00  0.00     0.042 C 
ENDBRANCH  29  30
ENDBRANCH  27  29
ENDBRANCH   2  25
TORSDOF 9
ENDMDL
MODEL 3
REMARK VINA RESULT:      -6.7      9.342     12.546
REMARK  9 active torsions:
REMARK  status: ('A' for Active; 'I' for Inactive)
REMARK    1  A    between atoms: C_13  and  O_3 
REMARK    2  A    between atoms: C_16  and  O_4 
REMARK    3  A    between atoms: O_4  and  C_22 
REMARK       I    between atoms: N_7  and  C_22 
REMARK    4  A    between atoms: C_26  and  N_7 
REMARK       I    between atoms: N_8  and  C_28 
REMARK    5  A    between atoms: C_9  and  C_11 
REMARK    6  A    between atoms: C_12  and  C_19 
REMARK    7  A    between atoms: C_19  and  C_20 
REMARK    8  A    between atoms: C_26  and  C_27 
REMARK    9  A    between atoms: C_26  and  C_28 
ROOT
HETATM    1  O   UNK N   1      34.215  10.530   9.885  0.00  0.00    -0.374 OA
HETATM    2  C   UNK N   1      34.994  12.074  11.556  0.00  0.00     0.091 C 
HETATM    3  C   UNK N   1      35.181  11.546  10.083  0.00  0.00     0.091 A 
HETATM    4  C   UNK N   1      35.436  13.584  11.614  0.00  0.00     0.160 C 
HETATM    5  C   UNK N   1      35.543  10.163   9.677  0.00  0.00     0.207 A 
HETATM    6  C   UNK N   1      35.042  12.512   8.918  0.00  0.00     0.043 C 
HETATM    7  C   UNK N   1      35.529  14.464  10.350  0.00  0.00     0.163 C 
HETATM    8  C   UNK N   1      35.971  13.685   9.125  0.00  0.00     0.038 C 
ENDROOT
BRANCH   7   9
HETATM    9  O   UNK N   1      34.465  15.315  10.095  0.00  0.00    -0.296 OA
BRANCH   9  10
HETATM   10  C   UNK N   1      34.507  16.652   9.863  0.00  0.00     0.361 C 
HETATM   11  O   UNK N   1      35.366  17.348  10.388  0.00  0.00    -0.238 OA
HETATM   12  N   UNK N   1      33.613  17.234   9.025  0.00  0.00    -0.323 N 
HETATM   13  H   UNK N   1      33.729  18.192   8.833  0.00  0.00     0.165 HD
BRANCH  12  14
HETATM   14  C   UNK N   1      32.493  16.550   8.385  0.00  0.00     0.182 C 
BRANCH  14  15
HETATM   15  C   UNK N   1      32.730  16.257   6.890  0.00  0.00     0.009 C 
HETATM   16  C   UNK N   1      33.795  17.117   6.233  0.00  0.00     0.012 C 
HETATM   17  C   UNK N   1      33.028  14.787   6.655  0.00  0.00     0.012 C 
ENDBRANCH  14  15
BRANCH  14  18
HETATM   18  C   UNK N   1      31.141  17.160   8.679  0.00  0.00     0.238 C 
HETATM   19  O   UNK N   1      30.659  18.003   7.940  0.00  0.00    -0.271 OA
HETATM   20  N   UNK N   1      30.473  16.794   9.791  0.00  0.00    -0.368 N 
HETATM   21  H   UNK N   1      30.427  15.917  10.235  0.00  0.00     0.159 HD
HETATM   22  H   UNK N   1      29.955  17.510  10.224  0.00  0.00     0.159 HD
ENDBRANCH  14  18
ENDBRANCH  12  14
ENDBRANCH   9  10
ENDBRANCH   7   9
BRANCH   4  23
HETATM   23  O   UNK N   1      35.131  14.306  12.791  0.00  0.00    -0.388 OA
HETATM   24  C   UNK N   1      36.306  14.899  13.272  0.00  0.00     0.202 C 
ENDBRANCH   4  23
BRANCH   2  25
HETATM   25  C   UNK N   1      35.768  11.323  12.716  0.00  0.00     0.093 A 
HETATM   26  O   UNK N   1      35.178  10.076  13.000  0.00  0.00    -0.369 OA
HETATM   27  C   UNK N   1      35.440  10.916  14.107  0.00  0.00     0.160 A 
HETATM   28  C   UNK N   1      37.283  11.227  12.605  0.00  0.00     0.049 C 
BRANCH  27  29
HETATM   29  C   UNK N   1      34.184  11.445  14.762  0.00  0.00     0.062 C 
BRANCH  29  30
HETATM   30  C   UNK N   1      34.543  12.596  15.662  0.00  0.00    -0.022 C 
HETATM   31  C   UNK N   1      34.990  12.443  16.920  0.00  0.00    -0.091 C 
HETATM   32  C   UNK N   1      35.304  13.650  17.733  0.00  0.00     0.042 C 
HETATM   33  C   UNK N   1      35.173  11.092  17.537  0.00  0.00     0.042 C 
ENDBRANCH  29  30
ENDBRANCH  27  29
ENDBRANCH   2  25
TORSDOF 9
ENDMDL
MODEL 4
REMARK VINA RESULT:      -6.5      1.705      2.165
REMARK  9 active torsions:
REMARK  status: ('A' for Active; 'I' for Inactive)
REMARK    1  A    between atoms: C_13  and  O_3 
REMARK    2  A    between atoms: C_16  and  O_4 
REMARK    3  A    between atoms: O_4  and  C_22 
REMARK       I    between atoms: N_7  and  C_22 
REMARK    4  A    between atoms: C_26  and  N_7 
REMARK       I    between atoms: N_8  and  C_28 
REMARK    5  A    between atoms: C_9  and  C_11 
REMARK    6  A    between atoms: C_12  and  C_19 
REMARK    7  A    between atoms: C_19  and  C_20 
REMARK    8  A    between atoms: C_26  and  C_27 
REMARK    9  A    between atoms: C_26  and  C_28 
ROOT
HETATM    1  O   UNK N   1      20.896  16.840   8.062  0.00  0.00    -0.374 OA
HETATM    2  C   UNK N   1      22.011  15.059   6.891  0.00  0.00     0.091 C 
HETATM    3  C   UNK N   1      21.149  16.371   6.751  0.00  0.00     0.091 A 
HETATM    4  C   UNK N   1      22.922  14.911   5.616  0.00  0.00     0.160 C 
HETATM    5  C   UNK N   1      19.775  16.588   7.275  0.00  0.00     0.207 A 
HETATM    6  C   UNK N   1      21.700  17.549   5.965  0.00  0.00     0.043 C 
HETATM    7  C   UNK N   1      23.246  16.103   4.692  0.00  0.00     0.163 C 
HETATM    8  C   UNK N   1      22.097  17.088   4.582  0.00  0.00     0.038 C 
ENDROOT
BRANCH   7   9
HETATM    9  O   UNK N   1      24.473  16.723   4.870  0.00  0.00    -0.296 OA
BRANCH   9  10
HETATM   10  C   UNK N   1      25.484  16.839   3.970  0.00  0.00     0.361 C 
HETATM   11  O   UNK N   1      25.524  16.115   2.984  0.00  0.00    -0.238 OA
HETATM   12  N   UNK N   1      26.450  17.775   4.137  0.00  0.00    -0.323 N 
HETATM   13  H   UNK N   1      27.120  17.869   3.422  0.00  0.00     0.165 HD
BRANCH  12  14
HETATM   14  C   UNK N   1      26.574  18.658   5.295  0.00  0.00     0.182 C 
BRANCH  14  15
HETATM   15  C   UNK N   1      26.354  20.145   4.955  0.00  0.00     0.009 C 
HETATM   16  C   UNK N   1      27.124  21.120   5.829  0.00  0.00     0.012 C 
HETATM   17  C   UNK N   1      26.635  20.425   3.489  0.00  0.00     0.012 C 
ENDBRANCH  14  15
BRANCH  14  18
HETATM   18  C   UNK N   1      27.799  18.401   6.144  0.00  0.00     0.238 C 
HETATM   19  O   UNK N   1      28.903  18.290   5.635  0.00  0.00    -0.271 OA
HETATM   20  N   UNK N   1      27.666  18.259   7.477  0.00  0.00    -0.368 N 
HETATM   21  H   UNK N   1      27.051  18.711   8.098  0.00  0.00     0.159 HD
HETATM   22  H   UNK N   1      28.275  17.607   7.892  0.00  0.00     0.159 HD
ENDBRANCH  14  18
ENDBRANCH  12  14
ENDBRANCH   9  10
ENDBRANCH   7   9
BRANCH   4  23
HETATM   23  O   UNK N   1      23.933  13.924   5.651  0.00  0.00    -0.388 OA
HETATM   24  C   UNK N   1      23.909  13.211   4.445  0.00  0.00     0.202 C 
ENDBRANCH   4  23
BRANCH   2  25
HETATM   25  C   UNK N   1      21.244  13.685   7.072  0.00  0.00     0.093 A 
HETATM   26  O   UNK N   1      20.646  13.597   8.345  0.00  0.00    -0.369 OA
HETATM   27  C   UNK N   1      21.421  12.489   7.936  0.00  0.00     0.160 A 
HETATM   28  C   UNK N   1      20.296  13.256   5.963  0.00  0.00     0.049 C 
BRANCH  27  29
HETATM   29  C   UNK N   1      22.695  12.327   8.734  0.00  0.00     0.062 C 
BRANCH  29  30
HETATM   30  C   UNK N   1      22.348  12.133  10.185  0.00  0.00    -0.022 C 
HETATM   31  C   UNK N   1      23.264  12.087  11.168  0.00  0.00    -0.091 C 
HETATM   32  C   UNK N   1      22.817  11.876  12.571  0.00  0.00     0.042 C 
HETATM   33  C   UNK N   1      24.729  12.231  10.893  0.00  0.00     0.042 C 
ENDBRANCH  29  30
ENDBRANCH  27  29
ENDBRANCH   2  25
TORSDOF 9
ENDMDL
MODEL 5
REMARK VINA RESULT:      -6.3      7.924     11.400
REMARK  9 active torsions:
REMARK  status: ('A' for Active; 'I' for Inactive)
REMARK    1  A    between atoms: C_13  and  O_3 
REMARK    2  A    between atoms: C_16  and  O_4 
REMARK    3  A    between atoms: O_4  and  C_22 
REMARK       I    between atoms: N_7  and  C_22 
REMARK    4  A    between atoms: C_26  and  N_7 
REMARK       I    between atoms: N_8  and  C_28 
REMARK    5  A    between atoms: C_9  and  C_11 
REMARK    6  A    between atoms: C_12  and  C_19 
REMARK    7  A    between atoms: C_19  and  C_20 
REMARK    8  A    between atoms: C_26  and  C_27 
REMARK    9  A    between atoms: C_26  and  C_28 
ROOT
HETATM    1  O   UNK N   1      33.688  11.519   8.874  0.00  0.00    -0.374 OA
HETATM    2  C   UNK N   1      34.620  13.376  10.087  0.00  0.00     0.091 C 
HETATM    3  C   UNK N   1      34.451  12.695   8.676  0.00  0.00     0.091 A 
HETATM    4  C   UNK N   1      34.755  14.932   9.889  0.00  0.00     0.160 C 
HETATM    5  C   UNK N   1      34.935  11.348   8.278  0.00  0.00     0.207 A 
HETATM    6  C   UNK N   1      33.779  13.464   7.549  0.00  0.00     0.043 C 
HETATM    7  C   UNK N   1      34.288  15.641   8.600  0.00  0.00     0.163 C 
HETATM    8  C   UNK N   1      34.481  14.789   7.360  0.00  0.00     0.038 C 
ENDROOT
BRANCH   7   9
HETATM    9  O   UNK N   1      33.052  16.267   8.639  0.00  0.00    -0.296 OA
BRANCH   9  10
HETATM   10  C   UNK N   1      32.765  17.559   8.335  0.00  0.00     0.361 C 
HETATM   11  O   UNK N   1      33.664  18.374   8.172  0.00  0.00    -0.238 OA
HETATM   12  N   UNK N   1      31.479  17.962   8.184  0.00  0.00    -0.323 N 
HETATM   13  H   UNK N   1      31.326  18.890   7.893  0.00  0.00     0.165 HD
BRANCH  12  14
HETATM   14  C   UNK N   1      30.304  17.126   8.417  0.00  0.00     0.182 C 
BRANCH  14  15
HETATM   15  C   UNK N   1      29.577  16.720   7.120  0.00  0.00     0.009 C 
HETATM   16  C   UNK N   1      29.009  17.877   6.318  0.00  0.00     0.012 C 
HETATM   17  C   UNK N   1      30.461  15.857   6.237  0.00  0.00     0.012 C 
ENDBRANCH  14  15
BRANCH  14  18
HETATM   18  C   UNK N   1      29.380  17.640   9.498  0.00  0.00     0.238 C 
HETATM   19  O   UNK N   1      28.283  17.136   9.678  0.00  0.00    -0.271 OA
HETATM   20  N   UNK N   1      29.758  18.691  10.253  0.00  0.00    -0.368 N 
HETATM   21  H   UNK N   1      30.652  18.937  10.583  0.00  0.00     0.159 HD
HETATM   22  H   UNK N   1      29.033  19.303  10.512  0.00  0.00     0.159 HD
ENDBRANCH  14  18
ENDBRANCH  12  14
ENDBRANCH   9  10
ENDBRANCH   7   9
BRANCH   4  23
HETATM   23  O   UNK N   1      34.687  15.743  11.044  0.00  0.00    -0.388 OA
HETATM   24  C   UNK N   1      35.637  16.768  10.931  0.00  0.00     0.202 C 
ENDBRANCH   4  23
BRANCH   2  25
HETATM   25  C   UNK N   1      35.840  12.919  10.988  0.00  0.00     0.093 A 
HETATM   26  O   UNK N   1      35.602  11.657  11.569  0.00  0.00    -0.369 OA
HETATM   27  C   UNK N   1      36.042  12.678  12.440  0.00  0.00     0.160 A 
HETATM   28  C   UNK N   1      37.235  13.019  10.389  0.00  0.00     0.049 C 
BRANCH  27  29
HETATM   29  C   UNK N   1      34.981  13.118  13.423  0.00  0.00     0.062 C 
BRANCH  29  30
HETATM   30  C   UNK N   1      35.325  12.593  14.791  0.00  0.00    -0.022 C 
HETATM   31  C   UNK N   1      34.720  11.531  15.352  0.00  0.00    -0.091 C 
HETATM   32  C   UNK N   1      35.125  11.100  16.717  0.00  0.00     0.042 C 
HETATM   33  C   UNK N   1      33.639  10.772  14.648  0.00  0.00     0.042 C 
ENDBRANCH  29  30
ENDBRANCH  27  29
ENDBRANCH   2  25
TORSDOF 9
ENDMDL
MODEL 6
REMARK VINA RESULT:      -6.2     10.898     14.078
REMARK  9 active torsions:
REMARK  status: ('A' for Active; 'I' for Inactive)
REMARK    1  A    between atoms: C_13  and  O_3 
REMARK    2  A    between atoms: C_16  and  O_4 
REMARK    3  A    between atoms: O_4  and  C_22 
REMARK       I    between atoms: N_7  and  C_22 
REMARK    4  A    between atoms: C_26  and  N_7 
REMARK       I    between atoms: N_8  and  C_28 
REMARK    5  A    between atoms: C_9  and  C_11 
REMARK    6  A    between atoms: C_12  and  C_19 
REMARK    7  A    between atoms: C_19  and  C_20 
REMARK    8  A    between atoms: C_26  and  C_27 
REMARK    9  A    between atoms: C_26  and  C_28 
ROOT
HETATM    1  O   UNK N   1      35.685   9.629  11.559  0.00  0.00    -0.374 OA
HETATM    2  C   UNK N   1      36.135  11.372  13.154  0.00  0.00     0.091 C 
HETATM    3  C   UNK N   1      36.531  10.746  11.763  0.00  0.00     0.091 A 
HETATM    4  C   UNK N   1      36.434  12.917  13.119  0.00  0.00     0.160 C 
HETATM    5  C   UNK N   1      37.054   9.376  11.525  0.00  0.00     0.207 A 
HETATM    6  C   UNK N   1      36.440  11.596  10.506  0.00  0.00     0.043 C 
HETATM    7  C   UNK N   1      36.593  13.696  11.797  0.00  0.00     0.163 C 
HETATM    8  C   UNK N   1      37.235  12.865  10.701  0.00  0.00     0.038 C 
ENDROOT
BRANCH   7   9
HETATM    9  O   UNK N   1      35.494  14.417  11.354  0.00  0.00    -0.296 OA
BRANCH   9  10
HETATM   10  C   UNK N   1      35.491  15.572  10.641  0.00  0.00     0.361 C 
HETATM   11  O   UNK N   1      36.351  16.422  10.829  0.00  0.00    -0.238 OA
HETATM   12  N   UNK N   1      34.549  15.791   9.691  0.00  0.00    -0.323 N 
HETATM   13  H   UNK N   1      34.630  16.611   9.151  0.00  0.00     0.165 HD
BRANCH  12  14
HETATM   14  C   UNK N   1      33.422  14.906   9.404  0.00  0.00     0.182 C 
BRANCH  14  15
HETATM   15  C   UNK N   1      33.641  14.023   8.160  0.00  0.00     0.009 C 
HETATM   16  C   UNK N   1      34.924  14.302   7.397  0.00  0.00     0.012 C 
HETATM   17  C   UNK N   1      33.551  12.547   8.506  0.00  0.00     0.012 C 
ENDBRANCH  14  15
BRANCH  14  18
HETATM   18  C   UNK N   1      32.072  15.587   9.438  0.00  0.00     0.238 C 
HETATM   19  O   UNK N   1      31.756  16.396   8.581  0.00  0.00    -0.271 OA
HETATM   20  N   UNK N   1      31.219  15.322  10.447  0.00  0.00    -0.368 N 
HETATM   21  H   UNK N   1      31.060  14.479  10.930  0.00  0.00     0.159 HD
HETATM   22  H   UNK N   1      30.674  16.085  10.746  0.00  0.00     0.159 HD
ENDBRANCH  14  18
ENDBRANCH  12  14
ENDBRANCH   9  10
ENDBRANCH   7   9
BRANCH   4  23
HETATM   23  O   UNK N   1      35.939  13.700  14.186  0.00  0.00    -0.388 OA
HETATM   24  C   UNK N   1      36.876  14.698  14.487  0.00  0.00     0.202 C 
ENDBRANCH   4  23
BRANCH   2  25
HETATM   25  C   UNK N   1      36.836  10.796  14.452  0.00  0.00     0.093 A 
HETATM   26  O   UNK N   1      36.297   9.545  14.812  0.00  0.00    -0.369 OA
HETATM   27  C   UNK N   1      36.398  10.506  15.842  0.00  0.00     0.160 A 
HETATM   28  C   UNK N   1      38.357  10.796  14.490  0.00  0.00     0.049 C 
BRANCH  27  29
HETATM   29  C   UNK N   1      35.055  11.009  16.321  0.00  0.00     0.062 C 
BRANCH  29  30
HETATM   30  C   UNK N   1      35.095  11.179  17.815  0.00  0.00    -0.022 C 
HETATM   31  C   UNK N   1      35.180  12.374  18.424  0.00  0.00    -0.091 C 
HETATM   32  C   UNK N   1      35.227  12.432  19.911  0.00  0.00     0.042 C 
HETATM   33  C   UNK N   1      35.240  13.655  17.652  0.00  0.00     0.042 C 
ENDBRANCH  29  30
ENDBRANCH  27  29
ENDBRANCH   2  25
TORSDOF 9
ENDMDL
MODEL 7
REMARK VINA RESULT:      -6.1      4.079      6.795
REMARK  9 active torsions:
REMARK  status: ('A' for Active; 'I' for Inactive)
REMARK    1  A    between atoms: C_13  and  O_3 
REMARK    2  A    between atoms: C_16  and  O_4 
REMARK    3  A    between atoms: O_4  and  C_22 
REMARK       I    between atoms: N_7  and  C_22 
REMARK    4  A    between atoms: C_26  and  N_7 
REMARK       I    between atoms: N_8  and  C_28 
REMARK    5  A    between atoms: C_9  and  C_11 
REMARK    6  A    between atoms: C_12  and  C_19 
REMARK    7  A    between atoms: C_19  and  C_20 
REMARK    8  A    between atoms: C_26  and  C_27 
REMARK    9  A    between atoms: C_26  and  C_28 
ROOT
HETATM    1  O   UNK N   1      24.884  14.291   5.919  0.00  0.00    -0.374 OA
HETATM    2  C   UNK N   1      22.847  13.398   6.836  0.00  0.00     0.091 C 
HETATM    3  C   UNK N   1      23.744  14.682   6.662  0.00  0.00     0.091 A 
HETATM    4  C   UNK N   1      21.341  13.842   6.946  0.00  0.00     0.160 C 
HETATM    5  C   UNK N   1      25.131  14.868   7.163  0.00  0.00     0.207 A 
HETATM    6  C   UNK N   1      23.172  15.908   5.968  0.00  0.00     0.043 C 
HETATM    7  C   UNK N   1      20.851  15.220   6.455  0.00  0.00     0.163 C 
HETATM    8  C   UNK N   1      21.885  16.313   6.648  0.00  0.00     0.038 C 
ENDROOT
BRANCH   7   9
HETATM    9  O   UNK N   1      20.242  15.266   5.210  0.00  0.00    -0.296 OA
BRANCH   9  10
HETATM   10  C   UNK N   1      19.129  15.958   4.854  0.00  0.00     0.361 C 
HETATM   11  O   UNK N   1      18.111  15.890   5.530  0.00  0.00    -0.238 OA
HETATM   12  N   UNK N   1      19.136  16.755   3.756  0.00  0.00    -0.323 N 
HETATM   13  H   UNK N   1      18.330  17.291   3.580  0.00  0.00     0.165 HD
BRANCH  12  14
HETATM   14  C   UNK N   1      20.247  16.881   2.816  0.00  0.00     0.182 C 
BRANCH  14  15
HETATM   15  C   UNK N   1      20.771  18.324   2.680  0.00  0.00     0.009 C 
HETATM   16  C   UNK N   1      19.701  19.399   2.738  0.00  0.00     0.012 C 
HETATM   17  C   UNK N   1      21.859  18.616   3.698  0.00  0.00     0.012 C 
ENDBRANCH  14  15
BRANCH  14  18
HETATM   18  C   UNK N   1      20.022  16.187   1.491  0.00  0.00     0.238 C 
HETATM   19  O   UNK N   1      20.524  16.616   0.465  0.00  0.00    -0.271 OA
HETATM   20  N   UNK N   1      19.229  15.099   1.436  0.00  0.00    -0.368 N 
HETATM   21  H   UNK N   1      19.108  14.376   2.094  0.00  0.00     0.159 HD
HETATM   22  H   UNK N   1      18.691  15.013   0.617  0.00  0.00     0.159 HD
ENDBRANCH  14  18
ENDBRANCH  12  14
ENDBRANCH   9  10
ENDBRANCH   7   9
BRANCH   4  23
HETATM   23  O   UNK N   1      20.358  12.829   6.877  0.00  0.00    -0.388 OA
HETATM   24  C   UNK N   1      20.552  12.092   5.701  0.00  0.00     0.202 C 
ENDBRANCH   4  23
BRANCH   2  25
HETATM   25  C   UNK N   1      23.139  12.452   8.071  0.00  0.00     0.093 A 
HETATM   26  O   UNK N   1      24.472  11.993   8.060  0.00  0.00    -0.369 OA
HETATM   27  C   UNK N   1      23.470  11.013   8.238  0.00  0.00     0.160 A 
HETATM   28  C   UNK N   1      22.715  12.939   9.449  0.00  0.00     0.049 C 
BRANCH  27  29
HETATM   29  C   UNK N   1      23.338  10.076   7.058  0.00  0.00     0.062 C 
BRANCH  29  30
HETATM   30  C   UNK N   1      23.852   8.717   7.446  0.00  0.00    -0.022 C 
HETATM   31  C   UNK N   1      23.312   7.566   7.009  0.00  0.00    -0.091 C 
HETATM   32  C   UNK N   1      23.889   6.272   7.465  0.00  0.00     0.042 C 
HETATM   33  C   UNK N   1      22.136   7.544   6.083  0.00  0.00     0.042 C 
ENDBRANCH  29  30
ENDBRANCH  27  29
ENDBRANCH   2  25
TORSDOF 9
ENDMDL
MODEL 8
REMARK VINA RESULT:      -6.0     13.813     16.494
REMARK  9 active torsions:
REMARK  status: ('A' for Active; 'I' for Inactive)
REMARK    1  A    between atoms: C_13  and  O_3 
REMARK    2  A    between atoms: C_16  and  O_4 
REMARK    3  A    between atoms: O_4  and  C_22 
REMARK       I    between atoms: N_7  and  C_22 
REMARK    4  A    between atoms: C_26  and  N_7 
REMARK       I    between atoms: N_8  and  C_28 
REMARK    5  A    between atoms: C_9  and  C_11 
REMARK    6  A    between atoms: C_12  and  C_19 
REMARK    7  A    between atoms: C_19  and  C_20 
REMARK    8  A    between atoms: C_26  and  C_27 
REMARK    9  A    between atoms: C_26  and  C_28 
ROOT
HETATM    1  O   UNK N   1      29.575  23.582  -8.798  0.00  0.00    -0.374 OA
HETATM    2  C   UNK N   1      28.337  24.140  -6.813  0.00  0.00     0.091 C 
HETATM    3  C   UNK N   1      29.052  22.992  -7.622  0.00  0.00     0.091 A 
HETATM    4  C   UNK N   1      28.404  23.797  -5.278  0.00  0.00     0.160 C 
HETATM    5  C   UNK N   1      28.697  22.517  -8.985  0.00  0.00     0.207 A 
HETATM    6  C   UNK N   1      30.191  22.219  -6.979  0.00  0.00     0.043 C 
HETATM    7  C   UNK N   1      29.426  22.794  -4.702  0.00  0.00     0.163 C 
HETATM    8  C   UNK N   1      29.729  21.654  -5.656  0.00  0.00     0.038 C 
ENDROOT
BRANCH   7   9
HETATM    9  O   UNK N   1      30.564  23.322  -4.112  0.00  0.00    -0.296 OA
BRANCH   9  10
HETATM   10  C   UNK N   1      31.321  22.774  -3.127  0.00  0.00     0.361 C 
HETATM   11  O   UNK N   1      30.959  22.831  -1.960  0.00  0.00    -0.238 OA
HETATM   12  N   UNK N   1      32.478  22.132  -3.425  0.00  0.00    -0.323 N 
HETATM   13  H   UNK N   1      32.954  21.689  -2.686  0.00  0.00     0.165 HD
BRANCH  12  14
HETATM   14  C   UNK N   1      33.072  22.046  -4.757  0.00  0.00     0.182 C 
BRANCH  14  15
HETATM   15  C   UNK N   1      33.772  20.699  -5.026  0.00  0.00     0.009 C 
HETATM   16  C   UNK N   1      33.960  19.821  -3.802  0.00  0.00     0.012 C 
HETATM   17  C   UNK N   1      33.068  19.920  -6.124  0.00  0.00     0.012 C 
ENDBRANCH  14  15
BRANCH  14  18
HETATM   18  C   UNK N   1      33.898  23.250  -5.148  0.00  0.00     0.238 C 
HETATM   19  O   UNK N   1      35.117  23.194  -5.172  0.00  0.00    -0.271 OA
HETATM   20  N   UNK N   1      33.283  24.412  -5.442  0.00  0.00    -0.368 N 
HETATM   21  H   UNK N   1      32.423  24.570  -5.895  0.00  0.00     0.159 HD
HETATM   22  H   UNK N   1      33.763  25.224  -5.162  0.00  0.00     0.159 HD
ENDBRANCH  14  18
ENDBRANCH  12  14
ENDBRANCH   9  10
ENDBRANCH   7   9
BRANCH   4  23
HETATM   23  O   UNK N   1      28.023  24.809  -4.368  0.00  0.00    -0.388 OA
HETATM   24  C   UNK N   1      27.185  24.247  -3.395  0.00  0.00     0.202 C 
ENDBRANCH   4  23
BRANCH   2  25
HETATM   25  C   UNK N   1      26.821  24.451  -7.149  0.00  0.00     0.093 A 
HETATM   26  O   UNK N   1      26.686  24.991  -8.444  0.00  0.00    -0.369 OA
HETATM   27  C   UNK N   1      26.032  25.685  -7.400  0.00  0.00     0.160 A 
HETATM   28  C   UNK N   1      25.800  23.357  -6.876  0.00  0.00     0.049 C 
BRANCH  27  29
HETATM   29  C   UNK N   1      26.647  27.035  -7.108  0.00  0.00     0.062 C 
BRANCH  29  30
HETATM   30  C   UNK N   1      26.182  27.508  -5.757  0.00  0.00    -0.022 C 
HETATM   31  C   UNK N   1      26.684  28.590  -5.137  0.00  0.00    -0.091 C 
HETATM   32  C   UNK N   1      26.164  28.966  -3.794  0.00  0.00     0.042 C 
HETATM   33  C   UNK N   1      27.761  29.428  -5.752  0.00  0.00     0.042 C 
ENDBRANCH  29  30
ENDBRANCH  27  29
ENDBRANCH   2  25
TORSDOF 9
ENDMDL
MODEL 9
REMARK VINA RESULT:      -6.0      3.878      6.379
REMARK  9 active torsions:
REMARK  status: ('A' for Active; 'I' for Inactive)
REMARK    1  A    between atoms: C_13  and  O_3 
REMARK    2  A    between atoms: C_16  and  O_4 
REMARK    3  A    between atoms: O_4  and  C_22 
REMARK       I    between atoms: N_7  and  C_22 
REMARK    4  A    between atoms: C_26  and  N_7 
REMARK       I    between atoms: N_8  and  C_28 
REMARK    5  A    between atoms: C_9  and  C_11 
REMARK    6  A    between atoms: C_12  and  C_19 
REMARK    7  A    between atoms: C_19  and  C_20 
REMARK    8  A    between atoms: C_26  and  C_27 
REMARK    9  A    between atoms: C_26  and  C_28 
ROOT
HETATM    1  O   UNK N   1      26.106  15.415   1.693  0.00  0.00    -0.374 OA
HETATM    2  C   UNK N   1      26.411  16.277   3.917  0.00  0.00     0.091 C 
HETATM    3  C   UNK N   1      26.274  14.982   3.030  0.00  0.00     0.091 A 
HETATM    4  C   UNK N   1      27.301  15.942   5.172  0.00  0.00     0.160 C 
HETATM    5  C   UNK N   1      25.102  14.595   2.203  0.00  0.00     0.207 A 
HETATM    6  C   UNK N   1      27.399  13.959   3.018  0.00  0.00     0.043 C 
HETATM    7  C   UNK N   1      28.249  14.725   5.207  0.00  0.00     0.163 C 
HETATM    8  C   UNK N   1      27.706  13.537   4.436  0.00  0.00     0.038 C 
ENDROOT
BRANCH   7   9
HETATM    9  O   UNK N   1      29.592  14.965   4.956  0.00  0.00    -0.296 OA
BRANCH   9  10
HETATM   10  C   UNK N   1      30.665  14.416   5.581  0.00  0.00     0.361 C 
HETATM   11  O   UNK N   1      30.881  13.214   5.507  0.00  0.00    -0.238 OA
HETATM   12  N   UNK N   1      31.528  15.196   6.278  0.00  0.00    -0.323 N 
HETATM   13  H   UNK N   1      32.329  14.764   6.653  0.00  0.00     0.165 HD
BRANCH  12  14
HETATM   14  C   UNK N   1      31.363  16.628   6.516  0.00  0.00     0.182 C 
BRANCH  14  15
HETATM   15  C   UNK N   1      32.381  17.495   5.749  0.00  0.00     0.009 C 
HETATM   16  C   UNK N   1      33.836  17.142   5.998  0.00  0.00     0.012 C 
HETATM   17  C   UNK N   1      32.093  17.497   4.258  0.00  0.00     0.012 C 
ENDBRANCH  14  15
BRANCH  14  18
HETATM   18  C   UNK N   1      31.218  17.004   7.973  0.00  0.00     0.238 C 
HETATM   19  O   UNK N   1      30.612  18.010   8.304  0.00  0.00    -0.271 OA
HETATM   20  N   UNK N   1      31.796  16.237   8.919  0.00  0.00    -0.368 N 
HETATM   21  H   UNK N   1      31.916  15.261   8.948  0.00  0.00     0.159 HD
HETATM   22  H   UNK N   1      32.151  16.726   9.696  0.00  0.00     0.159 HD
ENDBRANCH  14  18
ENDBRANCH  12  14
ENDBRANCH   9  10
ENDBRANCH   7   9
BRANCH   4  23
HETATM   23  O   UNK N   1      27.732  17.025   5.971  0.00  0.00    -0.388 OA
HETATM   24  C   UNK N   1      27.564  16.684   7.320  0.00  0.00     0.202 C 
ENDBRANCH   4  23
BRANCH   2  25
HETATM   25  C   UNK N   1      25.083  16.946   4.461  0.00  0.00     0.093 A 
HETATM   26  O   UNK N   1      24.211  17.282   3.406  0.00  0.00    -0.369 OA
HETATM   27  C   UNK N   1      24.467  18.294   4.359  0.00  0.00     0.160 A 
HETATM   28  C   UNK N   1      24.358  16.248   5.602  0.00  0.00     0.049 C 
BRANCH  27  29
HETATM   29  C   UNK N   1      25.276  19.443   3.802  0.00  0.00     0.062 C 
BRANCH  29  30
HETATM   30  C   UNK N   1      25.694  20.347   4.930  0.00  0.00    -0.022 C 
HETATM   31  C   UNK N   1      26.976  20.597   5.246  0.00  0.00    -0.091 C 
HETATM   32  C   UNK N   1      27.282  21.496   6.392  0.00  0.00     0.042 C 
HETATM   33  C   UNK N   1      28.113  19.988   4.486  0.00  0.00     0.042 C 
ENDBRANCH  29  30
ENDBRANCH  27  29
ENDBRANCH   2  25
TORSDOF 9
ENDMDL
