MODEL 1
REMARK VINA RESULT:      -7.2      0.000      0.000
REMARK  31 active torsions:
REMARK  status: ('A' for Active; 'I' for Inactive)
REMARK    1  A    between atoms: C_56  and  O_5 
REMARK       I    between atoms: N_12  and  C_30 
REMARK    2  A    between atoms: C_31  and  N_13 
REMARK       I    between atoms: N_13  and  C_37 
REMARK       I    between atoms: N_14  and  C_32 
REMARK    3  A    between atoms: N_14  and  C_39 
REMARK    4  A    between atoms: C_34  and  N_15 
REMARK       I    between atoms: N_15  and  C_43 
REMARK    5  A    between atoms: C_42  and  N_16 
REMARK       I    between atoms: N_16  and  C_52 
REMARK    6  A    between atoms: C_44  and  N_17 
REMARK       I    between atoms: N_17  and  C_58 
REMARK    7  A    between atoms: C_48  and  N_18 
REMARK       I    between atoms: N_18  and  C_51 
REMARK    8  A    between atoms: N_19  and  C_41 
REMARK    9  A    between atoms: C_54  and  N_21 
REMARK       I    between atoms: N_21  and  C_65 
REMARK       I    between atoms: N_22  and  C_64 
REMARK       I    between atoms: N_23  and  C_64 
REMARK   10  A    between atoms: N_24  and  C_66 
REMARK       I    between atoms: N_24  and  C_67 
REMARK   11  A    between atoms: N_25  and  C_68 
REMARK       I    between atoms: N_25  and  C_70 
REMARK   12  A    between atoms: C_26  and  C_32 
REMARK   13  A    between atoms: C_30  and  C_31 
REMARK   14  A    between atoms: C_31  and  C_33 
REMARK   15  A    between atoms: C_33  and  C_36 
REMARK   16  A    between atoms: C_34  and  C_35 
REMARK   17  A    between atoms: C_34  and  C_37 
REMARK   18  A    between atoms: C_35  and  C_38 
REMARK   19  A    between atoms: C_36  and  C_41 
REMARK   20  A    between atoms: C_42  and  C_43 
REMARK   21  A    between atoms: C_42  and  C_47 
REMARK   22  A    between atoms: C_44  and  C_45 
REMARK   23  A    between atoms: C_44  and  C_51 
REMARK   24  A    between atoms: C_45  and  C_50 
REMARK   25  A    between atoms: C_47  and  C_53 
REMARK   26  A    between atoms: C_48  and  C_52 
REMARK   27  A    between atoms: C_48  and  C_56 
REMARK   28  A    between atoms: C_54  and  C_57 
REMARK   29  A    between atoms: C_54  and  C_58 
REMARK   30  A    between atoms: C_65  and  C_66 
REMARK   31  A    between atoms: C_67  and  C_68 
ROOT
HETATM    1  C   UNK N   1      25.385  15.208   4.283  0.00  0.00     0.176 C 
ENDROOT
BRANCH   1   2
HETATM    2  N   UNK N   1      25.569  13.900   4.873  0.00  0.00    -0.346 N 
HETATM    3  C   UNK N   1      26.628  13.053   4.770  0.00  0.00     0.243 C 
HETATM    4  O   UNK N   1      26.550  11.977   5.334  0.00  0.00    -0.271 OA
HETATM    5  H   UNK N   1      24.823  13.578   5.429  0.00  0.00     0.163 HD
BRANCH   3   6
HETATM    6  C   UNK N   1      27.929  13.368   4.053  0.00  0.00     0.205 C 
BRANCH   6   7
HETATM    7  N   UNK N   1      29.132  12.832   4.663  0.00  0.00    -0.344 N 
HETATM    8  C   UNK N   1      30.254  13.533   4.982  0.00  0.00     0.241 C 
HETATM    9  O   UNK N   1      31.238  12.919   5.365  0.00  0.00    -0.271 OA
HETATM   10  H   UNK N   1      29.137  11.869   4.864  0.00  0.00     0.163 HD
BRANCH   8  11
HETATM   11  C   UNK N   1      30.349  15.039   4.887  0.00  0.00     0.180 C 
BRANCH  11  12
HETATM   12  N   UNK N   1      30.594  15.591   6.219  0.00  0.00    -0.346 N 
HETATM   13  C   UNK N   1      30.204  16.769   6.776  0.00  0.00     0.241 C 
HETATM   14  O   UNK N   1      29.512  17.565   6.171  0.00  0.00    -0.271 OA
HETATM   15  H   UNK N   1      31.132  15.015   6.809  0.00  0.00     0.163 HD
BRANCH  13  16
HETATM   16  C   UNK N   1      30.627  17.120   8.176  0.00  0.00     0.180 C 
BRANCH  16  17
HETATM   17  N   UNK N   1      31.856  17.886   8.214  0.00  0.00    -0.346 N 
HETATM   18  C   UNK N   1      33.073  17.438   8.620  0.00  0.00     0.236 C 
HETATM   19  O   UNK N   1      34.022  18.206   8.563  0.00  0.00    -0.272 OA
HETATM   20  H   UNK N   1      31.804  18.824   7.917  0.00  0.00     0.163 HD
BRANCH  18  21
HETATM   21  C   UNK N   1      33.290  16.027   9.125  0.00  0.00     0.225 C 
BRANCH  21  22
HETATM   22  N   UNK N   1      34.293  16.032  10.165  0.00  0.00    -0.351 N 
HETATM   23  C   UNK N   1      35.464  15.366  10.036  0.00  0.00     0.235 C 
HETATM   24  O   UNK N   1      35.774  14.852   8.971  0.00  0.00    -0.272 OA
HETATM   25  H   UNK N   1      34.119  16.535  10.994  0.00  0.00     0.163 HD
BRANCH  23  26
HETATM   26  C   UNK N   1      36.312  15.143  11.242  0.00  0.00     0.227 C 
BRANCH  26  27
HETATM   27  N   UNK N   1      36.266  13.735  11.579  0.00  0.00    -0.348 N 
HETATM   28  C   UNK N   1      35.089  13.224  12.237  0.00  0.00     0.153 C 
HETATM   29  C   UNK N   1      37.335  12.922  11.329  0.00  0.00     0.215 C 
HETATM   30  O   UNK N   1      38.333  13.364  10.780  0.00  0.00    -0.274 OA
HETATM   31  C   UNK N   1      37.317  11.478  11.730  0.00  0.00     0.117 C 
ENDBRANCH  26  27
ENDBRANCH  23  26
ENDBRANCH  21  22
ENDBRANCH  18  21
ENDBRANCH  16  17
BRANCH  16  32
HETATM   32  C   UNK N   1      29.568  17.584   9.190  0.00  0.00     0.009 C 
HETATM   33  C   UNK N   1      29.405  16.690  10.404  0.00  0.00     0.012 C 
HETATM   34  C   UNK N   1      29.844  19.003   9.639  0.00  0.00     0.012 C 
ENDBRANCH  16  32
ENDBRANCH  13  16
ENDBRANCH  11  12
BRANCH  11  35
HETATM   35  C   UNK N   1      31.230  15.443   3.673  0.00  0.00     0.013 C 
HETATM   36  C   UNK N   1      30.488  16.496   2.861  0.00  0.00     0.012 C 
BRANCH  35  37
HETATM   37  C   UNK N   1      32.623  16.006   3.951  0.00  0.00     0.002 C 
HETATM   38  C   UNK N   1      32.663  17.519   4.028  0.00  0.00     0.005 C 
ENDBRANCH  35  37
ENDBRANCH  11  35
ENDBRANCH   8  11
ENDBRANCH   6   7
BRANCH   6  39
HETATM   39  C   UNK N   1      27.902  13.038   2.563  0.00  0.00     0.146 C 
HETATM   40  C   UNK N   1      26.606  12.343   2.182  0.00  0.00     0.042 C 
BRANCH  39  41
HETATM   41  O   UNK N   1      28.000  14.220   1.828  0.00  0.00    -0.393 OA
HETATM   42  H   UNK N   1      28.697  14.686   1.340  0.00  0.00     0.210 HD
ENDBRANCH  39  41
ENDBRANCH   6  39
ENDBRANCH   3   6
ENDBRANCH   1   2
BRANCH   1  43
HETATM   43  C   UNK N   1      23.958  15.663   4.151  0.00  0.00     0.241 C 
HETATM   44  O   UNK N   1      23.310  15.341   3.166  0.00  0.00    -0.271 OA
HETATM   45  N   UNK N   1      23.465  16.554   5.049  0.00  0.00    -0.346 N 
HETATM   46  H   UNK N   1      24.006  16.713   5.857  0.00  0.00     0.163 HD
BRANCH  45  47
HETATM   47  C   UNK N   1      22.224  17.294   4.938  0.00  0.00     0.180 C 
BRANCH  47  48
HETATM   48  C   UNK N   1      22.078  18.292   3.768  0.00  0.00     0.013 C 
HETATM   49  C   UNK N   1      23.183  19.334   3.740  0.00  0.00     0.012 C 
BRANCH  48  50
HETATM   50  C   UNK N   1      20.753  19.025   3.861  0.00  0.00     0.002 C 
HETATM   51  C   UNK N   1      20.605  20.011   2.722  0.00  0.00     0.005 C 
ENDBRANCH  48  50
ENDBRANCH  47  48
BRANCH  47  52
HETATM   52  C   UNK N   1      21.606  17.596   6.286  0.00  0.00     0.241 C 
HETATM   53  O   UNK N   1      21.535  18.761   6.638  0.00  0.00    -0.271 OA
HETATM   54  N   UNK N   1      21.097  16.630   7.102  0.00  0.00    -0.346 N 
HETATM   55  H   UNK N   1      20.728  16.911   7.970  0.00  0.00     0.163 HD
BRANCH  54  56
HETATM   56  C   UNK N   1      21.062  15.219   6.780  0.00  0.00     0.176 C 
BRANCH  56  57
HETATM   57  C   UNK N   1      20.888  14.274   7.973  0.00  0.00     0.243 C 
HETATM   58  O   UNK N   1      19.850  14.370   8.607  0.00  0.00    -0.271 OA
HETATM   59  N   UNK N   1      21.850  13.395   8.403  0.00  0.00    -0.337 N 
HETATM   60  C   UNK N   1      23.116  13.172   7.777  0.00  0.00     0.179 C 
HETATM   61  C   UNK N   1      21.752  12.794   9.704  0.00  0.00     0.127 C 
HETATM   62  C   UNK N   1      24.071  12.947   8.941  0.00  0.00     0.037 C 
HETATM   63  C   UNK N   1      23.196  12.745  10.183  0.00  0.00     0.022 C 
BRANCH  60  64
HETATM   64  C   UNK N   1      23.013  11.922   6.940  0.00  0.00     0.240 C 
HETATM   65  O   UNK N   1      21.973  11.675   6.351  0.00  0.00    -0.271 OA
HETATM   66  N   UNK N   1      24.061  11.058   6.884  0.00  0.00    -0.360 N 
HETATM   67  H   UNK N   1      24.899  11.296   7.342  0.00  0.00     0.162 HD
BRANCH  66  68
HETATM   68  C   UNK N   1      23.987   9.804   6.176  0.00  0.00     0.118 C 
HETATM   69  C   UNK N   1      24.013   8.655   7.160  0.00  0.00     0.026 C 
ENDBRANCH  66  68
ENDBRANCH  60  64
ENDBRANCH  56  57
BRANCH  56  70
HETATM   70  C   UNK N   1      19.906  14.952   5.812  0.00  0.00     0.036 C 
BRANCH  70  71
HETATM   71  C   UNK N   1      20.375  14.206   4.568  0.00  0.00     0.023 C 
BRANCH  71  72
HETATM   72  C   UNK N   1      19.345  14.297   3.462  0.00  0.00     0.138 C 
BRANCH  72  73
HETATM   73  N   UNK N   1      19.496  15.528   2.721  0.00  0.00    -0.227 N 
HETATM   74  C   UNK N   1      20.193  15.618   1.640  0.00  0.00     0.665 C 
HETATM   75  N   UNK N   1      20.861  14.490   1.105  0.00  0.00    -0.235 N 
HETATM   76  N   UNK N   1      20.281  16.858   0.974  0.00  0.00    -0.235 N 
HETATM   77  H   UNK N   1      21.247  13.803   1.694  0.00  0.00     0.174 HD
HETATM   78  H   UNK N   1      20.940  14.392   0.128  0.00  0.00     0.174 HD
HETATM   79  H   UNK N   1      20.624  16.958   0.056  0.00  0.00     0.174 HD
HETATM   80  H   UNK N   1      19.985  17.667   1.451  0.00  0.00     0.174 HD
ATOM     81  HN  UNK N   1      19.031  16.365   3.070  1.00  0.00     0.177 HD
ENDBRANCH  72  73
ENDBRANCH  71  72
ENDBRANCH  70  71
ENDBRANCH  56  70
ENDBRANCH  54  56
ENDBRANCH  47  52
ENDBRANCH  45  47
ENDBRANCH   1  43
BRANCH   1  82
HETATM   82  C   UNK N   1      26.350  16.253   4.827  0.00  0.00     0.034 C 
BRANCH  82  83
HETATM   83  C   UNK N   1      26.926  17.059   3.680  0.00  0.00    -0.002 C 
HETATM   84  C   UNK N   1      26.823  18.536   3.998  0.00  0.00     0.005 C 
ENDBRANCH  82  83
ENDBRANCH   1  82
TORSDOF 31
ENDMDL
MODEL 2
REMARK VINA RESULT:      -7.2      2.062      3.070
REMARK  31 active torsions:
REMARK  status: ('A' for Active; 'I' for Inactive)
REMARK    1  A    between atoms: C_56  and  O_5 
REMARK       I    between atoms: N_12  and  C_30 
REMARK    2  A    between atoms: C_31  and  N_13 
REMARK       I    between atoms: N_13  and  C_37 
REMARK       I    between atoms: N_14  and  C_32 
REMARK    3  A    between atoms: N_14  and  C_39 
REMARK    4  A    between atoms: C_34  and  N_15 
REMARK       I    between atoms: N_15  and  C_43 
REMARK    5  A    between atoms: C_42  and  N_16 
REMARK       I    between atoms: N_16  and  C_52 
REMARK    6  A    between atoms: C_44  and  N_17 
REMARK       I    between atoms: N_17  and  C_58 
REMARK    7  A    between atoms: C_48  and  N_18 
REMARK       I    between atoms: N_18  and  C_51 
REMARK    8  A    between atoms: N_19  and  C_41 
REMARK    9  A    between atoms: C_54  and  N_21 
REMARK       I    between atoms: N_21  and  C_65 
REMARK       I    between atoms: N_22  and  C_64 
REMARK       I    between atoms: N_23  and  C_64 
REMARK   10  A    between atoms: N_24  and  C_66 
REMARK       I    between atoms: N_24  and  C_67 
REMARK   11  A    between atoms: N_25  and  C_68 
REMARK       I    between atoms: N_25  and  C_70 
REMARK   12  A    between atoms: C_26  and  C_32 
REMARK   13  A    between atoms: C_30  and  C_31 
REMARK   14  A    between atoms: C_31  and  C_33 
REMARK   15  A    between atoms: C_33  and  C_36 
REMARK   16  A    between atoms: C_34  and  C_35 
REMARK   17  A    between atoms: C_34  and  C_37 
REMARK   18  A    between atoms: C_35  and  C_38 
REMARK   19  A    between atoms: C_36  and  C_41 
REMARK   20  A    between atoms: C_42  and  C_43 
REMARK   21  A    between atoms: C_42  and  C_47 
REMARK   22  A    between atoms: C_44  and  C_45 
REMARK   23  A    between atoms: C_44  and  C_51 
REMARK   24  A    between atoms: C_45  and  C_50 
REMARK   25  A    between atoms: C_47  and  C_53 
REMARK   26  A    between atoms: C_48  and  C_52 
REMARK   27  A    between atoms: C_48  and  C_56 
REMARK   28  A    between atoms: C_54  and  C_57 
REMARK   29  A    between atoms: C_54  and  C_58 
REMARK   30  A    between atoms: C_65  and  C_66 
REMARK   31  A    between atoms: C_67  and  C_68 
ROOT
HETATM    1  C   UNK N   1      26.404  18.061   5.059  0.00  0.00     0.176 C 
ENDROOT
BRANCH   1   2
HETATM    2  N   UNK N   1      27.235  17.753   6.202  0.00  0.00    -0.346 N 
HETATM    3  C   UNK N   1      28.261  16.866   6.305  0.00  0.00     0.243 C 
HETATM    4  O   UNK N   1      28.804  16.749   7.388  0.00  0.00    -0.271 OA
HETATM    5  H   UNK N   1      27.029  18.257   7.023  0.00  0.00     0.163 HD
BRANCH   3   6
HETATM    6  C   UNK N   1      28.824  16.050   5.155  0.00  0.00     0.205 C 
BRANCH   6   7
HETATM    7  N   UNK N   1      28.648  14.612   5.253  0.00  0.00    -0.344 N 
HETATM    8  C   UNK N   1      29.568  13.663   4.928  0.00  0.00     0.241 C 
HETATM    9  O   UNK N   1      29.227  12.491   4.935  0.00  0.00    -0.271 OA
HETATM   10  H   UNK N   1      27.779  14.293   5.587  0.00  0.00     0.163 HD
BRANCH   8  11
HETATM   11  C   UNK N   1      30.998  13.985   4.554  0.00  0.00     0.180 C 
BRANCH  11  12
HETATM   12  N   UNK N   1      31.665  14.608   5.696  0.00  0.00    -0.346 N 
HETATM   13  C   UNK N   1      32.439  15.725   5.770  0.00  0.00     0.241 C 
HETATM   14  O   UNK N   1      32.662  16.414   4.794  0.00  0.00    -0.271 OA
HETATM   15  H   UNK N   1      31.534  14.141   6.553  0.00  0.00     0.163 HD
BRANCH  13  16
HETATM   16  C   UNK N   1      33.047  16.137   7.083  0.00  0.00     0.180 C 
BRANCH  16  17
HETATM   17  N   UNK N   1      34.351  15.546   7.306  0.00  0.00    -0.346 N 
HETATM   18  C   UNK N   1      34.686  14.687   8.304  0.00  0.00     0.236 C 
HETATM   19  O   UNK N   1      35.827  14.252   8.337  0.00  0.00    -0.272 OA
HETATM   20  H   UNK N   1      35.064  15.790   6.672  0.00  0.00     0.163 HD
BRANCH  18  21
HETATM   21  C   UNK N   1      33.695  14.247   9.361  0.00  0.00     0.225 C 
BRANCH  21  22
HETATM   22  N   UNK N   1      34.347  13.364  10.301  0.00  0.00    -0.351 N 
HETATM   23  C   UNK N   1      34.845  13.811  11.477  0.00  0.00     0.235 C 
HETATM   24  O   UNK N   1      34.632  14.956  11.850  0.00  0.00    -0.272 OA
HETATM   25  H   UNK N   1      34.433  12.409  10.080  0.00  0.00     0.163 HD
BRANCH  23  26
HETATM   26  C   UNK N   1      35.774  12.940  12.253  0.00  0.00     0.227 C 
BRANCH  26  27
HETATM   27  N   UNK N   1      35.066  12.431  13.409  0.00  0.00    -0.348 N 
HETATM   28  C   UNK N   1      35.220  13.120  14.668  0.00  0.00     0.153 C 
HETATM   29  C   UNK N   1      34.313  11.294  13.324  0.00  0.00     0.215 C 
HETATM   30  O   UNK N   1      34.196  10.710  12.257  0.00  0.00    -0.274 OA
HETATM   31  C   UNK N   1      33.627  10.729  14.530  0.00  0.00     0.117 C 
ENDBRANCH  26  27
ENDBRANCH  23  26
ENDBRANCH  21  22
ENDBRANCH  18  21
ENDBRANCH  16  17
BRANCH  16  32
HETATM   32  C   UNK N   1      32.938  17.602   7.536  0.00  0.00     0.009 C 
HETATM   33  C   UNK N   1      31.907  17.865   8.618  0.00  0.00     0.012 C 
HETATM   34  C   UNK N   1      34.286  18.125   7.983  0.00  0.00     0.012 C 
ENDBRANCH  16  32
ENDBRANCH  13  16
ENDBRANCH  11  12
BRANCH  11  35
HETATM   35  C   UNK N   1      31.637  12.784   3.804  0.00  0.00     0.013 C 
HETATM   36  C   UNK N   1      32.142  13.267   2.452  0.00  0.00     0.012 C 
BRANCH  35  37
HETATM   37  C   UNK N   1      32.803  12.056   4.473  0.00  0.00     0.002 C 
HETATM   38  C   UNK N   1      32.372  11.065   5.535  0.00  0.00     0.005 C 
ENDBRANCH  35  37
ENDBRANCH  11  35
ENDBRANCH   8  11
ENDBRANCH   6   7
BRANCH   6  39
HETATM   39  C   UNK N   1      28.380  16.541   3.780  0.00  0.00     0.146 C 
HETATM   40  C   UNK N   1      29.574  16.750   2.864  0.00  0.00     0.042 C 
BRANCH  39  41
HETATM   41  O   UNK N   1      27.542  15.588   3.199  0.00  0.00    -0.393 OA
HETATM   42  H   UNK N   1      27.562  15.026   2.408  0.00  0.00     0.210 HD
ENDBRANCH  39  41
ENDBRANCH   6  39
ENDBRANCH   3   6
ENDBRANCH   1   2
BRANCH   1  43
HETATM   43  C   UNK N   1      25.097  17.323   4.991  0.00  0.00     0.241 C 
HETATM   44  O   UNK N   1      25.065  16.192   4.529  0.00  0.00    -0.271 OA
HETATM   45  N   UNK N   1      23.951  17.983   5.299  0.00  0.00    -0.346 N 
HETATM   46  H   UNK N   1      24.049  18.859   5.737  0.00  0.00     0.163 HD
BRANCH  45  47
HETATM   47  C   UNK N   1      22.598  17.527   5.047  0.00  0.00     0.180 C 
BRANCH  47  48
HETATM   48  C   UNK N   1      21.940  17.921   3.706  0.00  0.00     0.013 C 
HETATM   49  C   UNK N   1      22.101  19.396   3.380  0.00  0.00     0.012 C 
BRANCH  48  50
HETATM   50  C   UNK N   1      20.453  17.614   3.737  0.00  0.00     0.002 C 
HETATM   51  C   UNK N   1      19.892  17.543   2.334  0.00  0.00     0.005 C 
ENDBRANCH  48  50
ENDBRANCH  47  48
BRANCH  47  52
HETATM   52  C   UNK N   1      21.771  17.437   6.311  0.00  0.00     0.241 C 
HETATM   53  O   UNK N   1      21.407  18.476   6.835  0.00  0.00    -0.271 OA
HETATM   54  N   UNK N   1      21.389  16.252   6.864  0.00  0.00    -0.346 N 
HETATM   55  H   UNK N   1      20.865  16.282   7.697  0.00  0.00     0.163 HD
BRANCH  54  56
HETATM   56  C   UNK N   1      21.699  14.950   6.312  0.00  0.00     0.176 C 
BRANCH  56  57
HETATM   57  C   UNK N   1      21.880  13.824   7.334  0.00  0.00     0.243 C 
HETATM   58  O   UNK N   1      20.865  13.352   7.820  0.00  0.00    -0.271 OA
HETATM   59  N   UNK N   1      23.099  13.379   7.780  0.00  0.00    -0.337 N 
HETATM   60  C   UNK N   1      24.372  13.835   7.318  0.00  0.00     0.179 C 
HETATM   61  C   UNK N   1      23.186  12.571   8.964  0.00  0.00     0.127 C 
HETATM   62  C   UNK N   1      25.242  13.835   8.567  0.00  0.00     0.037 C 
HETATM   63  C   UNK N   1      24.462  13.059   9.635  0.00  0.00     0.022 C 
BRANCH  60  64
HETATM   64  C   UNK N   1      24.897  12.834   6.320  0.00  0.00     0.240 C 
HETATM   65  O   UNK N   1      25.912  13.085   5.690  0.00  0.00    -0.271 OA
HETATM   66  N   UNK N   1      24.213  11.681   6.095  0.00  0.00    -0.360 N 
HETATM   67  H   UNK N   1      23.414  11.488   6.638  0.00  0.00     0.162 HD
BRANCH  66  68
HETATM   68  C   UNK N   1      24.616  10.731   5.089  0.00  0.00     0.118 C 
HETATM   69  C   UNK N   1      23.542  10.619   4.028  0.00  0.00     0.026 C 
ENDBRANCH  66  68
ENDBRANCH  60  64
ENDBRANCH  56  57
BRANCH  56  70
HETATM   70  C   UNK N   1      20.578  14.527   5.358  0.00  0.00     0.036 C 
BRANCH  70  71
HETATM   71  C   UNK N   1      21.129  13.864   4.101  0.00  0.00     0.023 C 
BRANCH  71  72
HETATM   72  C   UNK N   1      22.599  14.181   3.922  0.00  0.00     0.138 C 
BRANCH  72  73
HETATM   73  N   UNK N   1      22.909  14.407   2.530  0.00  0.00    -0.227 N 
HETATM   74  C   UNK N   1      24.067  14.165   2.017  0.00  0.00     0.665 C 
HETATM   75  N   UNK N   1      25.122  13.651   2.809  0.00  0.00    -0.235 N 
HETATM   76  N   UNK N   1      24.282  14.407   0.645  0.00  0.00    -0.235 N 
HETATM   77  H   UNK N   1      25.223  13.912   3.752  0.00  0.00     0.174 HD
HETATM   78  H   UNK N   1      25.766  13.022   2.408  0.00  0.00     0.174 HD
HETATM   79  H   UNK N   1      25.063  14.069   0.150  0.00  0.00     0.174 HD
HETATM   80  H   UNK N   1      23.617  14.943   0.155  0.00  0.00     0.174 HD
ATOM     81  HN  UNK N   1      22.177  14.776   1.923  1.00  0.00     0.177 HD
ENDBRANCH  72  73
ENDBRANCH  71  72
ENDBRANCH  70  71
ENDBRANCH  56  70
ENDBRANCH  54  56
ENDBRANCH  47  52
ENDBRANCH  45  47
ENDBRANCH   1  43
BRANCH   1  82
HETATM   82  C   UNK N   1      26.322  19.553   4.764  0.00  0.00     0.034 C 
BRANCH  82  83
HETATM   83  C   UNK N   1      27.533  20.253   5.344  0.00  0.00    -0.002 C 
HETATM   84  C   UNK N   1      27.085  21.451   6.155  0.00  0.00     0.005 C 
ENDBRANCH  82  83
ENDBRANCH   1  82
TORSDOF 31
ENDMDL
MODEL 3
REMARK VINA RESULT:      -7.2      2.328      5.601
REMARK  31 active torsions:
REMARK  status: ('A' for Active; 'I' for Inactive)
REMARK    1  A    between atoms: C_56  and  O_5 
REMARK       I    between atoms: N_12  and  C_30 
REMARK    2  A    between atoms: C_31  and  N_13 
REMARK       I    between atoms: N_13  and  C_37 
REMARK       I    between atoms: N_14  and  C_32 
REMARK    3  A    between atoms: N_14  and  C_39 
REMARK    4  A    between atoms: C_34  and  N_15 
REMARK       I    between atoms: N_15  and  C_43 
REMARK    5  A    between atoms: C_42  and  N_16 
REMARK       I    between atoms: N_16  and  C_52 
REMARK    6  A    between atoms: C_44  and  N_17 
REMARK       I    between atoms: N_17  and  C_58 
REMARK    7  A    between atoms: C_48  and  N_18 
REMARK       I    between atoms: N_18  and  C_51 
REMARK    8  A    between atoms: N_19  and  C_41 
REMARK    9  A    between atoms: C_54  and  N_21 
REMARK       I    between atoms: N_21  and  C_65 
REMARK       I    between atoms: N_22  and  C_64 
REMARK       I    between atoms: N_23  and  C_64 
REMARK   10  A    between atoms: N_24  and  C_66 
REMARK       I    between atoms: N_24  and  C_67 
REMARK   11  A    between atoms: N_25  and  C_68 
REMARK       I    between atoms: N_25  and  C_70 
REMARK   12  A    between atoms: C_26  and  C_32 
REMARK   13  A    between atoms: C_30  and  C_31 
REMARK   14  A    between atoms: C_31  and  C_33 
REMARK   15  A    between atoms: C_33  and  C_36 
REMARK   16  A    between atoms: C_34  and  C_35 
REMARK   17  A    between atoms: C_34  and  C_37 
REMARK   18  A    between atoms: C_35  and  C_38 
REMARK   19  A    between atoms: C_36  and  C_41 
REMARK   20  A    between atoms: C_42  and  C_43 
REMARK   21  A    between atoms: C_42  and  C_47 
REMARK   22  A    between atoms: C_44  and  C_45 
REMARK   23  A    between atoms: C_44  and  C_51 
REMARK   24  A    between atoms: C_45  and  C_50 
REMARK   25  A    between atoms: C_47  and  C_53 
REMARK   26  A    between atoms: C_48  and  C_52 
REMARK   27  A    between atoms: C_48  and  C_56 
REMARK   28  A    between atoms: C_54  and  C_57 
REMARK   29  A    between atoms: C_54  and  C_58 
REMARK   30  A    between atoms: C_65  and  C_66 
REMARK   31  A    between atoms: C_67  and  C_68 
ROOT
HETATM    1  C   UNK N   1      25.469  13.590   4.701  0.00  0.00     0.176 C 
ENDROOT
BRANCH   1   2
HETATM    2  N   UNK N   1      26.397  13.956   3.654  0.00  0.00    -0.346 N 
HETATM    3  C   UNK N   1      26.944  15.170   3.375  0.00  0.00     0.243 C 
HETATM    4  O   UNK N   1      27.685  15.251   2.414  0.00  0.00    -0.271 OA
HETATM    5  H   UNK N   1      26.673  13.222   3.057  0.00  0.00     0.163 HD
BRANCH   3   6
HETATM    6  C   UNK N   1      26.749  16.424   4.209  0.00  0.00     0.205 C 
BRANCH   6   7
HETATM    7  N   UNK N   1      27.783  17.434   4.083  0.00  0.00    -0.344 N 
HETATM    8  C   UNK N   1      28.678  17.795   5.043  0.00  0.00     0.241 C 
HETATM    9  O   UNK N   1      29.401  18.757   4.837  0.00  0.00    -0.271 OA
HETATM   10  H   UNK N   1      27.844  17.903   3.220  0.00  0.00     0.163 HD
BRANCH   8  11
HETATM   11  C   UNK N   1      28.824  17.067   6.361  0.00  0.00     0.180 C 
BRANCH  11  12
HETATM   12  N   UNK N   1      30.237  16.771   6.593  0.00  0.00    -0.346 N 
HETATM   13  C   UNK N   1      30.997  15.713   6.204  0.00  0.00     0.241 C 
HETATM   14  O   UNK N   1      30.541  14.814   5.525  0.00  0.00    -0.271 OA
HETATM   15  H   UNK N   1      30.716  17.450   7.121  0.00  0.00     0.163 HD
BRANCH  13  16
HETATM   16  C   UNK N   1      32.442  15.629   6.613  0.00  0.00     0.180 C 
BRANCH  16  17
HETATM   17  N   UNK N   1      32.941  14.269   6.634  0.00  0.00    -0.346 N 
HETATM   18  C   UNK N   1      33.634  13.680   7.644  0.00  0.00     0.236 C 
HETATM   19  O   UNK N   1      33.959  12.509   7.518  0.00  0.00    -0.272 OA
HETATM   20  H   UNK N   1      32.759  13.717   5.839  0.00  0.00     0.163 HD
BRANCH  18  21
HETATM   21  C   UNK N   1      34.004  14.421   8.912  0.00  0.00     0.225 C 
BRANCH  21  22
HETATM   22  N   UNK N   1      34.674  13.521   9.822  0.00  0.00    -0.351 N 
HETATM   23  C   UNK N   1      34.757  13.772  11.149  0.00  0.00     0.235 C 
HETATM   24  O   UNK N   1      34.141  14.704  11.647  0.00  0.00    -0.272 OA
HETATM   25  H   UNK N   1      35.084  12.699   9.466  0.00  0.00     0.163 HD
BRANCH  23  26
HETATM   26  C   UNK N   1      35.717  12.990  11.980  0.00  0.00     0.227 C 
BRANCH  26  27
HETATM   27  N   UNK N   1      35.006  11.876  12.573  0.00  0.00    -0.348 N 
HETATM   28  C   UNK N   1      34.811  10.686  11.781  0.00  0.00     0.153 C 
HETATM   29  C   UNK N   1      34.484  11.969  13.831  0.00  0.00     0.215 C 
HETATM   30  O   UNK N   1      34.644  12.985  14.493  0.00  0.00    -0.274 OA
HETATM   31  C   UNK N   1      33.696  10.843  14.427  0.00  0.00     0.117 C 
ENDBRANCH  26  27
ENDBRANCH  23  26
ENDBRANCH  21  22
ENDBRANCH  18  21
ENDBRANCH  16  17
BRANCH  16  32
HETATM   32  C   UNK N   1      33.444  16.654   6.055  0.00  0.00     0.009 C 
HETATM   33  C   UNK N   1      33.037  17.302   4.745  0.00  0.00     0.012 C 
HETATM   34  C   UNK N   1      33.740  17.726   7.081  0.00  0.00     0.012 C 
ENDBRANCH  16  32
ENDBRANCH  13  16
ENDBRANCH  11  12
BRANCH  11  35
HETATM   35  C   UNK N   1      27.954  17.753   7.450  0.00  0.00     0.013 C 
HETATM   36  C   UNK N   1      27.543  16.706   8.475  0.00  0.00     0.012 C 
BRANCH  35  37
HETATM   37  C   UNK N   1      28.564  18.915   8.231  0.00  0.00     0.002 C 
HETATM   38  C   UNK N   1      29.275  18.489   9.499  0.00  0.00     0.005 C 
ENDBRANCH  35  37
ENDBRANCH  11  35
ENDBRANCH   8  11
ENDBRANCH   6   7
BRANCH   6  39
HETATM   39  C   UNK N   1      25.371  17.060   4.045  0.00  0.00     0.146 C 
HETATM   40  C   UNK N   1      25.489  18.512   3.614  0.00  0.00     0.042 C 
BRANCH  39  41
HETATM   41  O   UNK N   1      24.657  16.367   3.066  0.00  0.00    -0.393 OA
HETATM   42  H   UNK N   1      24.799  15.574   2.525  0.00  0.00     0.210 HD
ENDBRANCH  39  41
ENDBRANCH   6  39
ENDBRANCH   3   6
ENDBRANCH   1   2
BRANCH   1  43
HETATM   43  C   UNK N   1      24.411  12.597   4.310  0.00  0.00     0.241 C 
HETATM   44  O   UNK N   1      24.725  11.439   4.079  0.00  0.00    -0.271 OA
HETATM   45  N   UNK N   1      23.150  13.039   4.068  0.00  0.00    -0.346 N 
HETATM   46  H   UNK N   1      22.943  13.961   4.346  0.00  0.00     0.163 HD
BRANCH  45  47
HETATM   47  C   UNK N   1      22.079  12.291   3.440  0.00  0.00     0.180 C 
BRANCH  47  48
HETATM   48  C   UNK N   1      21.463  12.859   2.143  0.00  0.00     0.013 C 
HETATM   49  C   UNK N   1      21.598  14.368   2.036  0.00  0.00     0.012 C 
BRANCH  48  50
HETATM   50  C   UNK N   1      19.985  12.520   2.068  0.00  0.00     0.002 C 
HETATM   51  C   UNK N   1      19.414  12.914   0.723  0.00  0.00     0.005 C 
ENDBRANCH  48  50
ENDBRANCH  47  48
BRANCH  47  52
HETATM   52  C   UNK N   1      21.214  11.562   4.446  0.00  0.00     0.241 C 
HETATM   53  O   UNK N   1      21.048  10.363   4.298  0.00  0.00    -0.271 OA
HETATM   54  N   UNK N   1      20.648  12.177   5.522  0.00  0.00    -0.346 N 
HETATM   55  H   UNK N   1      20.086  11.633   6.119  0.00  0.00     0.163 HD
BRANCH  54  56
HETATM   56  C   UNK N   1      20.816  13.578   5.848  0.00  0.00     0.176 C 
BRANCH  56  57
HETATM   57  C   UNK N   1      19.780  14.526   5.238  0.00  0.00     0.243 C 
HETATM   58  O   UNK N   1      18.705  14.043   4.925  0.00  0.00    -0.271 OA
HETATM   59  N   UNK N   1      20.018  15.849   4.962  0.00  0.00    -0.337 N 
HETATM   60  C   UNK N   1      21.223  16.559   5.259  0.00  0.00     0.179 C 
HETATM   61  C   UNK N   1      19.134  16.579   4.097  0.00  0.00     0.127 C 
HETATM   62  C   UNK N   1      21.399  17.503   4.078  0.00  0.00     0.037 C 
HETATM   63  C   UNK N   1      20.072  17.484   3.311  0.00  0.00     0.022 C 
BRANCH  60  64
HETATM   64  C   UNK N   1      21.005  17.347   6.526  0.00  0.00     0.240 C 
HETATM   65  O   UNK N   1      21.700  18.323   6.756  0.00  0.00    -0.271 OA
HETATM   66  N   UNK N   1      20.068  16.939   7.423  0.00  0.00    -0.360 N 
HETATM   67  H   UNK N   1      19.499  16.167   7.200  0.00  0.00     0.162 HD
BRANCH  66  68
HETATM   68  C   UNK N   1      19.879  17.599   8.691  0.00  0.00     0.118 C 
HETATM   69  C   UNK N   1      18.452  17.414   9.159  0.00  0.00     0.026 C 
ENDBRANCH  66  68
ENDBRANCH  60  64
ENDBRANCH  56  57
BRANCH  56  70
HETATM   70  C   UNK N   1      20.757  13.751   7.369  0.00  0.00     0.036 C 
BRANCH  70  71
HETATM   71  C   UNK N   1      21.519  12.647   8.091  0.00  0.00     0.023 C 
BRANCH  71  72
HETATM   72  C   UNK N   1      21.662  12.963   9.565  0.00  0.00     0.138 C 
BRANCH  72  73
HETATM   73  N   UNK N   1      23.052  12.961   9.957  0.00  0.00    -0.227 N 
HETATM   74  C   UNK N   1      23.497  12.305  10.974  0.00  0.00     0.665 C 
HETATM   75  N   UNK N   1      22.627  11.530  11.779  0.00  0.00    -0.235 N 
HETATM   76  N   UNK N   1      24.872  12.351  11.282  0.00  0.00    -0.235 N 
HETATM   77  H   UNK N   1      21.701  11.816  11.946  0.00  0.00     0.174 HD
HETATM   78  H   UNK N   1      22.956  10.692  12.179  0.00  0.00     0.174 HD
HETATM   79  H   UNK N   1      25.309  11.732  11.910  0.00  0.00     0.174 HD
HETATM   80  H   UNK N   1      25.425  13.039  10.846  0.00  0.00     0.174 HD
ATOM     81  HN  UNK N   1      23.713  13.505   9.404  1.00  0.00     0.177 HD
ENDBRANCH  72  73
ENDBRANCH  71  72
ENDBRANCH  70  71
ENDBRANCH  56  70
ENDBRANCH  54  56
ENDBRANCH  47  52
ENDBRANCH  45  47
ENDBRANCH   1  43
BRANCH   1  82
HETATM   82  C   UNK N   1      26.150  13.318   6.036  0.00  0.00     0.034 C 
BRANCH  82  83
HETATM   83  C   UNK N   1      25.139  13.449   7.158  0.00  0.00    -0.002 C 
HETATM   84  C   UNK N   1      24.548  14.842   7.147  0.00  0.00     0.005 C 
ENDBRANCH  82  83
ENDBRANCH   1  82
TORSDOF 31
ENDMDL
MODEL 4
REMARK VINA RESULT:      -7.1      2.003      2.983
REMARK  31 active torsions:
REMARK  status: ('A' for Active; 'I' for Inactive)
REMARK    1  A    between atoms: C_56  and  O_5 
REMARK       I    between atoms: N_12  and  C_30 
REMARK    2  A    between atoms: C_31  and  N_13 
REMARK       I    between atoms: N_13  and  C_37 
REMARK       I    between atoms: N_14  and  C_32 
REMARK    3  A    between atoms: N_14  and  C_39 
REMARK    4  A    between atoms: C_34  and  N_15 
REMARK       I    between atoms: N_15  and  C_43 
REMARK    5  A    between atoms: C_42  and  N_16 
REMARK       I    between atoms: N_16  and  C_52 
REMARK    6  A    between atoms: C_44  and  N_17 
REMARK       I    between atoms: N_17  and  C_58 
REMARK    7  A    between atoms: C_48  and  N_18 
REMARK       I    between atoms: N_18  and  C_51 
REMARK    8  A    between atoms: N_19  and  C_41 
REMARK    9  A    between atoms: C_54  and  N_21 
REMARK       I    between atoms: N_21  and  C_65 
REMARK       I    between atoms: N_22  and  C_64 
REMARK       I    between atoms: N_23  and  C_64 
REMARK   10  A    between atoms: N_24  and  C_66 
REMARK       I    between atoms: N_24  and  C_67 
REMARK   11  A    between atoms: N_25  and  C_68 
REMARK       I    between atoms: N_25  and  C_70 
REMARK   12  A    between atoms: C_26  and  C_32 
REMARK   13  A    between atoms: C_30  and  C_31 
REMARK   14  A    between atoms: C_31  and  C_33 
REMARK   15  A    between atoms: C_33  and  C_36 
REMARK   16  A    between atoms: C_34  and  C_35 
REMARK   17  A    between atoms: C_34  and  C_37 
REMARK   18  A    between atoms: C_35  and  C_38 
REMARK   19  A    between atoms: C_36  and  C_41 
REMARK   20  A    between atoms: C_42  and  C_43 
REMARK   21  A    between atoms: C_42  and  C_47 
REMARK   22  A    between atoms: C_44  and  C_45 
REMARK   23  A    between atoms: C_44  and  C_51 
REMARK   24  A    between atoms: C_45  and  C_50 
REMARK   25  A    between atoms: C_47  and  C_53 
REMARK   26  A    between atoms: C_48  and  C_52 
REMARK   27  A    between atoms: C_48  and  C_56 
REMARK   28  A    between atoms: C_54  and  C_57 
REMARK   29  A    between atoms: C_54  and  C_58 
REMARK   30  A    between atoms: C_65  and  C_66 
REMARK   31  A    between atoms: C_67  and  C_68 
ROOT
HETATM    1  C   UNK N   1      25.593  18.065   4.941  0.00  0.00     0.176 C 
ENDROOT
BRANCH   1   2
HETATM    2  N   UNK N   1      26.342  17.624   6.097  0.00  0.00    -0.346 N 
HETATM    3  C   UNK N   1      27.389  16.759   6.164  0.00  0.00     0.243 C 
HETATM    4  O   UNK N   1      27.849  16.507   7.263  0.00  0.00    -0.271 OA
HETATM    5  H   UNK N   1      26.052  18.004   6.959  0.00  0.00     0.163 HD
BRANCH   3   6
HETATM    6  C   UNK N   1      28.073  16.125   4.965  0.00  0.00     0.205 C 
BRANCH   6   7
HETATM    7  N   UNK N   1      28.884  14.954   5.246  0.00  0.00    -0.344 N 
HETATM    8  C   UNK N   1      30.235  14.930   5.411  0.00  0.00     0.241 C 
HETATM    9  O   UNK N   1      30.794  13.849   5.506  0.00  0.00    -0.271 OA
HETATM   10  H   UNK N   1      28.411  14.095   5.324  0.00  0.00     0.163 HD
BRANCH   8  11
HETATM   11  C   UNK N   1      31.087  16.178   5.481  0.00  0.00     0.180 C 
BRANCH  11  12
HETATM   12  N   UNK N   1      32.151  15.980   6.464  0.00  0.00    -0.346 N 
HETATM   13  C   UNK N   1      32.167  16.190   7.808  0.00  0.00     0.241 C 
HETATM   14  O   UNK N   1      31.184  16.583   8.405  0.00  0.00    -0.271 OA
HETATM   15  H   UNK N   1      32.996  15.640   6.090  0.00  0.00     0.163 HD
BRANCH  13  16
HETATM   16  C   UNK N   1      33.423  15.938   8.597  0.00  0.00     0.180 C 
BRANCH  16  17
HETATM   17  N   UNK N   1      34.338  15.040   7.922  0.00  0.00    -0.346 N 
HETATM   18  C   UNK N   1      34.560  13.735   8.229  0.00  0.00     0.236 C 
HETATM   19  O   UNK N   1      35.346  13.103   7.540  0.00  0.00    -0.272 OA
HETATM   20  H   UNK N   1      34.848  15.412   7.166  0.00  0.00     0.163 HD
BRANCH  18  21
HETATM   21  C   UNK N   1      33.861  13.044   9.381  0.00  0.00     0.225 C 
BRANCH  21  22
HETATM   22  N   UNK N   1      34.591  11.852   9.747  0.00  0.00    -0.351 N 
HETATM   23  C   UNK N   1      34.968  11.604  11.022  0.00  0.00     0.235 C 
HETATM   24  O   UNK N   1      34.578  12.315  11.937  0.00  0.00    -0.272 OA
HETATM   25  H   UNK N   1      34.823  11.199   9.046  0.00  0.00     0.163 HD
BRANCH  23  26
HETATM   26  C   UNK N   1      35.977  10.539  11.290  0.00  0.00     0.227 C 
BRANCH  26  27
HETATM   27  N   UNK N   1      36.992  11.082  12.170  0.00  0.00    -0.348 N 
HETATM   28  C   UNK N   1      37.914  12.056  11.638  0.00  0.00     0.153 C 
HETATM   29  C   UNK N   1      37.109  10.641  13.458  0.00  0.00     0.215 C 
HETATM   30  O   UNK N   1      36.330   9.808  13.899  0.00  0.00    -0.274 OA
HETATM   31  C   UNK N   1      38.194  11.154  14.355  0.00  0.00     0.117 C 
ENDBRANCH  26  27
ENDBRANCH  23  26
ENDBRANCH  21  22
ENDBRANCH  18  21
ENDBRANCH  16  17
BRANCH  16  32
HETATM   32  C   UNK N   1      34.112  17.113   9.312  0.00  0.00     0.009 C 
HETATM   33  C   UNK N   1      35.278  16.727  10.202  0.00  0.00     0.012 C 
HETATM   34  C   UNK N   1      34.560  18.158   8.313  0.00  0.00     0.012 C 
ENDBRANCH  16  32
ENDBRANCH  13  16
ENDBRANCH  11  12
BRANCH  11  35
HETATM   35  C   UNK N   1      31.398  16.694   4.048  0.00  0.00     0.013 C 
HETATM   36  C   UNK N   1      32.475  17.765   4.140  0.00  0.00     0.012 C 
BRANCH  35  37
HETATM   37  C   UNK N   1      31.874  15.681   3.008  0.00  0.00     0.002 C 
HETATM   38  C   UNK N   1      33.378  15.491   2.988  0.00  0.00     0.005 C 
ENDBRANCH  35  37
ENDBRANCH  11  35
ENDBRANCH   8  11
ENDBRANCH   6   7
BRANCH   6  39
HETATM   39  C   UNK N   1      27.129  15.844   3.800  0.00  0.00     0.146 C 
HETATM   40  C   UNK N   1      27.901  15.398   2.569  0.00  0.00     0.042 C 
BRANCH  39  41
HETATM   41  O   UNK N   1      26.246  14.824   4.158  0.00  0.00    -0.393 OA
HETATM   42  H   UNK N   1      25.635  14.230   3.693  0.00  0.00     0.210 HD
ENDBRANCH  39  41
ENDBRANCH   6  39
ENDBRANCH   3   6
ENDBRANCH   1   2
BRANCH   1  43
HETATM   43  C   UNK N   1      24.174  17.577   4.863  0.00  0.00     0.241 C 
HETATM   44  O   UNK N   1      23.888  16.674   4.091  0.00  0.00    -0.271 OA
HETATM   45  N   UNK N   1      23.207  18.252   5.535  0.00  0.00    -0.346 N 
HETATM   46  H   UNK N   1      23.510  18.916   6.196  0.00  0.00     0.163 HD
BRANCH  45  47
HETATM   47  C   UNK N   1      21.775  18.094   5.377  0.00  0.00     0.180 C 
BRANCH  47  48
HETATM   48  C   UNK N   1      21.087  18.852   4.220  0.00  0.00     0.013 C 
HETATM   49  C   UNK N   1      20.374  17.925   3.249  0.00  0.00     0.012 C 
BRANCH  48  50
HETATM   50  C   UNK N   1      22.107  19.652   3.432  0.00  0.00     0.002 C 
HETATM   51  C   UNK N   1      21.437  20.414   2.308  0.00  0.00     0.005 C 
ENDBRANCH  48  50
ENDBRANCH  47  48
BRANCH  47  52
HETATM   52  C   UNK N   1      21.064  17.900   6.698  0.00  0.00     0.241 C 
HETATM   53  O   UNK N   1      20.862  18.882   7.393  0.00  0.00    -0.271 OA
HETATM   54  N   UNK N   1      20.609  16.688   7.126  0.00  0.00    -0.346 N 
HETATM   55  H   UNK N   1      20.171  16.646   8.006  0.00  0.00     0.163 HD
BRANCH  54  56
HETATM   56  C   UNK N   1      20.727  15.457   6.374  0.00  0.00     0.176 C 
BRANCH  56  57
HETATM   57  C   UNK N   1      21.115  14.220   7.189  0.00  0.00     0.243 C 
HETATM   58  O   UNK N   1      20.280  13.787   7.966  0.00  0.00    -0.271 OA
HETATM   59  N   UNK N   1      22.353  13.630   7.147  0.00  0.00    -0.337 N 
HETATM   60  C   UNK N   1      23.436  14.022   6.300  0.00  0.00     0.179 C 
HETATM   61  C   UNK N   1      22.746  12.698   8.168  0.00  0.00     0.127 C 
HETATM   62  C   UNK N   1      24.674  13.819   7.163  0.00  0.00     0.037 C 
HETATM   63  C   UNK N   1      24.222  13.005   8.380  0.00  0.00     0.022 C 
BRANCH  60  64
HETATM   64  C   UNK N   1      23.469  13.089   5.117  0.00  0.00     0.240 C 
HETATM   65  O   UNK N   1      23.632  11.893   5.295  0.00  0.00    -0.271 OA
HETATM   66  N   UNK N   1      23.362  13.590   3.857  0.00  0.00    -0.360 N 
HETATM   67  H   UNK N   1      23.200  14.554   3.741  0.00  0.00     0.162 HD
BRANCH  66  68
HETATM   68  C   UNK N   1      23.479  12.758   2.686  0.00  0.00     0.118 C 
HETATM   69  C   UNK N   1      24.539  13.317   1.761  0.00  0.00     0.026 C 
ENDBRANCH  66  68
ENDBRANCH  60  64
ENDBRANCH  56  57
BRANCH  56  70
HETATM   70  C   UNK N   1      19.390  15.154   5.690  0.00  0.00     0.036 C 
BRANCH  70  71
HETATM   71  C   UNK N   1      19.493  13.949   4.763  0.00  0.00     0.023 C 
BRANCH  71  72
HETATM   72  C   UNK N   1      20.165  14.325   3.459  0.00  0.00     0.138 C 
BRANCH  72  73
HETATM   73  N   UNK N   1      19.187  14.511   2.413  0.00  0.00    -0.227 N 
HETATM   74  C   UNK N   1      19.501  14.828   1.203  0.00  0.00     0.665 C 
HETATM   75  N   UNK N   1      20.853  15.012   0.824  0.00  0.00    -0.235 N 
HETATM   76  N   UNK N   1      18.482  14.982   0.240  0.00  0.00    -0.235 N 
HETATM   77  H   UNK N   1      21.507  15.398   1.450  0.00  0.00     0.174 HD
HETATM   78  H   UNK N   1      21.142  14.752  -0.081  0.00  0.00     0.174 HD
HETATM   79  H   UNK N   1      18.653  15.027  -0.729  0.00  0.00     0.174 HD
HETATM   80  H   UNK N   1      17.551  15.048   0.552  0.00  0.00     0.174 HD
ATOM     81  HN  UNK N   1      18.202  14.386   2.642  1.00  0.00     0.177 HD
ENDBRANCH  72  73
ENDBRANCH  71  72
ENDBRANCH  70  71
ENDBRANCH  56  70
ENDBRANCH  54  56
ENDBRANCH  47  52
ENDBRANCH  45  47
ENDBRANCH   1  43
BRANCH   1  82
HETATM   82  C   UNK N   1      25.787  19.543   4.630  0.00  0.00     0.034 C 
BRANCH  82  83
HETATM   83  C   UNK N   1      26.305  19.701   3.215  0.00  0.00    -0.002 C 
HETATM   84  C   UNK N   1      25.352  20.572   2.422  0.00  0.00     0.005 C 
ENDBRANCH  82  83
ENDBRANCH   1  82
TORSDOF 31
ENDMDL
MODEL 5
REMARK VINA RESULT:      -7.1      2.038      3.551
REMARK  31 active torsions:
REMARK  status: ('A' for Active; 'I' for Inactive)
REMARK    1  A    between atoms: C_56  and  O_5 
REMARK       I    between atoms: N_12  and  C_30 
REMARK    2  A    between atoms: C_31  and  N_13 
REMARK       I    between atoms: N_13  and  C_37 
REMARK       I    between atoms: N_14  and  C_32 
REMARK    3  A    between atoms: N_14  and  C_39 
REMARK    4  A    between atoms: C_34  and  N_15 
REMARK       I    between atoms: N_15  and  C_43 
REMARK    5  A    between atoms: C_42  and  N_16 
REMARK       I    between atoms: N_16  and  C_52 
REMARK    6  A    between atoms: C_44  and  N_17 
REMARK       I    between atoms: N_17  and  C_58 
REMARK    7  A    between atoms: C_48  and  N_18 
REMARK       I    between atoms: N_18  and  C_51 
REMARK    8  A    between atoms: N_19  and  C_41 
REMARK    9  A    between atoms: C_54  and  N_21 
REMARK       I    between atoms: N_21  and  C_65 
REMARK       I    between atoms: N_22  and  C_64 
REMARK       I    between atoms: N_23  and  C_64 
REMARK   10  A    between atoms: N_24  and  C_66 
REMARK       I    between atoms: N_24  and  C_67 
REMARK   11  A    between atoms: N_25  and  C_68 
REMARK       I    between atoms: N_25  and  C_70 
REMARK   12  A    between atoms: C_26  and  C_32 
REMARK   13  A    between atoms: C_30  and  C_31 
REMARK   14  A    between atoms: C_31  and  C_33 
REMARK   15  A    between atoms: C_33  and  C_36 
REMARK   16  A    between atoms: C_34  and  C_35 
REMARK   17  A    between atoms: C_34  and  C_37 
REMARK   18  A    between atoms: C_35  and  C_38 
REMARK   19  A    between atoms: C_36  and  C_41 
REMARK   20  A    between atoms: C_42  and  C_43 
REMARK   21  A    between atoms: C_42  and  C_47 
REMARK   22  A    between atoms: C_44  and  C_45 
REMARK   23  A    between atoms: C_44  and  C_51 
REMARK   24  A    between atoms: C_45  and  C_50 
REMARK   25  A    between atoms: C_47  and  C_53 
REMARK   26  A    between atoms: C_48  and  C_52 
REMARK   27  A    between atoms: C_48  and  C_56 
REMARK   28  A    between atoms: C_54  and  C_57 
REMARK   29  A    between atoms: C_54  and  C_58 
REMARK   30  A    between atoms: C_65  and  C_66 
REMARK   31  A    between atoms: C_67  and  C_68 
ROOT
HETATM    1  C   UNK N   1      27.088  15.805   5.565  0.00  0.00     0.176 C 
ENDROOT
BRANCH   1   2
HETATM    2  N   UNK N   1      26.986  14.365   5.665  0.00  0.00    -0.346 N 
HETATM    3  C   UNK N   1      27.352  13.413   4.765  0.00  0.00     0.243 C 
HETATM    4  O   UNK N   1      27.141  12.249   5.053  0.00  0.00    -0.271 OA
HETATM    5  H   UNK N   1      26.596  14.026   6.504  0.00  0.00     0.163 HD
BRANCH   3   6
HETATM    6  C   UNK N   1      28.061  13.684   3.450  0.00  0.00     0.205 C 
BRANCH   6   7
HETATM    7  N   UNK N   1      29.347  13.034   3.280  0.00  0.00    -0.344 N 
HETATM    8  C   UNK N   1      30.556  13.524   3.671  0.00  0.00     0.241 C 
HETATM    9  O   UNK N   1      31.565  12.924   3.337  0.00  0.00    -0.271 OA
HETATM   10  H   UNK N   1      29.345  12.154   2.839  0.00  0.00     0.163 HD
BRANCH   8  11
HETATM   11  C   UNK N   1      30.716  14.779   4.499  0.00  0.00     0.180 C 
BRANCH  11  12
HETATM   12  N   UNK N   1      31.438  14.455   5.728  0.00  0.00    -0.346 N 
HETATM   13  C   UNK N   1      32.767  14.272   5.954  0.00  0.00     0.241 C 
HETATM   14  O   UNK N   1      33.589  14.397   5.067  0.00  0.00    -0.271 OA
HETATM   15  H   UNK N   1      30.868  14.351   6.524  0.00  0.00     0.163 HD
BRANCH  13  16
HETATM   16  C   UNK N   1      33.257  13.903   7.327  0.00  0.00     0.180 C 
BRANCH  16  17
HETATM   17  N   UNK N   1      32.294  14.207   8.366  0.00  0.00    -0.346 N 
HETATM   18  C   UNK N   1      32.483  15.042   9.421  0.00  0.00     0.236 C 
HETATM   19  O   UNK N   1      31.556  15.216  10.197  0.00  0.00    -0.272 OA
HETATM   20  H   UNK N   1      31.415  13.767   8.300  0.00  0.00     0.163 HD
BRANCH  18  21
HETATM   21  C   UNK N   1      33.793  15.765   9.657  0.00  0.00     0.225 C 
BRANCH  21  22
HETATM   22  N   UNK N   1      34.297  15.439  10.971  0.00  0.00    -0.351 N 
HETATM   23  C   UNK N   1      35.551  15.768  11.360  0.00  0.00     0.235 C 
HETATM   24  O   UNK N   1      36.255  16.481  10.659  0.00  0.00    -0.272 OA
HETATM   25  H   UNK N   1      33.712  14.963  11.604  0.00  0.00     0.163 HD
BRANCH  23  26
HETATM   26  C   UNK N   1      36.122  15.140  12.587  0.00  0.00     0.227 C 
BRANCH  26  27
HETATM   27  N   UNK N   1      36.267  13.719  12.347  0.00  0.00    -0.348 N 
HETATM   28  C   UNK N   1      37.244  13.282  11.380  0.00  0.00     0.153 C 
HETATM   29  C   UNK N   1      35.460  12.817  12.980  0.00  0.00     0.215 C 
HETATM   30  O   UNK N   1      34.627  13.195  13.791  0.00  0.00    -0.274 OA
HETATM   31  C   UNK N   1      35.564  11.350  12.691  0.00  0.00     0.117 C 
ENDBRANCH  26  27
ENDBRANCH  23  26
ENDBRANCH  21  22
ENDBRANCH  18  21
ENDBRANCH  16  17
BRANCH  16  32
HETATM   32  C   UNK N   1      33.997  12.570   7.531  0.00  0.00     0.009 C 
HETATM   33  C   UNK N   1      35.485  12.696   7.798  0.00  0.00     0.012 C 
HETATM   34  C   UNK N   1      33.349  11.763   8.635  0.00  0.00     0.012 C 
ENDBRANCH  16  32
ENDBRANCH  13  16
ENDBRANCH  11  12
BRANCH  11  35
HETATM   35  C   UNK N   1      31.154  15.964   3.595  0.00  0.00     0.013 C 
HETATM   36  C   UNK N   1      30.014  16.297   2.643  0.00  0.00     0.012 C 
BRANCH  35  37
HETATM   37  C   UNK N   1      31.558  17.273   4.271  0.00  0.00     0.002 C 
HETATM   38  C   UNK N   1      33.022  17.623   4.093  0.00  0.00     0.005 C 
ENDBRANCH  35  37
ENDBRANCH  11  35
ENDBRANCH   8  11
ENDBRANCH   6   7
BRANCH   6  39
HETATM   39  C   UNK N   1      27.185  13.447   2.223  0.00  0.00     0.146 C 
HETATM   40  C   UNK N   1      27.402  12.053   1.660  0.00  0.00     0.042 C 
BRANCH  39  41
HETATM   41  O   UNK N   1      25.842  13.572   2.583  0.00  0.00    -0.393 OA
HETATM   42  H   UNK N   1      25.176  13.009   3.008  0.00  0.00     0.210 HD
ENDBRANCH  39  41
ENDBRANCH   6  39
ENDBRANCH   3   6
ENDBRANCH   1   2
BRANCH   1  43
HETATM   43  C   UNK N   1      25.976  16.482   4.815  0.00  0.00     0.241 C 
HETATM   44  O   UNK N   1      25.996  16.503   3.593  0.00  0.00    -0.271 OA
HETATM   45  N   UNK N   1      25.051  17.194   5.509  0.00  0.00    -0.346 N 
HETATM   46  H   UNK N   1      25.043  17.074   6.486  0.00  0.00     0.163 HD
BRANCH  45  47
HETATM   47  C   UNK N   1      24.076  18.112   4.956  0.00  0.00     0.180 C 
BRANCH  47  48
HETATM   48  C   UNK N   1      24.543  19.544   4.614  0.00  0.00     0.013 C 
HETATM   49  C   UNK N   1      24.300  19.913   3.160  0.00  0.00     0.012 C 
BRANCH  48  50
HETATM   50  C   UNK N   1      26.028  19.696   4.888  0.00  0.00     0.002 C 
HETATM   51  C   UNK N   1      26.284  20.865   5.815  0.00  0.00     0.005 C 
ENDBRANCH  48  50
ENDBRANCH  47  48
BRANCH  47  52
HETATM   52  C   UNK N   1      22.680  17.866   5.488  0.00  0.00     0.241 C 
HETATM   53  O   UNK N   1      22.212  18.677   6.268  0.00  0.00    -0.271 OA
HETATM   54  N   UNK N   1      21.918  16.803   5.106  0.00  0.00    -0.346 N 
HETATM   55  H   UNK N   1      21.026  16.708   5.512  0.00  0.00     0.163 HD
BRANCH  54  56
HETATM   56  C   UNK N   1      22.328  15.803   4.143  0.00  0.00     0.176 C 
BRANCH  56  57
HETATM   57  C   UNK N   1      22.842  14.488   4.735  0.00  0.00     0.243 C 
HETATM   58  O   UNK N   1      23.996  14.184   4.486  0.00  0.00    -0.271 OA
HETATM   59  N   UNK N   1      22.065  13.614   5.453  0.00  0.00    -0.337 N 
HETATM   60  C   UNK N   1      20.699  13.819   5.819  0.00  0.00     0.179 C 
HETATM   61  C   UNK N   1      22.513  12.269   5.684  0.00  0.00     0.127 C 
HETATM   62  C   UNK N   1      20.073  12.436   5.710  0.00  0.00     0.037 C 
HETATM   63  C   UNK N   1      21.237  11.446   5.582  0.00  0.00     0.022 C 
BRANCH  60  64
HETATM   64  C   UNK N   1      20.661  14.295   7.249  0.00  0.00     0.240 C 
HETATM   65  O   UNK N   1      20.383  15.459   7.490  0.00  0.00    -0.271 OA
HETATM   66  N   UNK N   1      20.981  13.439   8.255  0.00  0.00    -0.360 N 
HETATM   67  H   UNK N   1      21.172  12.498   8.037  0.00  0.00     0.162 HD
BRANCH  66  68
HETATM   68  C   UNK N   1      21.052  13.862   9.631  0.00  0.00     0.118 C 
HETATM   69  C   UNK N   1      21.937  12.917  10.416  0.00  0.00     0.026 C 
ENDBRANCH  66  68
ENDBRANCH  60  64
ENDBRANCH  56  57
BRANCH  56  70
HETATM   70  C   UNK N   1      21.143  15.464   3.233  0.00  0.00     0.036 C 
BRANCH  70  71
HETATM   71  C   UNK N   1      21.036  16.436   2.063  0.00  0.00     0.023 C 
BRANCH  71  72
HETATM   72  C   UNK N   1      20.193  17.638   2.435  0.00  0.00     0.138 C 
BRANCH  72  73
HETATM   73  N   UNK N   1      20.269  18.653   1.410  0.00  0.00    -0.227 N 
HETATM   74  C   UNK N   1      20.467  19.901   1.669  0.00  0.00     0.665 C 
HETATM   75  N   UNK N   1      20.626  20.355   3.000  0.00  0.00    -0.235 N 
HETATM   76  N   UNK N   1      20.536  20.826   0.606  0.00  0.00    -0.235 N 
HETATM   77  H   UNK N   1      20.134  19.935   3.742  0.00  0.00     0.174 HD
HETATM   78  H   UNK N   1      21.239  21.103   3.187  0.00  0.00     0.174 HD
HETATM   79  H   UNK N   1      20.874  21.745   0.708  0.00  0.00     0.174 HD
HETATM   80  H   UNK N   1      20.230  20.539  -0.284  0.00  0.00     0.174 HD
ATOM     81  HN  UNK N   1      20.161  18.370   0.437  1.00  0.00     0.177 HD
ENDBRANCH  72  73
ENDBRANCH  71  72
ENDBRANCH  70  71
ENDBRANCH  56  70
ENDBRANCH  54  56
ENDBRANCH  47  52
ENDBRANCH  45  47
ENDBRANCH   1  43
BRANCH   1  82
HETATM   82  C   UNK N   1      27.484  16.470   6.876  0.00  0.00     0.034 C 
BRANCH  82  83
HETATM   83  C   UNK N   1      28.582  17.482   6.621  0.00  0.00    -0.002 C 
HETATM   84  C   UNK N   1      29.780  17.160   7.489  0.00  0.00     0.005 C 
ENDBRANCH  82  83
ENDBRANCH   1  82
TORSDOF 31
ENDMDL
MODEL 6
REMARK VINA RESULT:      -7.0      2.448      3.954
REMARK  31 active torsions:
REMARK  status: ('A' for Active; 'I' for Inactive)
REMARK    1  A    between atoms: C_56  and  O_5 
REMARK       I    between atoms: N_12  and  C_30 
REMARK    2  A    between atoms: C_31  and  N_13 
REMARK       I    between atoms: N_13  and  C_37 
REMARK       I    between atoms: N_14  and  C_32 
REMARK    3  A    between atoms: N_14  and  C_39 
REMARK    4  A    between atoms: C_34  and  N_15 
REMARK       I    between atoms: N_15  and  C_43 
REMARK    5  A    between atoms: C_42  and  N_16 
REMARK       I    between atoms: N_16  and  C_52 
REMARK    6  A    between atoms: C_44  and  N_17 
REMARK       I    between atoms: N_17  and  C_58 
REMARK    7  A    between atoms: C_48  and  N_18 
REMARK       I    between atoms: N_18  and  C_51 
REMARK    8  A    between atoms: N_19  and  C_41 
REMARK    9  A    between atoms: C_54  and  N_21 
REMARK       I    between atoms: N_21  and  C_65 
REMARK       I    between atoms: N_22  and  C_64 
REMARK       I    between atoms: N_23  and  C_64 
REMARK   10  A    between atoms: N_24  and  C_66 
REMARK       I    between atoms: N_24  and  C_67 
REMARK   11  A    between atoms: N_25  and  C_68 
REMARK       I    between atoms: N_25  and  C_70 
REMARK   12  A    between atoms: C_26  and  C_32 
REMARK   13  A    between atoms: C_30  and  C_31 
REMARK   14  A    between atoms: C_31  and  C_33 
REMARK   15  A    between atoms: C_33  and  C_36 
REMARK   16  A    between atoms: C_34  and  C_35 
REMARK   17  A    between atoms: C_34  and  C_37 
REMARK   18  A    between atoms: C_35  and  C_38 
REMARK   19  A    between atoms: C_36  and  C_41 
REMARK   20  A    between atoms: C_42  and  C_43 
REMARK   21  A    between atoms: C_42  and  C_47 
REMARK   22  A    between atoms: C_44  and  C_45 
REMARK   23  A    between atoms: C_44  and  C_51 
REMARK   24  A    between atoms: C_45  and  C_50 
REMARK   25  A    between atoms: C_47  and  C_53 
REMARK   26  A    between atoms: C_48  and  C_52 
REMARK   27  A    between atoms: C_48  and  C_56 
REMARK   28  A    between atoms: C_54  and  C_57 
REMARK   29  A    between atoms: C_54  and  C_58 
REMARK   30  A    between atoms: C_65  and  C_66 
REMARK   31  A    between atoms: C_67  and  C_68 
ROOT
HETATM    1  C   UNK N   1      24.608  17.255   4.371  0.00  0.00     0.176 C 
ENDROOT
BRANCH   1   2
HETATM    2  N   UNK N   1      25.055  16.728   5.642  0.00  0.00    -0.346 N 
HETATM    3  C   UNK N   1      25.468  15.470   5.953  0.00  0.00     0.243 C 
HETATM    4  O   UNK N   1      25.772  15.243   7.109  0.00  0.00    -0.271 OA
HETATM    5  H   UNK N   1      25.061  17.372   6.388  0.00  0.00     0.163 HD
BRANCH   3   6
HETATM    6  C   UNK N   1      25.638  14.338   4.956  0.00  0.00     0.205 C 
BRANCH   6   7
HETATM    7  N   UNK N   1      26.830  13.526   5.119  0.00  0.00    -0.344 N 
HETATM    8  C   UNK N   1      28.110  13.913   4.865  0.00  0.00     0.241 C 
HETATM    9  O   UNK N   1      28.996  13.074   4.920  0.00  0.00    -0.271 OA
HETATM   10  H   UNK N   1      26.700  12.606   5.445  0.00  0.00     0.163 HD
BRANCH   8  11
HETATM   11  C   UNK N   1      28.496  15.332   4.514  0.00  0.00     0.180 C 
BRANCH  11  12
HETATM   12  N   UNK N   1      28.861  16.047   5.736  0.00  0.00    -0.346 N 
HETATM   13  C   UNK N   1      29.999  16.008   6.481  0.00  0.00     0.241 C 
HETATM   14  O   UNK N   1      30.948  15.318   6.161  0.00  0.00    -0.271 OA
HETATM   15  H   UNK N   1      28.168  16.657   6.077  0.00  0.00     0.163 HD
BRANCH  13  16
HETATM   16  C   UNK N   1      30.109  16.828   7.737  0.00  0.00     0.180 C 
BRANCH  16  17
HETATM   17  N   UNK N   1      31.226  17.751   7.707  0.00  0.00    -0.346 N 
HETATM   18  C   UNK N   1      32.458  17.543   8.241  0.00  0.00     0.236 C 
HETATM   19  O   UNK N   1      33.304  18.413   8.104  0.00  0.00    -0.272 OA
HETATM   20  H   UNK N   1      31.078  18.613   7.254  0.00  0.00     0.163 HD
BRANCH  18  21
HETATM   21  C   UNK N   1      32.814  16.273   8.985  0.00  0.00     0.225 C 
BRANCH  21  22
HETATM   22  N   UNK N   1      34.006  16.490   9.772  0.00  0.00    -0.351 N 
HETATM   23  C   UNK N   1      35.133  15.765   9.582  0.00  0.00     0.235 C 
HETATM   24  O   UNK N   1      35.227  14.994   8.638  0.00  0.00    -0.272 OA
HETATM   25  H   UNK N   1      34.000  17.186  10.469  0.00  0.00     0.163 HD
BRANCH  23  26
HETATM   26  C   UNK N   1      36.209  15.807  10.613  0.00  0.00     0.227 C 
BRANCH  26  27
HETATM   27  N   UNK N   1      36.282  14.509  11.252  0.00  0.00    -0.348 N 
HETATM   28  C   UNK N   1      35.278  14.166  12.229  0.00  0.00     0.153 C 
HETATM   29  C   UNK N   1      37.309  13.651  10.976  0.00  0.00     0.215 C 
HETATM   30  O   UNK N   1      38.162  13.952  10.154  0.00  0.00    -0.274 OA
HETATM   31  C   UNK N   1      37.423  12.332  11.677  0.00  0.00     0.117 C 
ENDBRANCH  26  27
ENDBRANCH  23  26
ENDBRANCH  21  22
ENDBRANCH  18  21
ENDBRANCH  16  17
BRANCH  16  32
HETATM   32  C   UNK N   1      28.835  17.408   8.372  0.00  0.00     0.009 C 
HETATM   33  C   UNK N   1      28.773  17.317   9.885  0.00  0.00     0.012 C 
HETATM   34  C   UNK N   1      28.629  18.844   7.942  0.00  0.00     0.012 C 
ENDBRANCH  16  32
ENDBRANCH  13  16
ENDBRANCH  11  12
BRANCH  11  35
HETATM   35  C   UNK N   1      29.423  15.342   3.267  0.00  0.00     0.013 C 
HETATM   36  C   UNK N   1      28.619  14.882   2.060  0.00  0.00     0.012 C 
BRANCH  35  37
HETATM   37  C   UNK N   1      30.087  16.660   2.875  0.00  0.00     0.002 C 
HETATM   38  C   UNK N   1      31.596  16.646   3.014  0.00  0.00     0.005 C 
ENDBRANCH  35  37
ENDBRANCH  11  35
ENDBRANCH   8  11
ENDBRANCH   6   7
BRANCH   6  39
HETATM   39  C   UNK N   1      24.407  13.446   4.826  0.00  0.00     0.146 C 
HETATM   40  C   UNK N   1      24.669  12.068   5.412  0.00  0.00     0.042 C 
BRANCH  39  41
HETATM   41  O   UNK N   1      23.344  14.024   5.522  0.00  0.00    -0.393 OA
HETATM   42  H   UNK N   1      23.034  14.040   6.441  0.00  0.00     0.210 HD
ENDBRANCH  39  41
ENDBRANCH   6  39
ENDBRANCH   3   6
ENDBRANCH   1   2
BRANCH   1  43
HETATM   43  C   UNK N   1      23.141  17.569   4.280  0.00  0.00     0.241 C 
HETATM   44  O   UNK N   1      22.756  18.713   4.468  0.00  0.00    -0.271 OA
HETATM   45  N   UNK N   1      22.256  16.548   4.146  0.00  0.00    -0.346 N 
HETATM   46  H   UNK N   1      22.630  15.666   3.922  0.00  0.00     0.163 HD
BRANCH  45  47
HETATM   47  C   UNK N   1      20.817  16.628   4.300  0.00  0.00     0.180 C 
BRANCH  47  48
HETATM   48  C   UNK N   1      20.163  15.796   5.424  0.00  0.00     0.013 C 
HETATM   49  C   UNK N   1      18.648  15.741   5.313  0.00  0.00     0.012 C 
BRANCH  48  50
HETATM   50  C   UNK N   1      20.506  16.380   6.782  0.00  0.00     0.002 C 
HETATM   51  C   UNK N   1      20.474  15.307   7.850  0.00  0.00     0.005 C 
ENDBRANCH  48  50
ENDBRANCH  47  48
BRANCH  47  52
HETATM   52  C   UNK N   1      20.103  16.833   2.982  0.00  0.00     0.241 C 
HETATM   53  O   UNK N   1      19.635  17.935   2.747  0.00  0.00    -0.271 OA
HETATM   54  N   UNK N   1      19.993  15.857   2.038  0.00  0.00    -0.346 N 
HETATM   55  H   UNK N   1      19.497  16.069   1.214  0.00  0.00     0.163 HD
BRANCH  54  56
HETATM   56  C   UNK N   1      20.554  14.528   2.162  0.00  0.00     0.176 C 
BRANCH  56  57
HETATM   57  C   UNK N   1      19.543  13.405   2.408  0.00  0.00     0.243 C 
HETATM   58  O   UNK N   1      18.402  13.594   2.021  0.00  0.00    -0.271 OA
HETATM   59  N   UNK N   1      19.828  12.251   3.093  0.00  0.00    -0.337 N 
HETATM   60  C   UNK N   1      21.108  11.885   3.615  0.00  0.00     0.179 C 
HETATM   61  C   UNK N   1      18.766  11.410   3.570  0.00  0.00     0.127 C 
HETATM   62  C   UNK N   1      20.788  11.184   4.928  0.00  0.00     0.037 C 
HETATM   63  C   UNK N   1      19.278  10.916   4.915  0.00  0.00     0.022 C 
BRANCH  60  64
HETATM   64  C   UNK N   1      21.750  10.918   2.653  0.00  0.00     0.240 C 
HETATM   65  O   UNK N   1      22.877  10.506   2.874  0.00  0.00    -0.271 OA
HETATM   66  N   UNK N   1      21.088  10.547   1.524  0.00  0.00    -0.360 N 
HETATM   67  H   UNK N   1      20.168  10.868   1.385  0.00  0.00     0.162 HD
BRANCH  66  68
HETATM   68  C   UNK N   1      21.688   9.700   0.525  0.00  0.00     0.118 C 
HETATM   69  C   UNK N   1      20.642   8.778  -0.064  0.00  0.00     0.026 C 
ENDBRANCH  66  68
ENDBRANCH  60  64
ENDBRANCH  56  57
BRANCH  56  70
HETATM   70  C   UNK N   1      21.320  14.183   0.882  0.00  0.00     0.036 C 
BRANCH  70  71
HETATM   71  C   UNK N   1      22.821  14.383   1.053  0.00  0.00     0.023 C 
BRANCH  71  72
HETATM   72  C   UNK N   1      23.587  13.163   0.585  0.00  0.00     0.138 C 
BRANCH  72  73
HETATM   73  N   UNK N   1      24.853  13.057   1.273  0.00  0.00    -0.227 N 
HETATM   74  C   UNK N   1      25.534  11.964   1.330  0.00  0.00     0.665 C 
HETATM   75  N   UNK N   1      25.071  10.782   0.703  0.00  0.00    -0.235 N 
HETATM   76  N   UNK N   1      26.766  11.950   2.017  0.00  0.00    -0.235 N 
HETATM   77  H   UNK N   1      24.110  10.573   0.659  0.00  0.00     0.174 HD
HETATM   78  H   UNK N   1      25.721  10.158   0.305  0.00  0.00     0.174 HD
HETATM   79  H   UNK N   1      27.424  11.222   1.937  0.00  0.00     0.174 HD
HETATM   80  H   UNK N   1      26.979  12.707   2.608  0.00  0.00     0.174 HD
ATOM     81  HN  UNK N   1      25.224  13.885   1.737  1.00  0.00     0.177 HD
ENDBRANCH  72  73
ENDBRANCH  71  72
ENDBRANCH  70  71
ENDBRANCH  56  70
ENDBRANCH  54  56
ENDBRANCH  47  52
ENDBRANCH  45  47
ENDBRANCH   1  43
BRANCH   1  82
HETATM   82  C   UNK N   1      25.535  18.324   3.807  0.00  0.00     0.034 C 
BRANCH  82  83
HETATM   83  C   UNK N   1      26.482  18.798   4.891  0.00  0.00    -0.002 C 
HETATM   84  C   UNK N   1      27.681  19.472   4.256  0.00  0.00     0.005 C 
ENDBRANCH  82  83
ENDBRANCH   1  82
TORSDOF 31
ENDMDL
MODEL 7
REMARK VINA RESULT:      -7.0      2.707      3.634
REMARK  31 active torsions:
REMARK  status: ('A' for Active; 'I' for Inactive)
REMARK    1  A    between atoms: C_56  and  O_5 
REMARK       I    between atoms: N_12  and  C_30 
REMARK    2  A    between atoms: C_31  and  N_13 
REMARK       I    between atoms: N_13  and  C_37 
REMARK       I    between atoms: N_14  and  C_32 
REMARK    3  A    between atoms: N_14  and  C_39 
REMARK    4  A    between atoms: C_34  and  N_15 
REMARK       I    between atoms: N_15  and  C_43 
REMARK    5  A    between atoms: C_42  and  N_16 
REMARK       I    between atoms: N_16  and  C_52 
REMARK    6  A    between atoms: C_44  and  N_17 
REMARK       I    between atoms: N_17  and  C_58 
REMARK    7  A    between atoms: C_48  and  N_18 
REMARK       I    between atoms: N_18  and  C_51 
REMARK    8  A    between atoms: N_19  and  C_41 
REMARK    9  A    between atoms: C_54  and  N_21 
REMARK       I    between atoms: N_21  and  C_65 
REMARK       I    between atoms: N_22  and  C_64 
REMARK       I    between atoms: N_23  and  C_64 
REMARK   10  A    between atoms: N_24  and  C_66 
REMARK       I    between atoms: N_24  and  C_67 
REMARK   11  A    between atoms: N_25  and  C_68 
REMARK       I    between atoms: N_25  and  C_70 
REMARK   12  A    between atoms: C_26  and  C_32 
REMARK   13  A    between atoms: C_30  and  C_31 
REMARK   14  A    between atoms: C_31  and  C_33 
REMARK   15  A    between atoms: C_33  and  C_36 
REMARK   16  A    between atoms: C_34  and  C_35 
REMARK   17  A    between atoms: C_34  and  C_37 
REMARK   18  A    between atoms: C_35  and  C_38 
REMARK   19  A    between atoms: C_36  and  C_41 
REMARK   20  A    between atoms: C_42  and  C_43 
REMARK   21  A    between atoms: C_42  and  C_47 
REMARK   22  A    between atoms: C_44  and  C_45 
REMARK   23  A    between atoms: C_44  and  C_51 
REMARK   24  A    between atoms: C_45  and  C_50 
REMARK   25  A    between atoms: C_47  and  C_53 
REMARK   26  A    between atoms: C_48  and  C_52 
REMARK   27  A    between atoms: C_48  and  C_56 
REMARK   28  A    between atoms: C_54  and  C_57 
REMARK   29  A    between atoms: C_54  and  C_58 
REMARK   30  A    between atoms: C_65  and  C_66 
REMARK   31  A    between atoms: C_67  and  C_68 
ROOT
HETATM    1  C   UNK N   1      25.649  17.782   4.929  0.00  0.00     0.176 C 
ENDROOT
BRANCH   1   2
HETATM    2  N   UNK N   1      26.445  17.476   6.097  0.00  0.00    -0.346 N 
HETATM    3  C   UNK N   1      27.547  16.686   6.203  0.00  0.00     0.243 C 
HETATM    4  O   UNK N   1      28.041  16.546   7.307  0.00  0.00    -0.271 OA
HETATM    5  H   UNK N   1      26.147  17.900   6.935  0.00  0.00     0.163 HD
BRANCH   3   6
HETATM    6  C   UNK N   1      28.248  16.009   5.039  0.00  0.00     0.205 C 
BRANCH   6   7
HETATM    7  N   UNK N   1      29.023  14.827   5.368  0.00  0.00    -0.344 N 
HETATM    8  C   UNK N   1      30.372  14.771   5.544  0.00  0.00     0.241 C 
HETATM    9  O   UNK N   1      30.899  13.679   5.684  0.00  0.00    -0.271 OA
HETATM   10  H   UNK N   1      28.526  13.985   5.475  0.00  0.00     0.163 HD
BRANCH   8  11
HETATM   11  C   UNK N   1      31.258  15.997   5.574  0.00  0.00     0.180 C 
BRANCH  11  12
HETATM   12  N   UNK N   1      32.404  15.741   6.446  0.00  0.00    -0.346 N 
HETATM   13  C   UNK N   1      32.542  15.876   7.792  0.00  0.00     0.241 C 
HETATM   14  O   UNK N   1      31.619  16.238   8.496  0.00  0.00    -0.271 OA
HETATM   15  H   UNK N   1      33.210  15.419   5.980  0.00  0.00     0.163 HD
BRANCH  13  16
HETATM   16  C   UNK N   1      33.860  15.576   8.451  0.00  0.00     0.180 C 
BRANCH  16  17
HETATM   17  N   UNK N   1      34.508  14.403   7.900  0.00  0.00    -0.346 N 
HETATM   18  C   UNK N   1      34.473  13.146   8.416  0.00  0.00     0.236 C 
HETATM   19  O   UNK N   1      35.050  12.255   7.811  0.00  0.00    -0.272 OA
HETATM   20  H   UNK N   1      35.024  14.528   7.070  0.00  0.00     0.163 HD
BRANCH  18  21
HETATM   21  C   UNK N   1      33.738  12.817   9.699  0.00  0.00     0.225 C 
BRANCH  21  22
HETATM   22  N   UNK N   1      33.966  11.434  10.047  0.00  0.00    -0.351 N 
HETATM   23  C   UNK N   1      32.998  10.496   9.932  0.00  0.00     0.235 C 
HETATM   24  O   UNK N   1      31.934  10.761   9.391  0.00  0.00    -0.272 OA
HETATM   25  H   UNK N   1      34.853  11.164  10.381  0.00  0.00     0.163 HD
BRANCH  23  26
HETATM   26  C   UNK N   1      33.183   9.172  10.594  0.00  0.00     0.227 C 
BRANCH  26  27
HETATM   27  N   UNK N   1      33.162   8.144   9.574  0.00  0.00    -0.348 N 
HETATM   28  C   UNK N   1      34.309   8.010   8.710  0.00  0.00     0.153 C 
HETATM   29  C   UNK N   1      32.060   7.355   9.399  0.00  0.00     0.215 C 
HETATM   30  O   UNK N   1      31.088   7.481  10.129  0.00  0.00    -0.274 OA
HETATM   31  C   UNK N   1      32.009   6.331   8.307  0.00  0.00     0.117 C 
ENDBRANCH  26  27
ENDBRANCH  23  26
ENDBRANCH  21  22
ENDBRANCH  18  21
ENDBRANCH  16  17
BRANCH  16  32
HETATM   32  C   UNK N   1      34.824  16.732   8.769  0.00  0.00     0.009 C 
HETATM   33  C   UNK N   1      34.390  18.090   8.251  0.00  0.00     0.012 C 
HETATM   34  C   UNK N   1      35.086  16.816  10.257  0.00  0.00     0.012 C 
ENDBRANCH  16  32
ENDBRANCH  13  16
ENDBRANCH  11  12
BRANCH  11  35
HETATM   35  C   UNK N   1      31.448  16.554   4.137  0.00  0.00     0.013 C 
HETATM   36  C   UNK N   1      32.441  17.707   4.188  0.00  0.00     0.012 C 
BRANCH  35  37
HETATM   37  C   UNK N   1      31.943  15.597   3.054  0.00  0.00     0.002 C 
HETATM   38  C   UNK N   1      33.453  15.496   2.975  0.00  0.00     0.005 C 
ENDBRANCH  35  37
ENDBRANCH  11  35
ENDBRANCH   8  11
ENDBRANCH   6   7
BRANCH   6  39
HETATM   39  C   UNK N   1      27.329  15.721   3.854  0.00  0.00     0.146 C 
HETATM   40  C   UNK N   1      28.134  15.364   2.615  0.00  0.00     0.042 C 
BRANCH  39  41
HETATM   41  O   UNK N   1      26.500  14.642   4.166  0.00  0.00    -0.393 OA
HETATM   42  H   UNK N   1      26.474  13.953   4.848  0.00  0.00     0.210 HD
ENDBRANCH  39  41
ENDBRANCH   6  39
ENDBRANCH   3   6
ENDBRANCH   1   2
BRANCH   1  43
HETATM   43  C   UNK N   1      24.229  17.291   4.967  0.00  0.00     0.241 C 
HETATM   44  O   UNK N   1      23.938  16.240   4.415  0.00  0.00    -0.271 OA
HETATM   45  N   UNK N   1      23.265  18.101   5.475  0.00  0.00    -0.346 N 
HETATM   46  H   UNK N   1      23.571  18.895   5.971  0.00  0.00     0.163 HD
BRANCH  45  47
HETATM   47  C   UNK N   1      21.832  17.915   5.361  0.00  0.00     0.180 C 
BRANCH  47  48
HETATM   48  C   UNK N   1      21.110  18.567   4.162  0.00  0.00     0.013 C 
HETATM   49  C   UNK N   1      20.625  17.552   3.141  0.00  0.00     0.012 C 
BRANCH  48  50
HETATM   50  C   UNK N   1      22.039  19.533   3.448  0.00  0.00     0.002 C 
HETATM   51  C   UNK N   1      21.248  20.512   2.607  0.00  0.00     0.005 C 
ENDBRANCH  48  50
ENDBRANCH  47  48
BRANCH  47  52
HETATM   52  C   UNK N   1      21.150  17.821   6.709  0.00  0.00     0.241 C 
HETATM   53  O   UNK N   1      20.843  18.859   7.271  0.00  0.00    -0.271 OA
HETATM   54  N   UNK N   1      20.835  16.634   7.300  0.00  0.00    -0.346 N 
HETATM   55  H   UNK N   1      20.406  16.662   8.186  0.00  0.00     0.163 HD
BRANCH  54  56
HETATM   56  C   UNK N   1      21.086  15.334   6.715  0.00  0.00     0.176 C 
BRANCH  56  57
HETATM   57  C   UNK N   1      21.257  14.184   7.711  0.00  0.00     0.243 C 
HETATM   58  O   UNK N   1      20.288  13.894   8.392  0.00  0.00    -0.271 OA
HETATM   59  N   UNK N   1      22.441  13.525   7.928  0.00  0.00    -0.337 N 
HETATM   60  C   UNK N   1      23.663  13.752   7.222  0.00  0.00     0.179 C 
HETATM   61  C   UNK N   1      22.610  12.702   9.093  0.00  0.00     0.127 C 
HETATM   62  C   UNK N   1      24.742  13.585   8.283  0.00  0.00     0.037 C 
HETATM   63  C   UNK N   1      24.056  12.949   9.497  0.00  0.00     0.022 C 
BRANCH  60  64
HETATM   64  C   UNK N   1      23.803  12.685   6.167  0.00  0.00     0.240 C 
HETATM   65  O   UNK N   1      24.656  12.799   5.302  0.00  0.00    -0.271 OA
HETATM   66  N   UNK N   1      22.949  11.626   6.158  0.00  0.00    -0.360 N 
HETATM   67  H   UNK N   1      22.290  11.541   6.884  0.00  0.00     0.162 HD
BRANCH  66  68
HETATM   68  C   UNK N   1      22.976  10.625   5.122  0.00  0.00     0.118 C 
HETATM   69  C   UNK N   1      23.231   9.262   5.730  0.00  0.00     0.026 C 
ENDBRANCH  66  68
ENDBRANCH  60  64
ENDBRANCH  56  57
BRANCH  56  70
HETATM   70  C   UNK N   1      19.925  14.967   5.786  0.00  0.00     0.036 C 
BRANCH  70  71
HETATM   71  C   UNK N   1      20.290  13.814   4.858  0.00  0.00     0.023 C 
BRANCH  71  72
HETATM   72  C   UNK N   1      21.428  14.202   3.936  0.00  0.00     0.138 C 
BRANCH  72  73
HETATM   73  N   UNK N   1      21.657  13.175   2.946  0.00  0.00    -0.227 N 
HETATM   74  C   UNK N   1      22.782  13.026   2.334  0.00  0.00     0.665 C 
HETATM   75  N   UNK N   1      23.880  13.878   2.607  0.00  0.00    -0.235 N 
HETATM   76  N   UNK N   1      22.924  11.991   1.386  0.00  0.00    -0.235 N 
HETATM   77  H   UNK N   1      23.744  14.827   2.827  0.00  0.00     0.174 HD
HETATM   78  H   UNK N   1      24.795  13.513   2.576  0.00  0.00     0.174 HD
HETATM   79  H   UNK N   1      23.793  11.696   1.031  0.00  0.00     0.174 HD
HETATM   80  H   UNK N   1      22.111  11.540   1.063  0.00  0.00     0.174 HD
ATOM     81  HN  UNK N   1      20.894  12.539   2.720  1.00  0.00     0.177 HD
ENDBRANCH  72  73
ENDBRANCH  71  72
ENDBRANCH  70  71
ENDBRANCH  56  70
ENDBRANCH  54  56
ENDBRANCH  47  52
ENDBRANCH  45  47
ENDBRANCH   1  43
BRANCH   1  82
HETATM   82  C   UNK N   1      25.826  19.214   4.441  0.00  0.00     0.034 C 
BRANCH  82  83
HETATM   83  C   UNK N   1      26.159  20.112   5.615  0.00  0.00    -0.002 C 
HETATM   84  C   UNK N   1      27.500  20.776   5.381  0.00  0.00     0.005 C 
ENDBRANCH  82  83
ENDBRANCH   1  82
TORSDOF 31
ENDMDL
MODEL 8
REMARK VINA RESULT:      -6.9      2.992     11.194
REMARK  31 active torsions:
REMARK  status: ('A' for Active; 'I' for Inactive)
REMARK    1  A    between atoms: C_56  and  O_5 
REMARK       I    between atoms: N_12  and  C_30 
REMARK    2  A    between atoms: C_31  and  N_13 
REMARK       I    between atoms: N_13  and  C_37 
REMARK       I    between atoms: N_14  and  C_32 
REMARK    3  A    between atoms: N_14  and  C_39 
REMARK    4  A    between atoms: C_34  and  N_15 
REMARK       I    between atoms: N_15  and  C_43 
REMARK    5  A    between atoms: C_42  and  N_16 
REMARK       I    between atoms: N_16  and  C_52 
REMARK    6  A    between atoms: C_44  and  N_17 
REMARK       I    between atoms: N_17  and  C_58 
REMARK    7  A    between atoms: C_48  and  N_18 
REMARK       I    between atoms: N_18  and  C_51 
REMARK    8  A    between atoms: N_19  and  C_41 
REMARK    9  A    between atoms: C_54  and  N_21 
REMARK       I    between atoms: N_21  and  C_65 
REMARK       I    between atoms: N_22  and  C_64 
REMARK       I    between atoms: N_23  and  C_64 
REMARK   10  A    between atoms: N_24  and  C_66 
REMARK       I    between atoms: N_24  and  C_67 
REMARK   11  A    between atoms: N_25  and  C_68 
REMARK       I    between atoms: N_25  and  C_70 
REMARK   12  A    between atoms: C_26  and  C_32 
REMARK   13  A    between atoms: C_30  and  C_31 
REMARK   14  A    between atoms: C_31  and  C_33 
REMARK   15  A    between atoms: C_33  and  C_36 
REMARK   16  A    between atoms: C_34  and  C_35 
REMARK   17  A    between atoms: C_34  and  C_37 
REMARK   18  A    between atoms: C_35  and  C_38 
REMARK   19  A    between atoms: C_36  and  C_41 
REMARK   20  A    between atoms: C_42  and  C_43 
REMARK   21  A    between atoms: C_42  and  C_47 
REMARK   22  A    between atoms: C_44  and  C_45 
REMARK   23  A    between atoms: C_44  and  C_51 
REMARK   24  A    between atoms: C_45  and  C_50 
REMARK   25  A    between atoms: C_47  and  C_53 
REMARK   26  A    between atoms: C_48  and  C_52 
REMARK   27  A    between atoms: C_48  and  C_56 
REMARK   28  A    between atoms: C_54  and  C_57 
REMARK   29  A    between atoms: C_54  and  C_58 
REMARK   30  A    between atoms: C_65  and  C_66 
REMARK   31  A    between atoms: C_67  and  C_68 
ROOT
HETATM    1  C   UNK N   1      24.379  15.190   5.457  0.00  0.00     0.176 C 
ENDROOT
BRANCH   1   2
HETATM    2  N   UNK N   1      23.769  16.357   6.056  0.00  0.00    -0.346 N 
HETATM    3  C   UNK N   1      22.572  16.940   5.777  0.00  0.00     0.243 C 
HETATM    4  O   UNK N   1      22.273  17.946   6.394  0.00  0.00    -0.271 OA
HETATM    5  H   UNK N   1      24.294  16.791   6.767  0.00  0.00     0.163 HD
BRANCH   3   6
HETATM    6  C   UNK N   1      21.547  16.398   4.796  0.00  0.00     0.205 C 
BRANCH   6   7
HETATM    7  N   UNK N   1      20.156  16.587   5.165  0.00  0.00    -0.344 N 
HETATM    8  C   UNK N   1      19.297  15.621   5.590  0.00  0.00     0.241 C 
HETATM    9  O   UNK N   1      18.119  15.908   5.734  0.00  0.00    -0.271 OA
HETATM   10  H   UNK N   1      19.801  17.503   5.103  0.00  0.00     0.163 HD
BRANCH   8  11
HETATM   11  C   UNK N   1      19.725  14.202   5.892  0.00  0.00     0.180 C 
BRANCH  11  12
HETATM   12  N   UNK N   1      19.920  13.480   4.636  0.00  0.00    -0.346 N 
HETATM   13  C   UNK N   1      19.036  12.797   3.859  0.00  0.00     0.241 C 
HETATM   14  O   UNK N   1      17.856  12.727   4.143  0.00  0.00    -0.271 OA
HETATM   15  H   UNK N   1      20.844  13.489   4.297  0.00  0.00     0.163 HD
BRANCH  13  16
HETATM   16  C   UNK N   1      19.508  12.099   2.613  0.00  0.00     0.180 C 
BRANCH  16  17
HETATM   17  N   UNK N   1      19.250  10.674   2.637  0.00  0.00    -0.346 N 
HETATM   18  C   UNK N   1      20.183   9.686   2.654  0.00  0.00     0.236 C 
HETATM   19  O   UNK N   1      19.800   8.527   2.704  0.00  0.00    -0.272 OA
HETATM   20  H   UNK N   1      18.306  10.393   2.641  0.00  0.00     0.163 HD
BRANCH  18  21
HETATM   21  C   UNK N   1      21.669   9.976   2.626  0.00  0.00     0.225 C 
BRANCH  21  22
HETATM   22  N   UNK N   1      22.233   9.752   3.937  0.00  0.00    -0.351 N 
HETATM   23  C   UNK N   1      22.686  10.769   4.706  0.00  0.00     0.235 C 
HETATM   24  O   UNK N   1      22.503  11.931   4.375  0.00  0.00    -0.272 OA
HETATM   25  H   UNK N   1      22.290   8.831   4.283  0.00  0.00     0.163 HD
BRANCH  23  26
HETATM   26  C   UNK N   1      23.534  10.462   5.894  0.00  0.00     0.227 C 
BRANCH  26  27
HETATM   27  N   UNK N   1      24.804   9.944   5.427  0.00  0.00    -0.348 N 
HETATM   28  C   UNK N   1      25.781  10.876   4.918  0.00  0.00     0.153 C 
HETATM   29  C   UNK N   1      25.050   8.600   5.416  0.00  0.00     0.215 C 
HETATM   30  O   UNK N   1      24.213   7.816   5.839  0.00  0.00    -0.274 OA
HETATM   31  C   UNK N   1      26.337   8.055   4.878  0.00  0.00     0.117 C 
ENDBRANCH  26  27
ENDBRANCH  23  26
ENDBRANCH  21  22
ENDBRANCH  18  21
ENDBRANCH  16  17
BRANCH  16  32
HETATM   32  C   UNK N   1      19.264  12.756   1.244  0.00  0.00     0.009 C 
HETATM   33  C   UNK N   1      17.944  12.399   0.586  0.00  0.00     0.012 C 
HETATM   34  C   UNK N   1      19.390  14.261   1.343  0.00  0.00     0.012 C 
ENDBRANCH  16  32
ENDBRANCH  13  16
ENDBRANCH  11  12
BRANCH  11  35
HETATM   35  C   UNK N   1      20.812  14.197   7.002  0.00  0.00     0.013 C 
HETATM   36  C   UNK N   1      20.321  15.043   8.168  0.00  0.00     0.012 C 
BRANCH  35  37
HETATM   37  C   UNK N   1      21.236  12.850   7.586  0.00  0.00     0.002 C 
HETATM   38  C   UNK N   1      21.350  12.851   9.097  0.00  0.00     0.005 C 
ENDBRANCH  35  37
ENDBRANCH  11  35
ENDBRANCH   8  11
ENDBRANCH   6   7
BRANCH   6  39
HETATM   39  C   UNK N   1      21.776  16.855   3.358  0.00  0.00     0.146 C 
HETATM   40  C   UNK N   1      20.610  17.693   2.861  0.00  0.00     0.042 C 
BRANCH  39  41
HETATM   41  O   UNK N   1      22.933  17.634   3.300  0.00  0.00    -0.393 OA
HETATM   42  H   UNK N   1      23.142  18.566   3.132  0.00  0.00     0.210 HD
ENDBRANCH  39  41
ENDBRANCH   6  39
ENDBRANCH   3   6
ENDBRANCH   1   2
BRANCH   1  43
HETATM   43  C   UNK N   1      25.627  15.449   4.661  0.00  0.00     0.241 C 
HETATM   44  O   UNK N   1      25.666  16.395   3.889  0.00  0.00    -0.271 OA
HETATM   45  N   UNK N   1      26.632  14.537   4.697  0.00  0.00    -0.346 N 
HETATM   46  H   UNK N   1      26.575  13.843   5.393  0.00  0.00     0.163 HD
BRANCH  45  47
HETATM   47  C   UNK N   1      27.781  14.483   3.814  0.00  0.00     0.180 C 
BRANCH  47  48
HETATM   48  C   UNK N   1      27.526  14.245   2.310  0.00  0.00     0.013 C 
HETATM   49  C   UNK N   1      26.729  12.980   2.038  0.00  0.00     0.012 C 
BRANCH  48  50
HETATM   50  C   UNK N   1      28.842  14.131   1.562  0.00  0.00     0.002 C 
HETATM   51  C   UNK N   1      29.080  12.706   1.111  0.00  0.00     0.005 C 
ENDBRANCH  48  50
ENDBRANCH  47  48
BRANCH  47  52
HETATM   52  C   UNK N   1      29.004  13.900   4.488  0.00  0.00     0.241 C 
HETATM   53  O   UNK N   1      29.028  12.698   4.694  0.00  0.00    -0.271 OA
HETATM   54  N   UNK N   1      30.086  14.649   4.838  0.00  0.00    -0.346 N 
HETATM   55  H   UNK N   1      30.834  14.193   5.288  0.00  0.00     0.163 HD
BRANCH  54  56
HETATM   56  C   UNK N   1      30.214  16.071   4.595  0.00  0.00     0.176 C 
BRANCH  56  57
HETATM   57  C   UNK N   1      30.511  16.927   5.829  0.00  0.00     0.243 C 
HETATM   58  O   UNK N   1      31.685  17.104   6.109  0.00  0.00    -0.271 OA
HETATM   59  N   UNK N   1      29.546  17.433   6.664  0.00  0.00    -0.337 N 
HETATM   60  C   UNK N   1      28.134  17.307   6.479  0.00  0.00     0.179 C 
HETATM   61  C   UNK N   1      29.901  17.932   7.963  0.00  0.00     0.127 C 
HETATM   62  C   UNK N   1      27.589  17.137   7.891  0.00  0.00     0.037 C 
HETATM   63  C   UNK N   1      28.736  17.499   8.841  0.00  0.00     0.022 C 
BRANCH  60  64
HETATM   64  C   UNK N   1      27.621  18.589   5.875  0.00  0.00     0.240 C 
HETATM   65  O   UNK N   1      28.411  19.460   5.548  0.00  0.00    -0.271 OA
HETATM   66  N   UNK N   1      26.283  18.786   5.742  0.00  0.00    -0.360 N 
HETATM   67  H   UNK N   1      25.668  18.057   5.984  0.00  0.00     0.162 HD
BRANCH  66  68
HETATM   68  C   UNK N   1      25.733  20.028   5.257  0.00  0.00     0.118 C 
HETATM   69  C   UNK N   1      25.505  19.941   3.764  0.00  0.00     0.026 C 
ENDBRANCH  66  68
ENDBRANCH  60  64
ENDBRANCH  56  57
BRANCH  56  70
HETATM   70  C   UNK N   1      31.343  16.311   3.588  0.00  0.00     0.036 C 
BRANCH  70  71
HETATM   71  C   UNK N   1      32.057  15.014   3.225  0.00  0.00     0.023 C 
BRANCH  71  72
HETATM   72  C   UNK N   1      33.556  15.161   3.381  0.00  0.00     0.138 C 
BRANCH  72  73
HETATM   73  N   UNK N   1      33.878  15.859   4.603  0.00  0.00    -0.227 N 
HETATM   74  C   UNK N   1      34.417  15.281   5.623  0.00  0.00     0.665 C 
HETATM   75  N   UNK N   1      34.731  13.901   5.599  0.00  0.00    -0.235 N 
HETATM   76  N   UNK N   1      34.706  16.040   6.776  0.00  0.00    -0.235 N 
HETATM   77  H   UNK N   1      34.164  13.260   5.114  0.00  0.00     0.174 HD
HETATM   78  H   UNK N   1      35.531  13.579   6.076  0.00  0.00     0.174 HD
HETATM   79  H   UNK N   1      35.285  15.720   7.505  0.00  0.00     0.174 HD
HETATM   80  H   UNK N   1      34.308  16.937   6.857  0.00  0.00     0.174 HD
ATOM     81  HN  UNK N   1      33.669  16.854   4.663  1.00  0.00     0.177 HD
ENDBRANCH  72  73
ENDBRANCH  71  72
ENDBRANCH  70  71
ENDBRANCH  56  70
ENDBRANCH  54  56
ENDBRANCH  47  52
ENDBRANCH  45  47
ENDBRANCH   1  43
BRANCH   1  82
HETATM   82  C   UNK N   1      24.449  13.999   6.403  0.00  0.00     0.034 C 
BRANCH  82  83
HETATM   83  C   UNK N   1      25.019  14.441   7.735  0.00  0.00    -0.002 C 
HETATM   84  C   UNK N   1      24.945  13.296   8.723  0.00  0.00     0.005 C 
ENDBRANCH  82  83
ENDBRANCH   1  82
TORSDOF 31
ENDMDL
MODEL 9
REMARK VINA RESULT:      -6.8      3.006     11.505
REMARK  31 active torsions:
REMARK  status: ('A' for Active; 'I' for Inactive)
REMARK    1  A    between atoms: C_56  and  O_5 
REMARK       I    between atoms: N_12  and  C_30 
REMARK    2  A    between atoms: C_31  and  N_13 
REMARK       I    between atoms: N_13  and  C_37 
REMARK       I    between atoms: N_14  and  C_32 
REMARK    3  A    between atoms: N_14  and  C_39 
REMARK    4  A    between atoms: C_34  and  N_15 
REMARK       I    between atoms: N_15  and  C_43 
REMARK    5  A    between atoms: C_42  and  N_16 
REMARK       I    between atoms: N_16  and  C_52 
REMARK    6  A    between atoms: C_44  and  N_17 
REMARK       I    between atoms: N_17  and  C_58 
REMARK    7  A    between atoms: C_48  and  N_18 
REMARK       I    between atoms: N_18  and  C_51 
REMARK    8  A    between atoms: N_19  and  C_41 
REMARK    9  A    between atoms: C_54  and  N_21 
REMARK       I    between atoms: N_21  and  C_65 
REMARK       I    between atoms: N_22  and  C_64 
REMARK       I    between atoms: N_23  and  C_64 
REMARK   10  A    between atoms: N_24  and  C_66 
REMARK       I    between atoms: N_24  and  C_67 
REMARK   11  A    between atoms: N_25  and  C_68 
REMARK       I    between atoms: N_25  and  C_70 
REMARK   12  A    between atoms: C_26  and  C_32 
REMARK   13  A    between atoms: C_30  and  C_31 
REMARK   14  A    between atoms: C_31  and  C_33 
REMARK   15  A    between atoms: C_33  and  C_36 
REMARK   16  A    between atoms: C_34  and  C_35 
REMARK   17  A    between atoms: C_34  and  C_37 
REMARK   18  A    between atoms: C_35  and  C_38 
REMARK   19  A    between atoms: C_36  and  C_41 
REMARK   20  A    between atoms: C_42  and  C_43 
REMARK   21  A    between atoms: C_42  and  C_47 
REMARK   22  A    between atoms: C_44  and  C_45 
REMARK   23  A    between atoms: C_44  and  C_51 
REMARK   24  A    between atoms: C_45  and  C_50 
REMARK   25  A    between atoms: C_47  and  C_53 
REMARK   26  A    between atoms: C_48  and  C_52 
REMARK   27  A    between atoms: C_48  and  C_56 
REMARK   28  A    between atoms: C_54  and  C_57 
REMARK   29  A    between atoms: C_54  and  C_58 
REMARK   30  A    between atoms: C_65  and  C_66 
REMARK   31  A    between atoms: C_67  and  C_68 
ROOT
HETATM    1  C   UNK N   1      28.070  14.953   5.029  0.00  0.00     0.176 C 
ENDROOT
BRANCH   1   2
HETATM    2  N   UNK N   1      27.396  15.154   3.765  0.00  0.00    -0.346 N 
HETATM    3  C   UNK N   1      26.490  14.356   3.138  0.00  0.00     0.243 C 
HETATM    4  O   UNK N   1      26.074  14.714   2.052  0.00  0.00    -0.271 OA
HETATM    5  H   UNK N   1      27.625  15.986   3.291  0.00  0.00     0.163 HD
BRANCH   3   6
HETATM    6  C   UNK N   1      25.909  13.077   3.716  0.00  0.00     0.205 C 
BRANCH   6   7
HETATM    7  N   UNK N   1      24.497  12.855   3.466  0.00  0.00    -0.344 N 
HETATM    8  C   UNK N   1      23.485  13.010   4.363  0.00  0.00     0.241 C 
HETATM    9  O   UNK N   1      22.361  12.654   4.045  0.00  0.00    -0.271 OA
HETATM   10  H   UNK N   1      24.247  12.563   2.560  0.00  0.00     0.163 HD
BRANCH   8  11
HETATM   11  C   UNK N   1      23.679  13.602   5.741  0.00  0.00     0.180 C 
BRANCH  11  12
HETATM   12  N   UNK N   1      22.440  14.251   6.165  0.00  0.00    -0.346 N 
HETATM   13  C   UNK N   1      22.160  15.561   6.402  0.00  0.00     0.241 C 
HETATM   14  O   UNK N   1      22.995  16.431   6.244  0.00  0.00    -0.271 OA
HETATM   15  H   UNK N   1      21.682  13.638   6.304  0.00  0.00     0.163 HD
BRANCH  13  16
HETATM   16  C   UNK N   1      20.791  15.969   6.873  0.00  0.00     0.180 C 
BRANCH  16  17
HETATM   17  N   UNK N   1      19.746  15.097   6.377  0.00  0.00    -0.346 N 
HETATM   18  C   UNK N   1      19.072  15.233   5.205  0.00  0.00     0.236 C 
HETATM   19  O   UNK N   1      18.234  14.391   4.917  0.00  0.00    -0.272 OA
HETATM   20  H   UNK N   1      19.499  14.331   6.945  0.00  0.00     0.163 HD
BRANCH  18  21
HETATM   21  C   UNK N   1      19.333  16.378   4.249  0.00  0.00     0.225 C 
BRANCH  21  22
HETATM   22  N   UNK N   1      19.543  15.859   2.917  0.00  0.00    -0.351 N 
HETATM   23  C   UNK N   1      20.782  15.664   2.410  0.00  0.00     0.235 C 
HETATM   24  O   UNK N   1      21.771  15.788   3.117  0.00  0.00    -0.272 OA
HETATM   25  H   UNK N   1      18.760  15.640   2.359  0.00  0.00     0.163 HD
BRANCH  23  26
HETATM   26  C   UNK N   1      20.942  15.435   0.945  0.00  0.00     0.227 C 
BRANCH  26  27
HETATM   27  N   UNK N   1      21.133  14.016   0.722  0.00  0.00    -0.348 N 
HETATM   28  C   UNK N   1      19.971  13.161   0.710  0.00  0.00     0.153 C 
HETATM   29  C   UNK N   1      22.386  13.492   0.584  0.00  0.00     0.215 C 
HETATM   30  O   UNK N   1      23.367  14.222   0.606  0.00  0.00    -0.274 OA
HETATM   31  C   UNK N   1      22.594  12.018   0.415  0.00  0.00     0.117 C 
ENDBRANCH  26  27
ENDBRANCH  23  26
ENDBRANCH  21  22
ENDBRANCH  18  21
ENDBRANCH  16  17
BRANCH  16  32
HETATM   32  C   UNK N   1      20.598  16.411   8.333  0.00  0.00     0.009 C 
HETATM   33  C   UNK N   1      19.598  17.534   8.537  0.00  0.00     0.012 C 
HETATM   34  C   UNK N   1      20.220  15.232   9.203  0.00  0.00     0.012 C 
ENDBRANCH  16  32
ENDBRANCH  13  16
ENDBRANCH  11  12
BRANCH  11  35
HETATM   35  C   UNK N   1      24.413  12.587   6.660  0.00  0.00     0.013 C 
HETATM   36  C   UNK N   1      25.200  13.360   7.709  0.00  0.00     0.012 C 
BRANCH  35  37
HETATM   37  C   UNK N   1      23.569  11.559   7.414  0.00  0.00     0.002 C 
HETATM   38  C   UNK N   1      23.646  10.163   6.830  0.00  0.00     0.005 C 
ENDBRANCH  35  37
ENDBRANCH  11  35
ENDBRANCH   8  11
ENDBRANCH   6   7
BRANCH   6  39
HETATM   39  C   UNK N   1      26.709  11.827   3.362  0.00  0.00     0.146 C 
HETATM   40  C   UNK N   1      26.056  10.581   3.938  0.00  0.00     0.042 C 
BRANCH  39  41
HETATM   41  O   UNK N   1      26.764  11.692   1.974  0.00  0.00    -0.393 OA
HETATM   42  H   UNK N   1      26.352  12.128   1.211  0.00  0.00     0.210 HD
ENDBRANCH  39  41
ENDBRANCH   6  39
ENDBRANCH   3   6
ENDBRANCH   1   2
BRANCH   1  43
HETATM   43  C   UNK N   1      29.568  14.871   4.958  0.00  0.00     0.241 C 
HETATM   44  O   UNK N   1      30.135  13.852   5.323  0.00  0.00    -0.271 OA
HETATM   45  N   UNK N   1      30.275  15.985   4.639  0.00  0.00    -0.346 N 
HETATM   46  H   UNK N   1      29.763  16.746   4.281  0.00  0.00     0.163 HD
BRANCH  45  47
HETATM   47  C   UNK N   1      31.707  16.167   4.771  0.00  0.00     0.180 C 
BRANCH  47  48
HETATM   48  C   UNK N   1      32.231  16.897   6.027  0.00  0.00     0.013 C 
HETATM   49  C   UNK N   1      33.748  16.964   6.082  0.00  0.00     0.012 C 
BRANCH  48  50
HETATM   50  C   UNK N   1      31.753  16.194   7.285  0.00  0.00     0.002 C 
HETATM   51  C   UNK N   1      30.885  17.114   8.115  0.00  0.00     0.005 C 
ENDBRANCH  48  50
ENDBRANCH  47  48
BRANCH  47  52
HETATM   52  C   UNK N   1      32.395  16.347   3.436  0.00  0.00     0.241 C 
HETATM   53  O   UNK N   1      32.505  17.479   2.994  0.00  0.00    -0.271 OA
HETATM   54  N   UNK N   1      32.926  15.310   2.728  0.00  0.00    -0.346 N 
HETATM   55  H   UNK N   1      33.342  15.513   1.859  0.00  0.00     0.163 HD
BRANCH  54  56
HETATM   56  C   UNK N   1      32.919  13.930   3.166  0.00  0.00     0.176 C 
BRANCH  56  57
HETATM   57  C   UNK N   1      33.047  12.885   2.054  0.00  0.00     0.243 C 
HETATM   58  O   UNK N   1      34.168  12.672   1.622  0.00  0.00    -0.271 OA
HETATM   59  N   UNK N   1      31.980  12.242   1.478  0.00  0.00    -0.337 N 
HETATM   60  C   UNK N   1      30.611  12.388   1.863  0.00  0.00     0.179 C 
HETATM   61  C   UNK N   1      32.143  11.539   0.236  0.00  0.00     0.127 C 
HETATM   62  C   UNK N   1      29.846  12.320   0.549  0.00  0.00     0.037 C 
HETATM   63  C   UNK N   1      30.841  11.814  -0.502  0.00  0.00     0.022 C 
BRANCH  60  64
HETATM   64  C   UNK N   1      30.242  11.219   2.740  0.00  0.00     0.240 C 
HETATM   65  O   UNK N   1      29.443  10.390   2.335  0.00  0.00    -0.271 OA
HETATM   66  N   UNK N   1      30.766  11.119   3.991  0.00  0.00    -0.360 N 
HETATM   67  H   UNK N   1      31.432  11.783   4.282  0.00  0.00     0.162 HD
BRANCH  66  68
HETATM   68  C   UNK N   1      30.379  10.075   4.906  0.00  0.00     0.118 C 
HETATM   69  C   UNK N   1      31.564   9.669   5.755  0.00  0.00     0.026 C 
ENDBRANCH  66  68
ENDBRANCH  60  64
ENDBRANCH  56  57
BRANCH  56  70
HETATM   70  C   UNK N   1      34.079  13.706   4.141  0.00  0.00     0.036 C 
BRANCH  70  71
HETATM   71  C   UNK N   1      33.712  12.704   5.230  0.00  0.00     0.023 C 
BRANCH  71  72
HETATM   72  C   UNK N   1      33.746  13.354   6.597  0.00  0.00     0.138 C 
BRANCH  72  73
HETATM   73  N   UNK N   1      32.907  12.636   7.527  0.00  0.00    -0.227 N 
HETATM   74  C   UNK N   1      33.365  12.044   8.577  0.00  0.00     0.665 C 
HETATM   75  N   UNK N   1      34.746  12.069   8.885  0.00  0.00    -0.235 N 
HETATM   76  N   UNK N   1      32.473  11.371   9.438  0.00  0.00    -0.235 N 
HETATM   77  H   UNK N   1      35.425  12.056   8.173  0.00  0.00     0.174 HD
HETATM   78  H   UNK N   1      35.032  12.099   9.827  0.00  0.00     0.174 HD
HETATM   79  H   UNK N   1      32.715  11.072  10.344  0.00  0.00     0.174 HD
HETATM   80  H   UNK N   1      31.560  11.192   9.117  0.00  0.00     0.174 HD
ATOM     81  HN  UNK N   1      31.905  12.594   7.344  1.00  0.00     0.177 HD
ENDBRANCH  72  73
ENDBRANCH  71  72
ENDBRANCH  70  71
ENDBRANCH  56  70
ENDBRANCH  54  56
ENDBRANCH  47  52
ENDBRANCH  45  47
ENDBRANCH   1  43
BRANCH   1  82
HETATM   82  C   UNK N   1      27.522  15.833   6.146  0.00  0.00     0.034 C 
BRANCH  82  83
HETATM   83  C   UNK N   1      27.195  17.206   5.596  0.00  0.00    -0.002 C 
HETATM   84  C   UNK N   1      27.759  18.268   6.517  0.00  0.00     0.005 C 
ENDBRANCH  82  83
ENDBRANCH   1  82
TORSDOF 31
ENDMDL
