MODEL 1
REMARK VINA RESULT:      -4.0      0.000      0.000
REMARK  24 active torsions:
REMARK  status: ('A' for Active; 'I' for Inactive)
REMARK    1  A    between atoms: N_4  and  C_6 
REMARK    2  A    between atoms: N_4  and  C_9 
REMARK    3  A    between atoms: N_5  and  C_23 
REMARK    4  A    between atoms: C_6  and  C_7 
REMARK    5  A    between atoms: C_7  and  C_8 
REMARK    6  A    between atoms: C_8  and  C_10 
REMARK    7  A    between atoms: C_9  and  C_20 
REMARK    8  A    between atoms: C_10  and  C_13 
REMARK    9  A    between atoms: C_13  and  C_14 
REMARK   10  A    between atoms: C_14  and  C_15 
REMARK   11  A    between atoms: C_15  and  C_16 
REMARK   12  A    between atoms: C_16  and  C_25 
REMARK   13  A    between atoms: C_17  and  C_18 
REMARK   14  A    between atoms: C_17  and  C_19 
REMARK   15  A    between atoms: C_18  and  C_21 
REMARK   16  A    between atoms: C_19  and  C_22 
REMARK   17  A    between atoms: C_21  and  C_23 
REMARK   18  A    between atoms: C_22  and  C_24 
REMARK   19  A    between atoms: C_24  and  C_26 
REMARK   20  A    between atoms: C_25  and  C_28 
REMARK   21  A    between atoms: C_26  and  C_27 
REMARK   22  A    between atoms: C_27  and  C_29 
REMARK   23  A    between atoms: C_28  and  C_32 
REMARK   24  A    between atoms: C_29  and  C_33 
ROOT
HETATM    1  C   UNK N   1      36.608  13.042  14.153  0.00  0.00     0.000 C 
ENDROOT
BRANCH   1   2
HETATM    2  C   UNK N   1      35.692  14.010  13.430  0.00  0.00     0.002 C 
BRANCH   2   3
HETATM    3  C   UNK N   1      35.361  13.485  12.050  0.00  0.00     0.036 C 
BRANCH   3   4
HETATM    4  C   UNK N   1      36.051  14.333  10.984  0.00  0.00     0.311 C 
BRANCH   4   5
HETATM    5  N   UNK N   1      35.133  15.261  10.322  0.00  0.00     0.005 N 
HETATM    6  O   UNK N   1      33.872  14.942  10.697  0.00  0.00    -0.065 OA
HETATM    7  C   UNK N   1      35.396  16.632  10.732  0.00  0.00     0.355 C 
HETATM    8  C   UNK N   1      35.213  15.156   8.873  0.00  0.00     0.355 C 
ENDBRANCH   4   5
ENDBRANCH   3   4
ENDBRANCH   2   3
ENDBRANCH   1   2
BRANCH   1   9
HETATM    9  C   UNK N   1      36.340  13.175  15.633  0.00  0.00     0.000 C 
BRANCH   9  10
HETATM   10  C   UNK N   1      34.944  12.714  15.990  0.00  0.00     0.000 C 
BRANCH  10  11
HETATM   11  C   UNK N   1      35.095  11.357  16.636  0.00  0.00     0.000 C 
BRANCH  11  12
HETATM   12  C   UNK N   1      34.560  10.245  15.764  0.00  0.00     0.000 C 
BRANCH  12  13
HETATM   13  C   UNK N   1      33.620  10.889  14.768  0.00  0.00     0.000 C 
BRANCH  13  14
HETATM   14  C   UNK N   1      33.868  10.387  13.364  0.00  0.00    -0.000 C 
BRANCH  14  15
HETATM   15  C   UNK N   1      35.068   9.463  13.405  0.00  0.00    -0.005 C 
HETATM   16  C   UNK N   1      36.048   9.823  12.311  0.00  0.00     0.005 C 
ENDBRANCH  14  15
ENDBRANCH  13  14
ENDBRANCH  12  13
ENDBRANCH  11  12
ENDBRANCH  10  11
ENDBRANCH   9  10
ENDBRANCH   1   9
TORSDOF 24
ENDMDL
MODEL 2
REMARK VINA RESULT:      -4.0      6.271      9.960
REMARK  24 active torsions:
REMARK  status: ('A' for Active; 'I' for Inactive)
REMARK    1  A    between atoms: N_4  and  C_6 
REMARK    2  A    between atoms: N_4  and  C_9 
REMARK    3  A    between atoms: N_5  and  C_23 
REMARK    4  A    between atoms: C_6  and  C_7 
REMARK    5  A    between atoms: C_7  and  C_8 
REMARK    6  A    between atoms: C_8  and  C_10 
REMARK    7  A    between atoms: C_9  and  C_20 
REMARK    8  A    between atoms: C_10  and  C_13 
REMARK    9  A    between atoms: C_13  and  C_14 
REMARK   10  A    between atoms: C_14  and  C_15 
REMARK   11  A    between atoms: C_15  and  C_16 
REMARK   12  A    between atoms: C_16  and  C_25 
REMARK   13  A    between atoms: C_17  and  C_18 
REMARK   14  A    between atoms: C_17  and  C_19 
REMARK   15  A    between atoms: C_18  and  C_21 
REMARK   16  A    between atoms: C_19  and  C_22 
REMARK   17  A    between atoms: C_21  and  C_23 
REMARK   18  A    between atoms: C_22  and  C_24 
REMARK   19  A    between atoms: C_24  and  C_26 
REMARK   20  A    between atoms: C_25  and  C_28 
REMARK   21  A    between atoms: C_26  and  C_27 
REMARK   22  A    between atoms: C_27  and  C_29 
REMARK   23  A    between atoms: C_28  and  C_32 
REMARK   24  A    between atoms: C_29  and  C_33 
ROOT
HETATM    1  C   UNK N   1      31.603  17.239   8.577  0.00  0.00     0.000 C 
ENDROOT
BRANCH   1   2
HETATM    2  C   UNK N   1      32.790  17.682   7.742  0.00  0.00     0.002 C 
BRANCH   2   3
HETATM    3  C   UNK N   1      34.047  17.687   8.584  0.00  0.00     0.036 C 
BRANCH   3   4
HETATM    4  C   UNK N   1      34.628  16.278   8.673  0.00  0.00     0.311 C 
BRANCH   4   5
HETATM    5  N   UNK N   1      35.053  15.929  10.029  0.00  0.00     0.005 N 
HETATM    6  O   UNK N   1      35.210  17.078  10.727  0.00  0.00    -0.065 OA
HETATM    7  C   UNK N   1      34.043  15.125  10.700  0.00  0.00     0.355 C 
HETATM    8  C   UNK N   1      36.325  15.223  10.030  0.00  0.00     0.355 C 
ENDBRANCH   4   5
ENDBRANCH   3   4
ENDBRANCH   2   3
ENDBRANCH   1   2
BRANCH   1   9
HETATM    9  C   UNK N   1      30.745  18.455   8.834  0.00  0.00     0.000 C 
BRANCH   9  10
HETATM   10  C   UNK N   1      29.440  18.086   9.505  0.00  0.00     0.000 C 
BRANCH  10  11
HETATM   11  C   UNK N   1      28.339  18.623   8.622  0.00  0.00     0.000 C 
BRANCH  11  12
HETATM   12  C   UNK N   1      28.177  17.818   7.353  0.00  0.00     0.000 C 
BRANCH  12  13
HETATM   13  C   UNK N   1      27.957  18.813   6.234  0.00  0.00     0.000 C 
BRANCH  13  14
HETATM   14  C   UNK N   1      27.635  20.190   6.767  0.00  0.00    -0.000 C 
BRANCH  14  15
HETATM   15  C   UNK N   1      27.262  21.068   5.590  0.00  0.00    -0.005 C 
HETATM   16  C   UNK N   1      26.397  20.303   4.614  0.00  0.00     0.005 C 
ENDBRANCH  14  15
ENDBRANCH  13  14
ENDBRANCH  12  13
ENDBRANCH  11  12
ENDBRANCH  10  11
ENDBRANCH   9  10
ENDBRANCH   1   9
TORSDOF 24
ENDMDL
MODEL 3
REMARK VINA RESULT:      -3.9      1.042      2.739
REMARK  24 active torsions:
REMARK  status: ('A' for Active; 'I' for Inactive)
REMARK    1  A    between atoms: N_4  and  C_6 
REMARK    2  A    between atoms: N_4  and  C_9 
REMARK    3  A    between atoms: N_5  and  C_23 
REMARK    4  A    between atoms: C_6  and  C_7 
REMARK    5  A    between atoms: C_7  and  C_8 
REMARK    6  A    between atoms: C_8  and  C_10 
REMARK    7  A    between atoms: C_9  and  C_20 
REMARK    8  A    between atoms: C_10  and  C_13 
REMARK    9  A    between atoms: C_13  and  C_14 
REMARK   10  A    between atoms: C_14  and  C_15 
REMARK   11  A    between atoms: C_15  and  C_16 
REMARK   12  A    between atoms: C_16  and  C_25 
REMARK   13  A    between atoms: C_17  and  C_18 
REMARK   14  A    between atoms: C_17  and  C_19 
REMARK   15  A    between atoms: C_18  and  C_21 
REMARK   16  A    between atoms: C_19  and  C_22 
REMARK   17  A    between atoms: C_21  and  C_23 
REMARK   18  A    between atoms: C_22  and  C_24 
REMARK   19  A    between atoms: C_24  and  C_26 
REMARK   20  A    between atoms: C_25  and  C_28 
REMARK   21  A    between atoms: C_26  and  C_27 
REMARK   22  A    between atoms: C_27  and  C_29 
REMARK   23  A    between atoms: C_28  and  C_32 
REMARK   24  A    between atoms: C_29  and  C_33 
ROOT
HETATM    1  C   UNK N   1      37.578  11.702  14.110  0.00  0.00     0.000 C 
ENDROOT
BRANCH   1   2
HETATM    2  C   UNK N   1      37.195  12.362  12.800  0.00  0.00     0.002 C 
BRANCH   2   3
HETATM    3  C   UNK N   1      36.345  13.587  13.062  0.00  0.00     0.036 C 
BRANCH   3   4
HETATM    4  C   UNK N   1      35.062  13.524  12.236  0.00  0.00     0.311 C 
BRANCH   4   5
HETATM    5  N   UNK N   1      34.994  14.574  11.219  0.00  0.00     0.005 N 
HETATM    6  O   UNK N   1      33.717  15.020  11.162  0.00  0.00    -0.065 OA
HETATM    7  C   UNK N   1      35.851  15.695  11.573  0.00  0.00     0.355 C 
HETATM    8  C   UNK N   1      35.356  14.073   9.902  0.00  0.00     0.355 C 
ENDBRANCH   4   5
ENDBRANCH   3   4
ENDBRANCH   2   3
ENDBRANCH   1   2
BRANCH   1   9
HETATM    9  C   UNK N   1      37.514  10.207  13.905  0.00  0.00     0.000 C 
BRANCH   9  10
HETATM   10  C   UNK N   1      36.421   9.824  12.933  0.00  0.00     0.000 C 
BRANCH  10  11
HETATM   11  C   UNK N   1      35.243   9.380  13.769  0.00  0.00     0.000 C 
BRANCH  11  12
HETATM   12  C   UNK N   1      34.033  10.263  13.568  0.00  0.00     0.000 C 
BRANCH  12  13
HETATM   13  C   UNK N   1      33.891  11.096  14.824  0.00  0.00     0.000 C 
BRANCH  13  14
HETATM   14  C   UNK N   1      34.494  10.403  16.024  0.00  0.00    -0.000 C 
BRANCH  14  15
HETATM   15  C   UNK N   1      35.165  11.457  16.881  0.00  0.00    -0.005 C 
HETATM   16  C   UNK N   1      34.821  12.842  16.379  0.00  0.00     0.005 C 
ENDBRANCH  14  15
ENDBRANCH  13  14
ENDBRANCH  12  13
ENDBRANCH  11  12
ENDBRANCH  10  11
ENDBRANCH   9  10
ENDBRANCH   1   9
TORSDOF 24
ENDMDL
MODEL 4
REMARK VINA RESULT:      -3.9      7.577     10.928
REMARK  24 active torsions:
REMARK  status: ('A' for Active; 'I' for Inactive)
REMARK    1  A    between atoms: N_4  and  C_6 
REMARK    2  A    between atoms: N_4  and  C_9 
REMARK    3  A    between atoms: N_5  and  C_23 
REMARK    4  A    between atoms: C_6  and  C_7 
REMARK    5  A    between atoms: C_7  and  C_8 
REMARK    6  A    between atoms: C_8  and  C_10 
REMARK    7  A    between atoms: C_9  and  C_20 
REMARK    8  A    between atoms: C_10  and  C_13 
REMARK    9  A    between atoms: C_13  and  C_14 
REMARK   10  A    between atoms: C_14  and  C_15 
REMARK   11  A    between atoms: C_15  and  C_16 
REMARK   12  A    between atoms: C_16  and  C_25 
REMARK   13  A    between atoms: C_17  and  C_18 
REMARK   14  A    between atoms: C_17  and  C_19 
REMARK   15  A    between atoms: C_18  and  C_21 
REMARK   16  A    between atoms: C_19  and  C_22 
REMARK   17  A    between atoms: C_21  and  C_23 
REMARK   18  A    between atoms: C_22  and  C_24 
REMARK   19  A    between atoms: C_24  and  C_26 
REMARK   20  A    between atoms: C_25  and  C_28 
REMARK   21  A    between atoms: C_26  and  C_27 
REMARK   22  A    between atoms: C_27  and  C_29 
REMARK   23  A    between atoms: C_28  and  C_32 
REMARK   24  A    between atoms: C_29  and  C_33 
ROOT
HETATM    1  C   UNK N   1      30.609  18.075   8.686  0.00  0.00     0.000 C 
ENDROOT
BRANCH   1   2
HETATM    2  C   UNK N   1      31.198  16.691   8.877  0.00  0.00     0.002 C 
BRANCH   2   3
HETATM    3  C   UNK N   1      31.641  16.124   7.546  0.00  0.00     0.036 C 
BRANCH   3   4
HETATM    4  C   UNK N   1      33.156  16.247   7.398  0.00  0.00     0.311 C 
BRANCH   4   5
HETATM    5  N   UNK N   1      33.551  16.824   6.113  0.00  0.00     0.005 N 
HETATM    6  O   UNK N   1      34.369  17.874   6.361  0.00  0.00    -0.065 OA
HETATM    7  C   UNK N   1      34.285  15.856   5.313  0.00  0.00     0.355 C 
HETATM    8  C   UNK N   1      32.403  17.313   5.366  0.00  0.00     0.355 C 
ENDBRANCH   4   5
ENDBRANCH   3   4
ENDBRANCH   2   3
ENDBRANCH   1   2
BRANCH   1   9
HETATM    9  C   UNK N   1      29.333  18.145   9.491  0.00  0.00     0.000 C 
BRANCH   9  10
HETATM   10  C   UNK N   1      28.174  18.645   8.657  0.00  0.00     0.000 C 
BRANCH  10  11
HETATM   11  C   UNK N   1      28.248  17.908   7.340  0.00  0.00     0.000 C 
BRANCH  11  12
HETATM   12  C   UNK N   1      27.713  18.733   6.191  0.00  0.00     0.000 C 
BRANCH  12  13
HETATM   13  C   UNK N   1      27.676  20.168   6.669  0.00  0.00     0.000 C 
BRANCH  13  14
HETATM   14  C   UNK N   1      27.048  21.082   5.641  0.00  0.00    -0.000 C 
BRANCH  14  15
HETATM   15  C   UNK N   1      26.097  20.253   4.801  0.00  0.00    -0.005 C 
HETATM   16  C   UNK N   1      26.371  20.466   3.329  0.00  0.00     0.005 C 
ENDBRANCH  14  15
ENDBRANCH  13  14
ENDBRANCH  12  13
ENDBRANCH  11  12
ENDBRANCH  10  11
ENDBRANCH   9  10
ENDBRANCH   1   9
TORSDOF 24
ENDMDL
MODEL 5
REMARK VINA RESULT:      -3.9     18.763     23.131
REMARK  24 active torsions:
REMARK  status: ('A' for Active; 'I' for Inactive)
REMARK    1  A    between atoms: N_4  and  C_6 
REMARK    2  A    between atoms: N_4  and  C_9 
REMARK    3  A    between atoms: N_5  and  C_23 
REMARK    4  A    between atoms: C_6  and  C_7 
REMARK    5  A    between atoms: C_7  and  C_8 
REMARK    6  A    between atoms: C_8  and  C_10 
REMARK    7  A    between atoms: C_9  and  C_20 
REMARK    8  A    between atoms: C_10  and  C_13 
REMARK    9  A    between atoms: C_13  and  C_14 
REMARK   10  A    between atoms: C_14  and  C_15 
REMARK   11  A    between atoms: C_15  and  C_16 
REMARK   12  A    between atoms: C_16  and  C_25 
REMARK   13  A    between atoms: C_17  and  C_18 
REMARK   14  A    between atoms: C_17  and  C_19 
REMARK   15  A    between atoms: C_18  and  C_21 
REMARK   16  A    between atoms: C_19  and  C_22 
REMARK   17  A    between atoms: C_21  and  C_23 
REMARK   18  A    between atoms: C_22  and  C_24 
REMARK   19  A    between atoms: C_24  and  C_26 
REMARK   20  A    between atoms: C_25  and  C_28 
REMARK   21  A    between atoms: C_26  and  C_27 
REMARK   22  A    between atoms: C_27  and  C_29 
REMARK   23  A    between atoms: C_28  and  C_32 
REMARK   24  A    between atoms: C_29  and  C_33 
ROOT
HETATM    1  C   UNK N   1      28.252  25.291  -3.869  0.00  0.00     0.000 C 
ENDROOT
BRANCH   1   2
HETATM    2  C   UNK N   1      29.658  25.346  -4.435  0.00  0.00     0.002 C 
BRANCH   2   3
HETATM    3  C   UNK N   1      30.168  23.947  -4.702  0.00  0.00     0.036 C 
BRANCH   3   4
HETATM    4  C   UNK N   1      31.361  23.639  -3.800  0.00  0.00     0.311 C 
BRANCH   4   5
HETATM    5  N   UNK N   1      31.159  22.438  -2.989  0.00  0.00     0.005 N 
HETATM    6  O   UNK N   1      30.807  22.830  -1.742  0.00  0.00    -0.065 OA
HETATM    7  C   UNK N   1      30.083  21.622  -3.529  0.00  0.00     0.355 C 
HETATM    8  C   UNK N   1      32.375  21.646  -2.887  0.00  0.00     0.355 C 
ENDBRANCH   4   5
ENDBRANCH   3   4
ENDBRANCH   2   3
ENDBRANCH   1   2
BRANCH   1   9
HETATM    9  C   UNK N   1      27.544  24.122  -4.510  0.00  0.00     0.000 C 
BRANCH   9  10
HETATM   10  C   UNK N   1      26.104  24.452  -4.836  0.00  0.00     0.000 C 
BRANCH  10  11
HETATM   11  C   UNK N   1      25.942  25.934  -4.597  0.00  0.00     0.000 C 
BRANCH  11  12
HETATM   12  C   UNK N   1      24.986  26.572  -5.579  0.00  0.00     0.000 C 
BRANCH  12  13
HETATM   13  C   UNK N   1      25.813  27.003  -6.771  0.00  0.00     0.000 C 
BRANCH  13  14
HETATM   14  C   UNK N   1      27.002  27.837  -6.352  0.00  0.00    -0.000 C 
BRANCH  14  15
HETATM   15  C   UNK N   1      28.146  27.520  -7.294  0.00  0.00    -0.005 C 
HETATM   16  C   UNK N   1      28.065  26.083  -7.758  0.00  0.00     0.005 C 
ENDBRANCH  14  15
ENDBRANCH  13  14
ENDBRANCH  12  13
ENDBRANCH  11  12
ENDBRANCH  10  11
ENDBRANCH   9  10
ENDBRANCH   1   9
TORSDOF 24
ENDMDL
MODEL 6
REMARK VINA RESULT:      -3.9     19.412     23.153
REMARK  24 active torsions:
REMARK  status: ('A' for Active; 'I' for Inactive)
REMARK    1  A    between atoms: N_4  and  C_6 
REMARK    2  A    between atoms: N_4  and  C_9 
REMARK    3  A    between atoms: N_5  and  C_23 
REMARK    4  A    between atoms: C_6  and  C_7 
REMARK    5  A    between atoms: C_7  and  C_8 
REMARK    6  A    between atoms: C_8  and  C_10 
REMARK    7  A    between atoms: C_9  and  C_20 
REMARK    8  A    between atoms: C_10  and  C_13 
REMARK    9  A    between atoms: C_13  and  C_14 
REMARK   10  A    between atoms: C_14  and  C_15 
REMARK   11  A    between atoms: C_15  and  C_16 
REMARK   12  A    between atoms: C_16  and  C_25 
REMARK   13  A    between atoms: C_17  and  C_18 
REMARK   14  A    between atoms: C_17  and  C_19 
REMARK   15  A    between atoms: C_18  and  C_21 
REMARK   16  A    between atoms: C_19  and  C_22 
REMARK   17  A    between atoms: C_21  and  C_23 
REMARK   18  A    between atoms: C_22  and  C_24 
REMARK   19  A    between atoms: C_24  and  C_26 
REMARK   20  A    between atoms: C_25  and  C_28 
REMARK   21  A    between atoms: C_26  and  C_27 
REMARK   22  A    between atoms: C_27  and  C_29 
REMARK   23  A    between atoms: C_28  and  C_32 
REMARK   24  A    between atoms: C_29  and  C_33 
ROOT
HETATM    1  C   UNK N   1      27.827  24.355  -3.817  0.00  0.00     0.000 C 
ENDROOT
BRANCH   1   2
HETATM    2  C   UNK N   1      27.851  23.684  -2.457  0.00  0.00     0.002 C 
BRANCH   2   3
HETATM    3  C   UNK N   1      29.180  22.996  -2.237  0.00  0.00     0.036 C 
BRANCH   3   4
HETATM    4  C   UNK N   1      29.791  22.588  -3.576  0.00  0.00     0.311 C 
BRANCH   4   5
HETATM    5  N   UNK N   1      31.188  22.168  -3.453  0.00  0.00     0.005 N 
HETATM    6  O   UNK N   1      31.511  22.170  -2.138  0.00  0.00    -0.065 OA
HETATM    7  C   UNK N   1      31.370  20.819  -3.963  0.00  0.00     0.355 C 
HETATM    8  C   UNK N   1      32.087  23.081  -4.140  0.00  0.00     0.355 C 
ENDBRANCH   4   5
ENDBRANCH   3   4
ENDBRANCH   2   3
ENDBRANCH   1   2
BRANCH   1   9
HETATM    9  C   UNK N   1      26.417  24.832  -4.068  0.00  0.00     0.000 C 
BRANCH   9  10
HETATM   10  C   UNK N   1      26.137  24.992  -5.546  0.00  0.00     0.000 C 
BRANCH  10  11
HETATM   11  C   UNK N   1      25.159  26.136  -5.675  0.00  0.00     0.000 C 
BRANCH  11  12
HETATM   12  C   UNK N   1      25.627  27.374  -4.946  0.00  0.00     0.000 C 
BRANCH  12  13
HETATM   13  C   UNK N   1      26.656  28.037  -5.835  0.00  0.00     0.000 C 
BRANCH  13  14
HETATM   14  C   UNK N   1      27.227  29.282  -5.196  0.00  0.00    -0.000 C 
BRANCH  14  15
HETATM   15  C   UNK N   1      26.406  29.587  -3.959  0.00  0.00    -0.005 C 
HETATM   16  C   UNK N   1      26.485  31.060  -3.624  0.00  0.00     0.005 C 
ENDBRANCH  14  15
ENDBRANCH  13  14
ENDBRANCH  12  13
ENDBRANCH  11  12
ENDBRANCH  10  11
ENDBRANCH   9  10
ENDBRANCH   1   9
TORSDOF 24
ENDMDL
MODEL 7
REMARK VINA RESULT:      -3.9      1.298      2.985
REMARK  24 active torsions:
REMARK  status: ('A' for Active; 'I' for Inactive)
REMARK    1  A    between atoms: N_4  and  C_6 
REMARK    2  A    between atoms: N_4  and  C_9 
REMARK    3  A    between atoms: N_5  and  C_23 
REMARK    4  A    between atoms: C_6  and  C_7 
REMARK    5  A    between atoms: C_7  and  C_8 
REMARK    6  A    between atoms: C_8  and  C_10 
REMARK    7  A    between atoms: C_9  and  C_20 
REMARK    8  A    between atoms: C_10  and  C_13 
REMARK    9  A    between atoms: C_13  and  C_14 
REMARK   10  A    between atoms: C_14  and  C_15 
REMARK   11  A    between atoms: C_15  and  C_16 
REMARK   12  A    between atoms: C_16  and  C_25 
REMARK   13  A    between atoms: C_17  and  C_18 
REMARK   14  A    between atoms: C_17  and  C_19 
REMARK   15  A    between atoms: C_18  and  C_21 
REMARK   16  A    between atoms: C_19  and  C_22 
REMARK   17  A    between atoms: C_21  and  C_23 
REMARK   18  A    between atoms: C_22  and  C_24 
REMARK   19  A    between atoms: C_24  and  C_26 
REMARK   20  A    between atoms: C_25  and  C_28 
REMARK   21  A    between atoms: C_26  and  C_27 
REMARK   22  A    between atoms: C_27  and  C_29 
REMARK   23  A    between atoms: C_28  and  C_32 
REMARK   24  A    between atoms: C_29  and  C_33 
ROOT
HETATM    1  C   UNK N   1      36.072  11.675  12.755  0.00  0.00     0.000 C 
ENDROOT
BRANCH   1   2
HETATM    2  C   UNK N   1      36.375  13.010  12.102  0.00  0.00     0.002 C 
BRANCH   2   3
HETATM    3  C   UNK N   1      35.230  13.424  11.204  0.00  0.00     0.036 C 
BRANCH   3   4
HETATM    4  C   UNK N   1      34.968  14.922  11.341  0.00  0.00     0.311 C 
BRANCH   4   5
HETATM    5  N   UNK N   1      35.530  15.696  10.233  0.00  0.00     0.005 N 
HETATM    6  O   UNK N   1      36.680  16.267  10.663  0.00  0.00    -0.065 OA
HETATM    7  C   UNK N   1      35.846  14.833   9.105  0.00  0.00     0.355 C 
HETATM    8  C   UNK N   1      34.631  16.757   9.806  0.00  0.00     0.355 C 
ENDBRANCH   4   5
ENDBRANCH   3   4
ENDBRANCH   2   3
ENDBRANCH   1   2
BRANCH   1   9
HETATM    9  C   UNK N   1      34.608  11.380  12.535  0.00  0.00     0.000 C 
BRANCH   9  10
HETATM   10  C   UNK N   1      34.132  10.240  13.409  0.00  0.00     0.000 C 
BRANCH  10  11
HETATM   11  C   UNK N   1      33.772  10.848  14.744  0.00  0.00     0.000 C 
BRANCH  11  12
HETATM   12  C   UNK N   1      34.541  10.221  15.885  0.00  0.00     0.000 C 
BRANCH  12  13
HETATM   13  C   UNK N   1      35.155  11.360  16.671  0.00  0.00     0.000 C 
BRANCH  13  14
HETATM   14  C   UNK N   1      34.799  12.703  16.076  0.00  0.00    -0.000 C 
BRANCH  14  15
HETATM   15  C   UNK N   1      35.779  13.725  16.617  0.00  0.00    -0.005 C 
HETATM   16  C   UNK N   1      36.796  14.092  15.560  0.00  0.00     0.005 C 
ENDBRANCH  14  15
ENDBRANCH  13  14
ENDBRANCH  12  13
ENDBRANCH  11  12
ENDBRANCH  10  11
ENDBRANCH   9  10
ENDBRANCH   1   9
TORSDOF 24
ENDMDL
MODEL 8
REMARK VINA RESULT:      -3.9     19.585     23.318
REMARK  24 active torsions:
REMARK  status: ('A' for Active; 'I' for Inactive)
REMARK    1  A    between atoms: N_4  and  C_6 
REMARK    2  A    between atoms: N_4  and  C_9 
REMARK    3  A    between atoms: N_5  and  C_23 
REMARK    4  A    between atoms: C_6  and  C_7 
REMARK    5  A    between atoms: C_7  and  C_8 
REMARK    6  A    between atoms: C_8  and  C_10 
REMARK    7  A    between atoms: C_9  and  C_20 
REMARK    8  A    between atoms: C_10  and  C_13 
REMARK    9  A    between atoms: C_13  and  C_14 
REMARK   10  A    between atoms: C_14  and  C_15 
REMARK   11  A    between atoms: C_15  and  C_16 
REMARK   12  A    between atoms: C_16  and  C_25 
REMARK   13  A    between atoms: C_17  and  C_18 
REMARK   14  A    between atoms: C_17  and  C_19 
REMARK   15  A    between atoms: C_18  and  C_21 
REMARK   16  A    between atoms: C_19  and  C_22 
REMARK   17  A    between atoms: C_21  and  C_23 
REMARK   18  A    between atoms: C_22  and  C_24 
REMARK   19  A    between atoms: C_24  and  C_26 
REMARK   20  A    between atoms: C_25  and  C_28 
REMARK   21  A    between atoms: C_26  and  C_27 
REMARK   22  A    between atoms: C_27  and  C_29 
REMARK   23  A    between atoms: C_28  and  C_32 
REMARK   24  A    between atoms: C_29  and  C_33 
ROOT
HETATM    1  C   UNK N   1      28.795  26.803  -4.960  0.00  0.00     0.000 C 
ENDROOT
BRANCH   1   2
HETATM    2  C   UNK N   1      28.557  25.586  -4.087  0.00  0.00     0.002 C 
BRANCH   2   3
HETATM    3  C   UNK N   1      29.862  24.865  -3.829  0.00  0.00     0.036 C 
BRANCH   3   4
HETATM    4  C   UNK N   1      29.596  23.511  -3.175  0.00  0.00     0.311 C 
BRANCH   4   5
HETATM    5  N   UNK N   1      30.766  22.632  -3.204  0.00  0.00     0.005 N 
HETATM    6  O   UNK N   1      31.238  22.522  -1.940  0.00  0.00    -0.065 OA
HETATM    7  C   UNK N   1      30.405  21.303  -3.671  0.00  0.00     0.355 C 
HETATM    8  C   UNK N   1      31.827  23.176  -4.037  0.00  0.00     0.355 C 
ENDBRANCH   4   5
ENDBRANCH   3   4
ENDBRANCH   2   3
ENDBRANCH   1   2
BRANCH   1   9
HETATM    9  C   UNK N   1      28.032  27.957  -4.355  0.00  0.00     0.000 C 
BRANCH   9  10
HETATM   10  C   UNK N   1      26.908  28.417  -5.257  0.00  0.00     0.000 C 
BRANCH  10  11
HETATM   11  C   UNK N   1      25.627  27.913  -4.633  0.00  0.00     0.000 C 
BRANCH  11  12
HETATM   12  C   UNK N   1      24.731  27.228  -5.639  0.00  0.00     0.000 C 
BRANCH  12  13
HETATM   13  C   UNK N   1      25.261  25.820  -5.805  0.00  0.00     0.000 C 
BRANCH  13  14
HETATM   14  C   UNK N   1      25.796  25.586  -7.199  0.00  0.00    -0.000 C 
BRANCH  14  15
HETATM   15  C   UNK N   1      26.772  24.430  -7.135  0.00  0.00    -0.005 C 
HETATM   16  C   UNK N   1      26.333  23.426  -6.093  0.00  0.00     0.005 C 
ENDBRANCH  14  15
ENDBRANCH  13  14
ENDBRANCH  12  13
ENDBRANCH  11  12
ENDBRANCH  10  11
ENDBRANCH   9  10
ENDBRANCH   1   9
TORSDOF 24
ENDMDL
MODEL 9
REMARK VINA RESULT:      -3.8      4.631      9.186
REMARK  24 active torsions:
REMARK  status: ('A' for Active; 'I' for Inactive)
REMARK    1  A    between atoms: N_4  and  C_6 
REMARK    2  A    between atoms: N_4  and  C_9 
REMARK    3  A    between atoms: N_5  and  C_23 
REMARK    4  A    between atoms: C_6  and  C_7 
REMARK    5  A    between atoms: C_7  and  C_8 
REMARK    6  A    between atoms: C_8  and  C_10 
REMARK    7  A    between atoms: C_9  and  C_20 
REMARK    8  A    between atoms: C_10  and  C_13 
REMARK    9  A    between atoms: C_13  and  C_14 
REMARK   10  A    between atoms: C_14  and  C_15 
REMARK   11  A    between atoms: C_15  and  C_16 
REMARK   12  A    between atoms: C_16  and  C_25 
REMARK   13  A    between atoms: C_17  and  C_18 
REMARK   14  A    between atoms: C_17  and  C_19 
REMARK   15  A    between atoms: C_18  and  C_21 
REMARK   16  A    between atoms: C_19  and  C_22 
REMARK   17  A    between atoms: C_21  and  C_23 
REMARK   18  A    between atoms: C_22  and  C_24 
REMARK   19  A    between atoms: C_24  and  C_26 
REMARK   20  A    between atoms: C_25  and  C_28 
REMARK   21  A    between atoms: C_26  and  C_27 
REMARK   22  A    between atoms: C_27  and  C_29 
REMARK   23  A    between atoms: C_28  and  C_32 
REMARK   24  A    between atoms: C_29  and  C_33 
ROOT
HETATM    1  C   UNK N   1      34.209  16.316   6.299  0.00  0.00     0.000 C 
ENDROOT
BRANCH   1   2
HETATM    2  C   UNK N   1      33.911  17.695   6.857  0.00  0.00     0.002 C 
BRANCH   2   3
HETATM    3  C   UNK N   1      34.352  17.780   8.302  0.00  0.00     0.036 C 
BRANCH   3   4
HETATM    4  C   UNK N   1      33.948  16.512   9.052  0.00  0.00     0.311 C 
BRANCH   4   5
HETATM    5  N   UNK N   1      34.990  16.043   9.967  0.00  0.00     0.005 N 
HETATM    6  O   UNK N   1      35.656  17.125  10.433  0.00  0.00    -0.065 OA
HETATM    7  C   UNK N   1      34.407  15.345  11.102  0.00  0.00     0.355 C 
HETATM    8  C   UNK N   1      35.947  15.178   9.295  0.00  0.00     0.355 C 
ENDBRANCH   4   5
ENDBRANCH   3   4
ENDBRANCH   2   3
ENDBRANCH   1   2
BRANCH   1   9
HETATM    9  C   UNK N   1      33.120  15.979   5.309  0.00  0.00     0.000 C 
BRANCH   9  10
HETATM   10  C   UNK N   1      32.902  17.099   4.316  0.00  0.00     0.000 C 
BRANCH  10  11
HETATM   11  C   UNK N   1      31.448  17.034   3.911  0.00  0.00     0.000 C 
BRANCH  11  12
HETATM   12  C   UNK N   1      30.547  17.747   4.894  0.00  0.00     0.000 C 
BRANCH  12  13
HETATM   13  C   UNK N   1      29.538  16.728   5.376  0.00  0.00     0.000 C 
BRANCH  13  14
HETATM   14  C   UNK N   1      29.182  16.940   6.829  0.00  0.00    -0.000 C 
BRANCH  14  15
HETATM   15  C   UNK N   1      30.473  16.982   7.622  0.00  0.00    -0.005 C 
HETATM   16  C   UNK N   1      30.411  18.067   8.673  0.00  0.00     0.005 C 
ENDBRANCH  14  15
ENDBRANCH  13  14
ENDBRANCH  12  13
ENDBRANCH  11  12
ENDBRANCH  10  11
ENDBRANCH   9  10
ENDBRANCH   1   9
TORSDOF 24
ENDMDL
