MODEL 1
REMARK VINA RESULT:      -7.7      0.000      0.000
REMARK  5 active torsions:
REMARK  status: ('A' for Active; 'I' for Inactive)
REMARK    1  A    between atoms: C_1  and  C_3 
REMARK    2  A    between atoms: C_15  and  N_20 
REMARK    3  A    between atoms: C_22  and  C_18 
REMARK    4  A    between atoms: C_22  and  C_23 
REMARK    5  A    between atoms: C_22  and  O_27 
ROOT
HETATM    1  C   UNK N   1      32.181  17.216   6.301  0.00  0.00     0.065 A 
HETATM    2  C   UNK N   1      33.318  17.318   7.114  0.00  0.00     0.091 A 
HETATM    3  N   UNK N   1      31.936  17.553   9.057  0.00  0.00    -0.323 N 
HETATM    4  C   UNK N   1      33.180  17.478   8.492  0.00  0.00     0.246 A 
HETATM    5  O   UNK N   1      34.172  17.567   9.195  0.00  0.00    -0.268 OA
HETATM    6  C   UNK N   1      30.905  17.278   6.904  0.00  0.00     0.008 A 
HETATM    7  C   UNK N   1      30.810  17.466   8.300  0.00  0.00     0.046 A 
HETATM    8  C   UNK N   1      29.726  17.190   6.147  0.00  0.00     0.044 A 
HETATM    9  C   UNK N   1      29.561  17.598   8.903  0.00  0.00     0.033 A 
HETATM   10  C   UNK N   1      28.403  17.563   8.125  0.00  0.00     0.031 A 
HETATM   11  C   UNK N   1      28.464  17.353   6.744  0.00  0.00     0.032 A 
HETATM   12  H   UNK N   1      31.855  17.673  10.030  0.00  0.00     0.169 HD
ENDROOT
BRANCH  11  13
HETATM   13  N   UNK N   1      27.267  17.305   5.950  0.00  0.00    -0.369 N 
HETATM   14  C   UNK N   1      26.287  16.246   6.093  0.00  0.00     0.081 C 
HETATM   15  C   UNK N   1      25.242  16.511   5.017  0.00  0.00     0.027 C 
HETATM   16  C   UNK N   1      26.872  14.869   5.823  0.00  0.00     0.032 C 
HETATM   17  C   UNK N   1      25.574  17.864   4.403  0.00  0.00     0.030 C 
HETATM   18  C   UNK N   1      27.014  18.133   4.786  0.00  0.00     0.122 C 
BRANCH  18  19
HETATM   19  C   UNK N   1      27.392  19.625   4.697  0.00  0.00     0.248 C 
BRANCH  19  20
HETATM   20  C   UNK N   1      27.088  20.581   5.853  0.00  0.00     0.414 C 
HETATM   21  F   UNK N   1      25.905  20.257   6.485  0.00  0.00    -0.168 F 
HETATM   22  F   UNK N   1      27.023  21.887   5.405  0.00  0.00    -0.168 F 
HETATM   23  F   UNK N   1      28.118  20.485   6.770  0.00  0.00    -0.168 F 
ENDBRANCH  19  20
BRANCH  19  24
HETATM   24  O   UNK N   1      28.671  19.820   4.171  0.00  0.00    -0.384 OA
HETATM   25  H   UNK N   1      29.108  19.461   3.383  0.00  0.00     0.210 HD
ENDBRANCH  19  24
ENDBRANCH  18  19
ENDBRANCH  11  13
BRANCH   1  26
HETATM   26  C   UNK N   1      32.349  17.088   4.805  0.00  0.00     0.418 C 
HETATM   27  F   UNK N   1      33.696  16.980   4.500  0.00  0.00    -0.166 F 
HETATM   28  F   UNK N   1      31.703  15.961   4.323  0.00  0.00    -0.166 F 
HETATM   29  F   UNK N   1      31.828  18.202   4.173  0.00  0.00    -0.166 F 
ENDBRANCH   1  26
TORSDOF 5
ENDMDL
MODEL 2
REMARK VINA RESULT:      -7.0      2.331      3.215
REMARK  5 active torsions:
REMARK  status: ('A' for Active; 'I' for Inactive)
REMARK    1  A    between atoms: C_1  and  C_3 
REMARK    2  A    between atoms: C_15  and  N_20 
REMARK    3  A    between atoms: C_22  and  C_18 
REMARK    4  A    between atoms: C_22  and  C_23 
REMARK    5  A    between atoms: C_22  and  O_27 
ROOT
HETATM    1  C   UNK N   1      31.953  16.646   6.273  0.00  0.00     0.065 A 
HETATM    2  C   UNK N   1      32.823  16.152   7.255  0.00  0.00     0.091 A 
HETATM    3  N   UNK N   1      31.199  16.612   8.955  0.00  0.00    -0.323 N 
HETATM    4  C   UNK N   1      32.428  16.135   8.592  0.00  0.00     0.246 A 
HETATM    5  O   UNK N   1      33.188  15.704   9.443  0.00  0.00    -0.268 OA
HETATM    6  C   UNK N   1      30.682  17.119   6.664  0.00  0.00     0.008 A 
HETATM    7  C   UNK N   1      30.332  17.105   8.032  0.00  0.00     0.046 A 
HETATM    8  C   UNK N   1      29.767  17.633   5.731  0.00  0.00     0.044 A 
HETATM    9  C   UNK N   1      29.109  17.631   8.444  0.00  0.00     0.033 A 
HETATM   10  C   UNK N   1      28.237  18.188   7.507  0.00  0.00     0.031 A 
HETATM   11  C   UNK N   1      28.544  18.192   6.143  0.00  0.00     0.032 A 
HETATM   12  H   UNK N   1      30.937  16.599   9.904  0.00  0.00     0.169 HD
ENDROOT
BRANCH  11  13
HETATM   13  N   UNK N   1      27.637  18.756   5.182  0.00  0.00    -0.369 N 
HETATM   14  C   UNK N   1      27.695  20.151   4.789  0.00  0.00     0.081 C 
HETATM   15  C   UNK N   1      26.518  20.358   3.846  0.00  0.00     0.027 C 
HETATM   16  C   UNK N   1      27.503  21.097   5.965  0.00  0.00     0.032 C 
HETATM   17  C   UNK N   1      25.922  18.984   3.576  0.00  0.00     0.030 C 
HETATM   18  C   UNK N   1      26.442  18.097   4.688  0.00  0.00     0.122 C 
BRANCH  18  19
HETATM   19  C   UNK N   1      26.371  16.596   4.346  0.00  0.00     0.248 C 
BRANCH  19  20
HETATM   20  C   UNK N   1      27.164  16.022   3.169  0.00  0.00     0.414 C 
HETATM   21  F   UNK N   1      28.314  16.746   2.928  0.00  0.00    -0.168 F 
HETATM   22  F   UNK N   1      26.393  15.997   2.023  0.00  0.00    -0.168 F 
HETATM   23  F   UNK N   1      27.519  14.724   3.485  0.00  0.00    -0.168 F 
ENDBRANCH  19  20
BRANCH  19  24
HETATM   24  O   UNK N   1      26.448  15.786   5.481  0.00  0.00    -0.384 OA
HETATM   25  H   UNK N   1      26.231  14.852   5.625  0.00  0.00     0.210 HD
ENDBRANCH  19  24
ENDBRANCH  18  19
ENDBRANCH  11  13
BRANCH   1  26
HETATM   26  C   UNK N   1      32.416  16.699   4.834  0.00  0.00     0.418 C 
HETATM   27  F   UNK N   1      33.695  16.178   4.741  0.00  0.00    -0.166 F 
HETATM   28  F   UNK N   1      31.583  15.956   4.014  0.00  0.00    -0.166 F 
HETATM   29  F   UNK N   1      32.424  18.007   4.388  0.00  0.00    -0.166 F 
ENDBRANCH   1  26
TORSDOF 5
ENDMDL
MODEL 3
REMARK VINA RESULT:      -6.9      3.101      6.839
REMARK  5 active torsions:
REMARK  status: ('A' for Active; 'I' for Inactive)
REMARK    1  A    between atoms: C_1  and  C_3 
REMARK    2  A    between atoms: C_15  and  N_20 
REMARK    3  A    between atoms: C_22  and  C_18 
REMARK    4  A    between atoms: C_22  and  C_23 
REMARK    5  A    between atoms: C_22  and  O_27 
ROOT
HETATM    1  C   UNK N   1      24.303  17.811   4.200  0.00  0.00     0.065 A 
HETATM    2  C   UNK N   1      23.229  18.601   3.767  0.00  0.00     0.091 A 
HETATM    3  N   UNK N   1      24.691  20.479   3.495  0.00  0.00    -0.323 N 
HETATM    4  C   UNK N   1      23.440  19.932   3.410  0.00  0.00     0.246 A 
HETATM    5  O   UNK N   1      22.503  20.615   3.034  0.00  0.00    -0.268 OA
HETATM    6  C   UNK N   1      25.590  18.388   4.266  0.00  0.00     0.008 A 
HETATM    7  C   UNK N   1      25.755  19.747   3.918  0.00  0.00     0.046 A 
HETATM    8  C   UNK N   1      26.706  17.655   4.699  0.00  0.00     0.044 A 
HETATM    9  C   UNK N   1      27.004  20.352   4.041  0.00  0.00     0.033 A 
HETATM   10  C   UNK N   1      28.090  19.620   4.527  0.00  0.00     0.031 A 
HETATM   11  C   UNK N   1      27.963  18.267   4.854  0.00  0.00     0.032 A 
HETATM   12  H   UNK N   1      24.823  21.422   3.246  0.00  0.00     0.169 HD
ENDROOT
BRANCH  11  13
HETATM   13  N   UNK N   1      29.087  17.516   5.341  0.00  0.00    -0.369 N 
HETATM   14  C   UNK N   1      30.279  17.303   4.542  0.00  0.00     0.081 C 
HETATM   15  C   UNK N   1      31.170  16.390   5.374  0.00  0.00     0.027 C 
HETATM   16  C   UNK N   1      29.985  16.579   3.237  0.00  0.00     0.032 C 
HETATM   17  C   UNK N   1      30.516  16.265   6.743  0.00  0.00     0.030 C 
HETATM   18  C   UNK N   1      29.080  16.701   6.541  0.00  0.00     0.122 C 
BRANCH  18  19
HETATM   19  C   UNK N   1      28.386  17.116   7.854  0.00  0.00     0.248 C 
BRANCH  19  20
HETATM   20  C   UNK N   1      28.586  18.516   8.438  0.00  0.00     0.414 C 
HETATM   21  F   UNK N   1      27.682  19.420   7.917  0.00  0.00    -0.168 F 
HETATM   22  F   UNK N   1      29.870  18.968   8.199  0.00  0.00    -0.168 F 
HETATM   23  F   UNK N   1      28.397  18.441   9.805  0.00  0.00    -0.168 F 
ENDBRANCH  19  20
BRANCH  19  24
HETATM   24  O   UNK N   1      27.052  16.708   7.903  0.00  0.00    -0.384 OA
HETATM   25  H   UNK N   1      26.570  16.013   7.428  0.00  0.00     0.210 HD
ENDBRANCH  19  24
ENDBRANCH  18  19
ENDBRANCH  11  13
BRANCH   1  26
HETATM   26  C   UNK N   1      24.048  16.384   4.627  0.00  0.00     0.418 C 
HETATM   27  F   UNK N   1      22.711  16.078   4.437  0.00  0.00    -0.166 F 
HETATM   28  F   UNK N   1      24.806  15.496   3.881  0.00  0.00    -0.166 F 
HETATM   29  F   UNK N   1      24.365  16.224   5.962  0.00  0.00    -0.166 F 
ENDBRANCH   1  26
TORSDOF 5
ENDMDL
MODEL 4
REMARK VINA RESULT:      -6.9      2.935      4.456
REMARK  5 active torsions:
REMARK  status: ('A' for Active; 'I' for Inactive)
REMARK    1  A    between atoms: C_1  and  C_3 
REMARK    2  A    between atoms: C_15  and  N_20 
REMARK    3  A    between atoms: C_22  and  C_18 
REMARK    4  A    between atoms: C_22  and  C_23 
REMARK    5  A    between atoms: C_22  and  O_27 
ROOT
HETATM    1  C   UNK N   1      31.448  16.010   4.270  0.00  0.00     0.065 A 
HETATM    2  C   UNK N   1      31.916  14.812   3.712  0.00  0.00     0.091 A 
HETATM    3  N   UNK N   1      29.677  13.968   3.590  0.00  0.00    -0.323 N 
HETATM    4  C   UNK N   1      31.017  13.803   3.370  0.00  0.00     0.246 A 
HETATM    5  O   UNK N   1      31.429  12.763   2.885  0.00  0.00    -0.268 OA
HETATM    6  C   UNK N   1      30.060  16.169   4.474  0.00  0.00     0.008 A 
HETATM    7  C   UNK N   1      29.187  15.113   4.135  0.00  0.00     0.046 A 
HETATM    8  C   UNK N   1      29.527  17.341   5.035  0.00  0.00     0.044 A 
HETATM    9  C   UNK N   1      27.822  15.225   4.393  0.00  0.00     0.033 A 
HETATM   10  C   UNK N   1      27.319  16.376   5.003  0.00  0.00     0.031 A 
HETATM   11  C   UNK N   1      28.155  17.449   5.325  0.00  0.00     0.032 A 
HETATM   12  H   UNK N   1      29.056  13.244   3.349  0.00  0.00     0.169 HD
ENDROOT
BRANCH  11  13
HETATM   13  N   UNK N   1      27.629  18.636   5.941  0.00  0.00    -0.369 N 
HETATM   14  C   UNK N   1      26.763  19.557   5.230  0.00  0.00     0.081 C 
HETATM   15  C   UNK N   1      26.518  20.711   6.193  0.00  0.00     0.027 C 
HETATM   16  C   UNK N   1      27.423  20.138   3.989  0.00  0.00     0.032 C 
HETATM   17  C   UNK N   1      27.116  20.303   7.532  0.00  0.00     0.030 C 
HETATM   18  C   UNK N   1      28.072  19.173   7.214  0.00  0.00     0.122 C 
BRANCH  18  19
HETATM   19  C   UNK N   1      28.406  18.303   8.441  0.00  0.00     0.248 C 
BRANCH  19  20
HETATM   20  C   UNK N   1      29.790  18.363   9.093  0.00  0.00     0.414 C 
HETATM   21  F   UNK N   1      30.382  19.597   8.916  0.00  0.00    -0.168 F 
HETATM   22  F   UNK N   1      30.617  17.383   8.580  0.00  0.00    -0.168 F 
HETATM   23  F   UNK N   1      29.634  18.139  10.448  0.00  0.00    -0.168 F 
ENDBRANCH  19  20
BRANCH  19  24
HETATM   24  O   UNK N   1      27.376  18.294   9.384  0.00  0.00    -0.384 OA
HETATM   25  H   UNK N   1      26.603  17.719   9.493  0.00  0.00     0.210 HD
ENDBRANCH  19  24
ENDBRANCH  18  19
ENDBRANCH  11  13
BRANCH   1  26
HETATM   26  C   UNK N   1      32.441  17.075   4.677  0.00  0.00     0.418 C 
HETATM   27  F   UNK N   1      32.223  18.219   3.928  0.00  0.00    -0.166 F 
HETATM   28  F   UNK N   1      32.303  17.400   6.017  0.00  0.00    -0.166 F 
HETATM   29  F   UNK N   1      33.730  16.628   4.460  0.00  0.00    -0.166 F 
ENDBRANCH   1  26
TORSDOF 5
ENDMDL
MODEL 5
REMARK VINA RESULT:      -6.8      2.282      3.300
REMARK  5 active torsions:
REMARK  status: ('A' for Active; 'I' for Inactive)
REMARK    1  A    between atoms: C_1  and  C_3 
REMARK    2  A    between atoms: C_15  and  N_20 
REMARK    3  A    between atoms: C_22  and  C_18 
REMARK    4  A    between atoms: C_22  and  C_23 
REMARK    5  A    between atoms: C_22  and  O_27 
ROOT
HETATM    1  C   UNK N   1      30.335  17.881   8.203  0.00  0.00     0.065 A 
HETATM    2  C   UNK N   1      31.646  17.982   8.689  0.00  0.00     0.091 A 
HETATM    3  N   UNK N   1      32.510  17.299   6.562  0.00  0.00    -0.323 N 
HETATM    4  C   UNK N   1      32.724  17.696   7.854  0.00  0.00     0.246 A 
HETATM    5  O   UNK N   1      33.863  17.785   8.280  0.00  0.00    -0.268 OA
HETATM    6  C   UNK N   1      30.134  17.487   6.862  0.00  0.00     0.008 A 
HETATM    7  C   UNK N   1      31.254  17.182   6.058  0.00  0.00     0.046 A 
HETATM    8  C   UNK N   1      28.847  17.358   6.316  0.00  0.00     0.044 A 
HETATM    9  C   UNK N   1      31.072  16.726   4.754  0.00  0.00     0.033 A 
HETATM   10  C   UNK N   1      29.783  16.552   4.247  0.00  0.00     0.031 A 
HETATM   11  C   UNK N   1      28.656  16.870   5.011  0.00  0.00     0.032 A 
HETATM   12  H   UNK N   1      33.282  17.094   5.987  0.00  0.00     0.169 HD
ENDROOT
BRANCH  11  13
HETATM   13  N   UNK N   1      27.331  16.700   4.480  0.00  0.00    -0.369 N 
HETATM   14  C   UNK N   1      26.839  15.413   4.029  0.00  0.00     0.081 C 
HETATM   15  C   UNK N   1      25.454  15.685   3.457  0.00  0.00     0.027 C 
HETATM   16  C   UNK N   1      27.683  14.826   2.907  0.00  0.00     0.032 C 
HETATM   17  C   UNK N   1      25.117  17.132   3.786  0.00  0.00     0.030 C 
HETATM   18  C   UNK N   1      26.443  17.786   4.112  0.00  0.00     0.122 C 
BRANCH  18  19
HETATM   19  C   UNK N   1      26.290  19.083   4.932  0.00  0.00     0.248 C 
BRANCH  19  20
HETATM   20  C   UNK N   1      27.000  20.370   4.504  0.00  0.00     0.414 C 
HETATM   21  F   UNK N   1      26.539  20.825   3.285  0.00  0.00    -0.168 F 
HETATM   22  F   UNK N   1      28.366  20.175   4.431  0.00  0.00    -0.168 F 
HETATM   23  F   UNK N   1      26.747  21.336   5.459  0.00  0.00    -0.168 F 
ENDBRANCH  19  20
BRANCH  19  24
HETATM   24  O   UNK N   1      24.970  19.313   5.325  0.00  0.00    -0.384 OA
HETATM   25  H   UNK N   1      24.405  20.099   5.269  0.00  0.00     0.210 HD
ENDBRANCH  19  24
ENDBRANCH  18  19
ENDBRANCH  11  13
BRANCH   1  26
HETATM   26  C   UNK N   1      29.176  18.151   9.136  0.00  0.00     0.418 C 
HETATM   27  F   UNK N   1      29.652  18.699  10.315  0.00  0.00    -0.166 F 
HETATM   28  F   UNK N   1      28.279  19.044   8.573  0.00  0.00    -0.166 F 
HETATM   29  F   UNK N   1      28.511  16.973   9.419  0.00  0.00    -0.166 F 
ENDBRANCH   1  26
TORSDOF 5
ENDMDL
MODEL 6
REMARK VINA RESULT:      -6.8     12.012     14.647
REMARK  5 active torsions:
REMARK  status: ('A' for Active; 'I' for Inactive)
REMARK    1  A    between atoms: C_1  and  C_3 
REMARK    2  A    between atoms: C_15  and  N_20 
REMARK    3  A    between atoms: C_22  and  C_18 
REMARK    4  A    between atoms: C_22  and  C_23 
REMARK    5  A    between atoms: C_22  and  O_27 
ROOT
HETATM    1  C   UNK N   1      27.702  28.369  -5.576  0.00  0.00     0.065 A 
HETATM    2  C   UNK N   1      27.223  29.476  -4.861  0.00  0.00     0.091 A 
HETATM    3  N   UNK N   1      26.399  28.032  -3.136  0.00  0.00    -0.323 N 
HETATM    4  C   UNK N   1      26.580  29.291  -3.638  0.00  0.00     0.246 A 
HETATM    5  O   UNK N   1      26.164  30.257  -3.020  0.00  0.00    -0.268 OA
HETATM    6  C   UNK N   1      27.521  27.078  -5.034  0.00  0.00     0.008 A 
HETATM    7  C   UNK N   1      26.843  26.935  -3.804  0.00  0.00     0.046 A 
HETATM    8  C   UNK N   1      27.971  25.928  -5.703  0.00  0.00     0.044 A 
HETATM    9  C   UNK N   1      26.596  25.665  -3.288  0.00  0.00     0.033 A 
HETATM   10  C   UNK N   1      27.001  24.531  -3.995  0.00  0.00     0.031 A 
HETATM   11  C   UNK N   1      27.698  24.642  -5.203  0.00  0.00     0.032 A 
HETATM   12  H   UNK N   1      25.937  27.918  -2.275  0.00  0.00     0.169 HD
ENDROOT
BRANCH  11  13
HETATM   13  N   UNK N   1      28.124  23.472  -5.920  0.00  0.00    -0.369 N 
HETATM   14  C   UNK N   1      27.424  22.987  -7.093  0.00  0.00     0.081 C 
HETATM   15  C   UNK N   1      28.127  21.693  -7.481  0.00  0.00     0.027 C 
HETATM   16  C   UNK N   1      25.971  22.641  -6.803  0.00  0.00     0.032 C 
HETATM   17  C   UNK N   1      29.364  21.583  -6.602  0.00  0.00     0.030 C 
HETATM   18  C   UNK N   1      29.116  22.526  -5.444  0.00  0.00     0.122 C 
BRANCH  18  19
HETATM   19  C   UNK N   1      30.409  22.936  -4.712  0.00  0.00     0.248 C 
BRANCH  19  20
HETATM   20  C   UNK N   1      30.405  23.213  -3.207  0.00  0.00     0.414 C 
HETATM   21  F   UNK N   1      29.365  22.564  -2.572  0.00  0.00    -0.168 F 
HETATM   22  F   UNK N   1      30.315  24.569  -2.957  0.00  0.00    -0.168 F 
HETATM   23  F   UNK N   1      31.598  22.750  -2.683  0.00  0.00    -0.168 F 
ENDBRANCH  19  20
BRANCH  19  24
HETATM   24  O   UNK N   1      31.510  22.173  -5.107  0.00  0.00    -0.384 OA
HETATM   25  H   UNK N   1      32.213  21.740  -4.598  0.00  0.00     0.210 HD
ENDBRANCH  19  24
ENDBRANCH  18  19
ENDBRANCH  11  13
BRANCH   1  26
HETATM   26  C   UNK N   1      28.356  28.584  -6.922  0.00  0.00     0.418 C 
HETATM   27  F   UNK N   1      28.469  29.942  -7.168  0.00  0.00    -0.166 F 
HETATM   28  F   UNK N   1      29.625  28.030  -6.955  0.00  0.00    -0.166 F 
HETATM   29  F   UNK N   1      27.593  28.004  -7.918  0.00  0.00    -0.166 F 
ENDBRANCH   1  26
TORSDOF 5
ENDMDL
MODEL 7
REMARK VINA RESULT:      -6.7      2.826      6.472
REMARK  5 active torsions:
REMARK  status: ('A' for Active; 'I' for Inactive)
REMARK    1  A    between atoms: C_1  and  C_3 
REMARK    2  A    between atoms: C_15  and  N_20 
REMARK    3  A    between atoms: C_22  and  C_18 
REMARK    4  A    between atoms: C_22  and  C_23 
REMARK    5  A    between atoms: C_22  and  O_27 
ROOT
HETATM    1  C   UNK N   1      26.415  20.252   5.416  0.00  0.00     0.065 A 
HETATM    2  C   UNK N   1      25.257  20.516   4.672  0.00  0.00     0.091 A 
HETATM    3  N   UNK N   1      25.626  18.548   3.357  0.00  0.00    -0.323 N 
HETATM    4  C   UNK N   1      24.871  19.650   3.650  0.00  0.00     0.246 A 
HETATM    5  O   UNK N   1      23.863  19.884   3.005  0.00  0.00    -0.268 OA
HETATM    6  C   UNK N   1      27.173  19.100   5.111  0.00  0.00     0.008 A 
HETATM    7  C   UNK N   1      26.759  18.263   4.052  0.00  0.00     0.046 A 
HETATM    8  C   UNK N   1      28.347  18.782   5.812  0.00  0.00     0.044 A 
HETATM    9  C   UNK N   1      27.530  17.160   3.692  0.00  0.00     0.033 A 
HETATM   10  C   UNK N   1      28.724  16.892   4.365  0.00  0.00     0.031 A 
HETATM   11  C   UNK N   1      29.146  17.688   5.435  0.00  0.00     0.032 A 
HETATM   12  H   UNK N   1      25.343  17.950   2.628  0.00  0.00     0.169 HD
ENDROOT
BRANCH  11  13
HETATM   13  N   UNK N   1      30.368  17.400   6.133  0.00  0.00    -0.369 N 
HETATM   14  C   UNK N   1      31.603  17.096   5.435  0.00  0.00     0.081 C 
HETATM   15  C   UNK N   1      32.613  16.759   6.524  0.00  0.00     0.027 C 
HETATM   16  C   UNK N   1      31.481  15.873   4.539  0.00  0.00     0.032 C 
HETATM   17  C   UNK N   1      31.950  17.078   7.856  0.00  0.00     0.030 C 
HETATM   18  C   UNK N   1      30.467  17.143   7.557  0.00  0.00     0.122 C 
BRANCH  18  19
HETATM   19  C   UNK N   1      29.670  17.919   8.625  0.00  0.00     0.248 C 
BRANCH  19  20
HETATM   20  C   UNK N   1      28.322  17.399   9.130  0.00  0.00     0.414 C 
HETATM   21  F   UNK N   1      27.705  16.591   8.196  0.00  0.00    -0.168 F 
HETATM   22  F   UNK N   1      27.482  18.446   9.453  0.00  0.00    -0.168 F 
HETATM   23  F   UNK N   1      28.552  16.655  10.272  0.00  0.00    -0.168 F 
ENDBRANCH  19  20
BRANCH  19  24
HETATM   24  O   UNK N   1      30.481  18.383   9.662  0.00  0.00    -0.384 OA
HETATM   25  H   UNK N   1      30.289  18.936  10.435  0.00  0.00     0.210 HD
ENDBRANCH  19  24
ENDBRANCH  18  19
ENDBRANCH  11  13
BRANCH   1  26
HETATM   26  C   UNK N   1      26.844  21.226   6.490  0.00  0.00     0.418 C 
HETATM   27  F   UNK N   1      28.106  21.712   6.194  0.00  0.00    -0.166 F 
HETATM   28  F   UNK N   1      25.973  22.300   6.566  0.00  0.00    -0.166 F 
HETATM   29  F   UNK N   1      26.876  20.593   7.718  0.00  0.00    -0.166 F 
ENDBRANCH   1  26
TORSDOF 5
ENDMDL
MODEL 8
REMARK VINA RESULT:      -6.7      2.819      3.874
REMARK  5 active torsions:
REMARK  status: ('A' for Active; 'I' for Inactive)
REMARK    1  A    between atoms: C_1  and  C_3 
REMARK    2  A    between atoms: C_15  and  N_20 
REMARK    3  A    between atoms: C_22  and  C_18 
REMARK    4  A    between atoms: C_22  and  C_23 
REMARK    5  A    between atoms: C_22  and  O_27 
ROOT
HETATM    1  C   UNK N   1      29.829  17.658   8.252  0.00  0.00     0.065 A 
HETATM    2  C   UNK N   1      31.225  17.776   8.213  0.00  0.00     0.091 A 
HETATM    3  N   UNK N   1      31.286  16.609   6.122  0.00  0.00    -0.323 N 
HETATM    4  C   UNK N   1      31.940  17.253   7.136  0.00  0.00     0.246 A 
HETATM    5  O   UNK N   1      33.154  17.358   7.106  0.00  0.00    -0.268 OA
HETATM    6  C   UNK N   1      29.170  17.004   7.188  0.00  0.00     0.008 A 
HETATM    7  C   UNK N   1      29.935  16.468   6.129  0.00  0.00     0.046 A 
HETATM    8  C   UNK N   1      27.775  16.845   7.170  0.00  0.00     0.044 A 
HETATM    9  C   UNK N   1      29.308  15.761   5.105  0.00  0.00     0.033 A 
HETATM   10  C   UNK N   1      27.926  15.566   5.134  0.00  0.00     0.031 A 
HETATM   11  C   UNK N   1      27.140  16.108   6.156  0.00  0.00     0.032 A 
HETATM   12  H   UNK N   1      31.806  16.239   5.372  0.00  0.00     0.169 HD
ENDROOT
BRANCH  11  13
HETATM   13  N   UNK N   1      25.716  15.914   6.173  0.00  0.00    -0.369 N 
HETATM   14  C   UNK N   1      25.085  14.896   6.990  0.00  0.00     0.081 C 
HETATM   15  C   UNK N   1      23.602  14.959   6.646  0.00  0.00     0.027 C 
HETATM   16  C   UNK N   1      25.567  13.493   6.650  0.00  0.00     0.032 C 
HETATM   17  C   UNK N   1      23.407  16.179   5.758  0.00  0.00     0.030 C 
HETATM   18  C   UNK N   1      24.788  16.517   5.236  0.00  0.00     0.122 C 
BRANCH  18  19
HETATM   19  C   UNK N   1      24.902  17.970   4.731  0.00  0.00     0.248 C 
BRANCH  19  20
HETATM   20  C   UNK N   1      25.857  18.331   3.591  0.00  0.00     0.414 C 
HETATM   21  F   UNK N   1      26.080  17.256   2.754  0.00  0.00    -0.168 F 
HETATM   22  F   UNK N   1      27.066  18.780   4.087  0.00  0.00    -0.168 F 
HETATM   23  F   UNK N   1      25.281  19.349   2.856  0.00  0.00    -0.168 F 
ENDBRANCH  19  20
BRANCH  19  24
HETATM   24  O   UNK N   1      23.657  18.586   4.594  0.00  0.00    -0.384 OA
HETATM   25  H   UNK N   1      23.285  19.143   3.893  0.00  0.00     0.210 HD
ENDBRANCH  19  24
ENDBRANCH  18  19
ENDBRANCH  11  13
BRANCH   1  26
HETATM   26  C   UNK N   1      29.074  18.190   9.450  0.00  0.00     0.418 C 
HETATM   27  F   UNK N   1      29.921  18.970  10.219  0.00  0.00    -0.166 F 
HETATM   28  F   UNK N   1      28.001  18.972   9.056  0.00  0.00    -0.166 F 
HETATM   29  F   UNK N   1      28.601  17.141  10.216  0.00  0.00    -0.166 F 
ENDBRANCH   1  26
TORSDOF 5
ENDMDL
MODEL 9
REMARK VINA RESULT:      -6.7      2.951      4.466
REMARK  5 active torsions:
REMARK  status: ('A' for Active; 'I' for Inactive)
REMARK    1  A    between atoms: C_1  and  C_3 
REMARK    2  A    between atoms: C_15  and  N_20 
REMARK    3  A    between atoms: C_22  and  C_18 
REMARK    4  A    between atoms: C_22  and  C_23 
REMARK    5  A    between atoms: C_22  and  O_27 
ROOT
HETATM    1  C   UNK N   1      29.861  17.194   8.384  0.00  0.00     0.065 A 
HETATM    2  C   UNK N   1      31.089  16.630   8.757  0.00  0.00     0.091 A 
HETATM    3  N   UNK N   1      31.776  16.557   6.463  0.00  0.00    -0.323 N 
HETATM    4  C   UNK N   1      32.040  16.324   7.785  0.00  0.00     0.246 A 
HETATM    5  O   UNK N   1      33.107  15.834   8.114  0.00  0.00    -0.268 OA
HETATM    6  C   UNK N   1      29.613  17.443   7.017  0.00  0.00     0.008 A 
HETATM    7  C   UNK N   1      30.594  17.095   6.063  0.00  0.00     0.046 A 
HETATM    8  C   UNK N   1      28.401  17.998   6.576  0.00  0.00     0.044 A 
HETATM    9  C   UNK N   1      30.340  17.270   4.705  0.00  0.00     0.033 A 
HETATM   10  C   UNK N   1      29.107  17.772   4.283  0.00  0.00     0.031 A 
HETATM   11  C   UNK N   1      28.126  18.150   5.205  0.00  0.00     0.032 A 
HETATM   12  H   UNK N   1      32.456  16.329   5.788  0.00  0.00     0.169 HD
ENDROOT
BRANCH  11  13
HETATM   13  N   UNK N   1      26.863  18.678   4.766  0.00  0.00    -0.369 N 
HETATM   14  C   UNK N   1      26.719  20.041   4.293  0.00  0.00     0.081 C 
HETATM   15  C   UNK N   1      25.230  20.223   4.026  0.00  0.00     0.027 C 
HETATM   16  C   UNK N   1      27.118  21.068   5.341  0.00  0.00     0.032 C 
HETATM   17  C   UNK N   1      24.584  18.854   4.180  0.00  0.00     0.030 C 
HETATM   18  C   UNK N   1      25.582  18.027   4.962  0.00  0.00     0.122 C 
BRANCH  18  19
HETATM   19  C   UNK N   1      25.359  16.509   4.808  0.00  0.00     0.248 C 
BRANCH  19  20
HETATM   20  C   UNK N   1      25.950  15.747   3.620  0.00  0.00     0.414 C 
HETATM   21  F   UNK N   1      26.245  16.591   2.568  0.00  0.00    -0.168 F 
HETATM   22  F   UNK N   1      25.079  14.766   3.185  0.00  0.00    -0.168 F 
HETATM   23  F   UNK N   1      27.119  15.139   4.038  0.00  0.00    -0.168 F 
ENDBRANCH  19  20
BRANCH  19  24
HETATM   24  O   UNK N   1      25.524  15.821   6.012  0.00  0.00    -0.384 OA
HETATM   25  H   UNK N   1      24.890  15.370   6.591  0.00  0.00     0.210 HD
ENDBRANCH  19  24
ENDBRANCH  18  19
ENDBRANCH  11  13
BRANCH   1  26
HETATM   26  C   UNK N   1      28.823  17.477   9.447  0.00  0.00     0.418 C 
HETATM   27  F   UNK N   1      29.261  16.979  10.662  0.00  0.00    -0.166 F 
HETATM   28  F   UNK N   1      28.611  18.839   9.587  0.00  0.00    -0.166 F 
HETATM   29  F   UNK N   1      27.626  16.874   9.112  0.00  0.00    -0.166 F 
ENDBRANCH   1  26
TORSDOF 5
ENDMDL
