MODEL 1
REMARK VINA RESULT:      -5.6      0.000      0.000
REMARK  4 active torsions:
REMARK  status: ('A' for Active; 'I' for Inactive)
REMARK    1  A    between atoms: N_5  and  C_10 
REMARK       I    between atoms: N_6  and  C_14 
REMARK    2  A    between atoms: C_7  and  C_13 
REMARK    3  A    between atoms: C_10  and  C_12 
REMARK    4  A    between atoms: C_10  and  C_14 
ROOT
HETATM    1  O   UNK N   1      24.817  25.683  -5.644  0.00  0.00    -0.273 OA
HETATM    2  N   UNK N   1      26.810  26.463  -4.937  0.00  0.00    -0.338 N 
HETATM    3  C   UNK N   1      27.871  24.411  -4.413  0.00  0.00     0.040 C 
HETATM    4  C   UNK N   1      28.080  25.942  -4.493  0.00  0.00     0.136 C 
HETATM    5  C   UNK N   1      26.497  24.127  -5.049  0.00  0.00     0.113 C 
HETATM    6  C   UNK N   1      25.953  25.478  -5.237  0.00  0.00     0.221 C 
ENDROOT
BRANCH   2   7
HETATM    7  C   UNK N   1      26.474  27.890  -4.990  0.00  0.00     0.178 C 
BRANCH   7   8
HETATM    8  C   UNK N   1      27.570  28.745  -5.653  0.00  0.00     0.030 C 
HETATM    9  C   UNK N   1      27.781  28.422  -7.121  0.00  0.00     0.007 C 
ENDBRANCH   7   8
BRANCH   7  10
HETATM   10  C   UNK N   1      25.997  28.455  -3.664  0.00  0.00     0.238 C 
HETATM   11  O   UNK N   1      25.447  27.724  -2.856  0.00  0.00    -0.271 OA
HETATM   12  N   UNK N   1      26.145  29.765  -3.374  0.00  0.00    -0.368 N 
HETATM   13  H   UNK N   1      26.095  30.172  -2.479  0.00  0.00     0.159 HD
HETATM   14  H   UNK N   1      26.318  30.371  -4.130  0.00  0.00     0.159 HD
ENDBRANCH   7  10
ENDBRANCH   2   7
BRANCH   3  15
HETATM   15  C   UNK N   1      27.899  23.998  -2.962  0.00  0.00     0.054 C 
HETATM   16  C   UNK N   1      28.801  23.151  -2.445  0.00  0.00     0.263 C 
HETATM   17  F   UNK N   1      28.765  22.860  -1.119  0.00  0.00    -0.173 F 
HETATM   18  F   UNK N   1      29.732  22.548  -3.232  0.00  0.00    -0.173 F 
ENDBRANCH   3  15
TORSDOF 4
ENDMDL
MODEL 2
REMARK VINA RESULT:      -5.5     15.370     17.318
REMARK  4 active torsions:
REMARK  status: ('A' for Active; 'I' for Inactive)
REMARK    1  A    between atoms: N_5  and  C_10 
REMARK       I    between atoms: N_6  and  C_14 
REMARK    2  A    between atoms: C_7  and  C_13 
REMARK    3  A    between atoms: C_10  and  C_12 
REMARK    4  A    between atoms: C_10  and  C_14 
ROOT
HETATM    1  O   UNK N   1      34.482  17.761   6.544  0.00  0.00    -0.273 OA
HETATM    2  N   UNK N   1      33.631  16.339   8.070  0.00  0.00    -0.338 N 
HETATM    3  C   UNK N   1      31.320  16.649   7.650  0.00  0.00     0.040 C 
HETATM    4  C   UNK N   1      32.343  15.836   8.480  0.00  0.00     0.136 C 
HETATM    5  C   UNK N   1      32.138  17.449   6.619  0.00  0.00     0.113 C 
HETATM    6  C   UNK N   1      33.519  17.213   7.062  0.00  0.00     0.221 C 
ENDROOT
BRANCH   2   7
HETATM    7  C   UNK N   1      34.901  15.989   8.717  0.00  0.00     0.178 C 
BRANCH   7   8
HETATM    8  C   UNK N   1      35.185  14.475   8.713  0.00  0.00     0.030 C 
HETATM    9  C   UNK N   1      35.366  13.900   7.320  0.00  0.00     0.007 C 
ENDBRANCH   7   8
BRANCH   7  10
HETATM   10  C   UNK N   1      35.086  16.627  10.083  0.00  0.00     0.238 C 
HETATM   11  O   UNK N   1      35.559  17.748  10.169  0.00  0.00    -0.271 OA
HETATM   12  N   UNK N   1      34.763  15.959  11.210  0.00  0.00    -0.368 N 
HETATM   13  H   UNK N   1      34.618  16.356  12.100  0.00  0.00     0.159 HD
HETATM   14  H   UNK N   1      34.662  14.983  11.136  0.00  0.00     0.159 HD
ENDBRANCH   7  10
ENDBRANCH   2   7
BRANCH   3  15
HETATM   15  C   UNK N   1      30.566  17.565   8.582  0.00  0.00     0.054 C 
HETATM   16  C   UNK N   1      29.373  18.105   8.292  0.00  0.00     0.263 C 
HETATM   17  F   UNK N   1      28.755  18.897   9.205  0.00  0.00    -0.173 F 
HETATM   18  F   UNK N   1      28.785  17.904   7.082  0.00  0.00    -0.173 F 
ENDBRANCH   3  15
TORSDOF 4
ENDMDL
MODEL 3
REMARK VINA RESULT:      -5.3     16.612     18.164
REMARK  4 active torsions:
REMARK  status: ('A' for Active; 'I' for Inactive)
REMARK    1  A    between atoms: N_5  and  C_10 
REMARK       I    between atoms: N_6  and  C_14 
REMARK    2  A    between atoms: C_7  and  C_13 
REMARK    3  A    between atoms: C_10  and  C_12 
REMARK    4  A    between atoms: C_10  and  C_14 
ROOT
HETATM    1  O   UNK N   1      19.900  14.236   6.106  0.00  0.00    -0.273 OA
HETATM    2  N   UNK N   1      20.684  15.422   7.854  0.00  0.00    -0.338 N 
HETATM    3  C   UNK N   1      21.603  13.660   9.144  0.00  0.00     0.040 C 
HETATM    4  C   UNK N   1      21.435  15.196   9.065  0.00  0.00     0.136 C 
HETATM    5  C   UNK N   1      21.097  13.099   7.801  0.00  0.00     0.113 C 
HETATM    6  C   UNK N   1      20.502  14.285   7.171  0.00  0.00     0.221 C 
ENDROOT
BRANCH   2   7
HETATM    7  C   UNK N   1      20.131  16.720   7.453  0.00  0.00     0.178 C 
BRANCH   7   8
HETATM    8  C   UNK N   1      21.131  17.586   6.665  0.00  0.00     0.030 C 
HETATM    9  C   UNK N   1      20.942  17.508   5.161  0.00  0.00     0.007 C 
ENDBRANCH   7   8
BRANCH   7  10
HETATM   10  C   UNK N   1      19.454  17.471   8.586  0.00  0.00     0.238 C 
HETATM   11  O   UNK N   1      19.979  18.471   9.049  0.00  0.00    -0.271 OA
HETATM   12  N   UNK N   1      18.291  17.033   9.112  0.00  0.00    -0.368 N 
HETATM   13  H   UNK N   1      17.666  17.560   9.662  0.00  0.00     0.159 HD
HETATM   14  H   UNK N   1      18.044  16.098   8.930  0.00  0.00     0.159 HD
ENDBRANCH   7  10
ENDBRANCH   2   7
BRANCH   3  15
HETATM   15  C   UNK N   1      20.778  13.145  10.297  0.00  0.00     0.054 C 
HETATM   16  C   UNK N   1      21.210  12.221  11.168  0.00  0.00     0.263 C 
HETATM   17  F   UNK N   1      20.406  11.838  12.194  0.00  0.00    -0.173 F 
HETATM   18  F   UNK N   1      22.426  11.630  11.022  0.00  0.00    -0.173 F 
ENDBRANCH   3  15
TORSDOF 4
ENDMDL
MODEL 4
REMARK VINA RESULT:      -5.3     23.406     25.826
REMARK  4 active torsions:
REMARK  status: ('A' for Active; 'I' for Inactive)
REMARK    1  A    between atoms: N_5  and  C_10 
REMARK       I    between atoms: N_6  and  C_14 
REMARK    2  A    between atoms: C_7  and  C_13 
REMARK    3  A    between atoms: C_10  and  C_12 
REMARK    4  A    between atoms: C_10  and  C_14 
ROOT
HETATM    1  O   UNK N   1      37.614  15.166  15.848  0.00  0.00    -0.273 OA
HETATM    2  N   UNK N   1      36.050  13.651  15.266  0.00  0.00    -0.338 N 
HETATM    3  C   UNK N   1      34.958  13.392  17.352  0.00  0.00     0.040 C 
HETATM    4  C   UNK N   1      34.926  12.973  15.863  0.00  0.00     0.136 C 
HETATM    5  C   UNK N   1      36.022  14.500  17.467  0.00  0.00     0.113 C 
HETATM    6  C   UNK N   1      36.643  14.478  16.136  0.00  0.00     0.221 C 
ENDROOT
BRANCH   2   7
HETATM    7  C   UNK N   1      36.527  13.417  13.898  0.00  0.00     0.178 C 
BRANCH   7   8
HETATM    8  C   UNK N   1      35.509  13.839  12.822  0.00  0.00     0.030 C 
HETATM    9  C   UNK N   1      36.148  14.508  11.618  0.00  0.00     0.007 C 
ENDBRANCH   7   8
BRANCH   7  10
HETATM   10  C   UNK N   1      37.085  12.022  13.677  0.00  0.00     0.238 C 
HETATM   11  O   UNK N   1      36.448  11.211  13.024  0.00  0.00    -0.271 OA
HETATM   12  N   UNK N   1      38.265  11.652  14.219  0.00  0.00    -0.368 N 
HETATM   13  H   UNK N   1      38.814  10.882  13.945  0.00  0.00     0.159 HD
HETATM   14  H   UNK N   1      38.608  12.204  14.957  0.00  0.00     0.159 HD
ENDBRANCH   7  10
ENDBRANCH   2   7
BRANCH   3  15
HETATM   15  C   UNK N   1      35.329  12.188  18.182  0.00  0.00     0.054 C 
HETATM   16  C   UNK N   1      35.155  12.115  19.509  0.00  0.00     0.263 C 
HETATM   17  F   UNK N   1      35.494  10.977  20.169  0.00  0.00    -0.173 F 
HETATM   18  F   UNK N   1      34.679  13.175  20.216  0.00  0.00    -0.173 F 
ENDBRANCH   3  15
TORSDOF 4
ENDMDL
MODEL 5
REMARK VINA RESULT:      -5.2     15.391     18.147
REMARK  4 active torsions:
REMARK  status: ('A' for Active; 'I' for Inactive)
REMARK    1  A    between atoms: N_5  and  C_10 
REMARK       I    between atoms: N_6  and  C_14 
REMARK    2  A    between atoms: C_7  and  C_13 
REMARK    3  A    between atoms: C_10  and  C_12 
REMARK    4  A    between atoms: C_10  and  C_14 
ROOT
HETATM    1  O   UNK N   1      35.303  17.673  10.151  0.00  0.00    -0.273 OA
HETATM    2  N   UNK N   1      34.855  15.980   8.733  0.00  0.00    -0.338 N 
HETATM    3  C   UNK N   1      34.013  17.217   6.897  0.00  0.00     0.040 C 
HETATM    4  C   UNK N   1      34.388  15.796   7.381  0.00  0.00     0.136 C 
HETATM    5  C   UNK N   1      34.514  18.190   7.981  0.00  0.00     0.113 C 
HETATM    6  C   UNK N   1      34.923  17.277   9.057  0.00  0.00     0.221 C 
ENDROOT
BRANCH   2   7
HETATM    7  C   UNK N   1      35.155  14.884   9.661  0.00  0.00     0.178 C 
BRANCH   7   8
HETATM    8  C   UNK N   1      35.490  13.561   8.947  0.00  0.00     0.030 C 
HETATM    9  C   UNK N   1      36.977  13.359   8.716  0.00  0.00     0.007 C 
ENDBRANCH   7   8
BRANCH   7  10
HETATM   10  C   UNK N   1      34.128  14.721  10.767  0.00  0.00     0.238 C 
HETATM   11  O   UNK N   1      34.489  14.402  11.888  0.00  0.00    -0.271 OA
HETATM   12  N   UNK N   1      32.812  14.894  10.522  0.00  0.00    -0.368 N 
HETATM   13  H   UNK N   1      32.110  15.047  11.196  0.00  0.00     0.159 HD
HETATM   14  H   UNK N   1      32.526  14.863   9.581  0.00  0.00     0.159 HD
ENDBRANCH   7  10
ENDBRANCH   2   7
BRANCH   3  15
HETATM   15  C   UNK N   1      32.514  17.293   6.743  0.00  0.00     0.054 C 
HETATM   16  C   UNK N   1      31.891  17.409   5.562  0.00  0.00     0.263 C 
HETATM   17  F   UNK N   1      30.534  17.442   5.519  0.00  0.00    -0.173 F 
HETATM   18  F   UNK N   1      32.594  17.534   4.404  0.00  0.00    -0.173 F 
ENDBRANCH   3  15
TORSDOF 4
ENDMDL
MODEL 6
REMARK VINA RESULT:      -5.2     17.156     19.315
REMARK  4 active torsions:
REMARK  status: ('A' for Active; 'I' for Inactive)
REMARK    1  A    between atoms: N_5  and  C_10 
REMARK       I    between atoms: N_6  and  C_14 
REMARK    2  A    between atoms: C_7  and  C_13 
REMARK    3  A    between atoms: C_10  and  C_12 
REMARK    4  A    between atoms: C_10  and  C_14 
ROOT
HETATM    1  O   UNK N   1      35.288  15.050   7.857  0.00  0.00    -0.273 OA
HETATM    2  N   UNK N   1      34.845  16.314   9.669  0.00  0.00    -0.338 N 
HETATM    3  C   UNK N   1      36.186  15.192  11.268  0.00  0.00     0.040 C 
HETATM    4  C   UNK N   1      35.260  16.412  11.048  0.00  0.00     0.136 C 
HETATM    5  C   UNK N   1      36.418  14.569   9.879  0.00  0.00     0.113 C 
HETATM    6  C   UNK N   1      35.474  15.315   9.038  0.00  0.00     0.221 C 
ENDROOT
BRANCH   2   7
HETATM    7  C   UNK N   1      33.817  17.159   9.052  0.00  0.00     0.178 C 
BRANCH   7   8
HETATM    8  C   UNK N   1      32.565  16.371   8.623  0.00  0.00     0.030 C 
HETATM    9  C   UNK N   1      31.300  17.211   8.607  0.00  0.00     0.007 C 
ENDBRANCH   7   8
BRANCH   7  10
HETATM   10  C   UNK N   1      34.349  18.072   7.963  0.00  0.00     0.238 C 
HETATM   11  O   UNK N   1      34.983  19.071   8.265  0.00  0.00    -0.271 OA
HETATM   12  N   UNK N   1      34.106  17.814   6.660  0.00  0.00    -0.368 N 
HETATM   13  H   UNK N   1      34.593  18.191   5.892  0.00  0.00     0.159 HD
HETATM   14  H   UNK N   1      33.373  17.190   6.459  0.00  0.00     0.159 HD
ENDBRANCH   7  10
ENDBRANCH   2   7
BRANCH   3  15
HETATM   15  C   UNK N   1      35.492  14.224  12.194  0.00  0.00     0.054 C 
HETATM   16  C   UNK N   1      35.784  14.100  13.497  0.00  0.00     0.263 C 
HETATM   17  F   UNK N   1      35.086  13.220  14.260  0.00  0.00    -0.173 F 
HETATM   18  F   UNK N   1      36.794  14.814  14.064  0.00  0.00    -0.173 F 
ENDBRANCH   3  15
TORSDOF 4
ENDMDL
MODEL 7
REMARK VINA RESULT:      -5.1     23.206     25.157
REMARK  4 active torsions:
REMARK  status: ('A' for Active; 'I' for Inactive)
REMARK    1  A    between atoms: N_5  and  C_10 
REMARK       I    between atoms: N_6  and  C_14 
REMARK    2  A    between atoms: C_7  and  C_13 
REMARK    3  A    between atoms: C_10  and  C_12 
REMARK    4  A    between atoms: C_10  and  C_14 
ROOT
HETATM    1  O   UNK N   1      33.807  10.788  13.549  0.00  0.00    -0.273 OA
HETATM    2  N   UNK N   1      35.697  11.842  14.174  0.00  0.00    -0.338 N 
HETATM    3  C   UNK N   1      35.642  11.402  16.501  0.00  0.00     0.040 C 
HETATM    4  C   UNK N   1      36.481  12.041  15.369  0.00  0.00     0.136 C 
HETATM    5  C   UNK N   1      34.480  10.661  15.813  0.00  0.00     0.113 C 
HETATM    6  C   UNK N   1      34.613  11.095  14.417  0.00  0.00     0.221 C 
ENDROOT
BRANCH   2   7
HETATM    7  C   UNK N   1      36.010  12.438  12.871  0.00  0.00     0.178 C 
BRANCH   7   8
HETATM    8  C   UNK N   1      37.457  12.170  12.414  0.00  0.00     0.030 C 
HETATM    9  C   UNK N   1      37.633  12.227  10.907  0.00  0.00     0.007 C 
ENDBRANCH   7   8
BRANCH   7  10
HETATM   10  C   UNK N   1      35.610  13.899  12.755  0.00  0.00     0.238 C 
HETATM   11  O   UNK N   1      34.548  14.197  12.234  0.00  0.00    -0.271 OA
HETATM   12  N   UNK N   1      36.428  14.879  13.194  0.00  0.00    -0.368 N 
HETATM   13  H   UNK N   1      36.170  15.810  13.383  0.00  0.00     0.159 HD
HETATM   14  H   UNK N   1      37.372  14.641  13.337  0.00  0.00     0.159 HD
ENDBRANCH   7  10
ENDBRANCH   2   7
BRANCH   3  15
HETATM   15  C   UNK N   1      35.133  12.502  17.400  0.00  0.00     0.054 C 
HETATM   16  C   UNK N   1      35.277  12.501  18.734  0.00  0.00     0.263 C 
HETATM   17  F   UNK N   1      34.810  13.550  19.459  0.00  0.00    -0.173 F 
HETATM   18  F   UNK N   1      35.848  11.449  19.379  0.00  0.00    -0.173 F 
ENDBRANCH   3  15
TORSDOF 4
ENDMDL
MODEL 8
REMARK VINA RESULT:      -5.1     16.734     19.250
REMARK  4 active torsions:
REMARK  status: ('A' for Active; 'I' for Inactive)
REMARK    1  A    between atoms: N_5  and  C_10 
REMARK       I    between atoms: N_6  and  C_14 
REMARK    2  A    between atoms: C_7  and  C_13 
REMARK    3  A    between atoms: C_10  and  C_12 
REMARK    4  A    between atoms: C_10  and  C_14 
ROOT
HETATM    1  O   UNK N   1      35.626  17.808  10.184  0.00  0.00    -0.273 OA
HETATM    2  N   UNK N   1      34.200  16.122   9.736  0.00  0.00    -0.338 N 
HETATM    3  C   UNK N   1      35.055  14.480  11.215  0.00  0.00     0.040 C 
HETATM    4  C   UNK N   1      33.927  14.784  10.201  0.00  0.00     0.136 C 
HETATM    5  C   UNK N   1      35.812  15.805  11.429  0.00  0.00     0.113 C 
HETATM    6  C   UNK N   1      35.222  16.673  10.402  0.00  0.00     0.221 C 
ENDROOT
BRANCH   2   7
HETATM    7  C   UNK N   1      33.494  16.774   8.628  0.00  0.00     0.178 C 
BRANCH   7   8
HETATM    8  C   UNK N   1      32.075  16.217   8.404  0.00  0.00     0.030 C 
HETATM    9  C   UNK N   1      31.233  17.070   7.472  0.00  0.00     0.007 C 
ENDBRANCH   7   8
BRANCH   7  10
HETATM   10  C   UNK N   1      34.309  16.859   7.350  0.00  0.00     0.238 C 
HETATM   11  O   UNK N   1      34.553  17.949   6.858  0.00  0.00    -0.271 OA
HETATM   12  N   UNK N   1      34.743  15.742   6.728  0.00  0.00    -0.368 N 
HETATM   13  H   UNK N   1      35.460  15.694   6.054  0.00  0.00     0.159 HD
HETATM   14  H   UNK N   1      34.302  14.897   6.970  0.00  0.00     0.159 HD
ENDBRANCH   7  10
ENDBRANCH   2   7
BRANCH   3  15
HETATM   15  C   UNK N   1      35.957  13.423  10.627  0.00  0.00     0.054 C 
HETATM   16  C   UNK N   1      36.907  12.783  11.324  0.00  0.00     0.263 C 
HETATM   17  F   UNK N   1      37.653  11.825  10.716  0.00  0.00    -0.173 F 
HETATM   18  F   UNK N   1      37.165  13.101  12.621  0.00  0.00    -0.173 F 
ENDBRANCH   3  15
TORSDOF 4
ENDMDL
MODEL 9
REMARK VINA RESULT:      -5.0     11.012     13.419
REMARK  4 active torsions:
REMARK  status: ('A' for Active; 'I' for Inactive)
REMARK    1  A    between atoms: N_5  and  C_10 
REMARK       I    between atoms: N_6  and  C_14 
REMARK    2  A    between atoms: C_7  and  C_13 
REMARK    3  A    between atoms: C_10  and  C_12 
REMARK    4  A    between atoms: C_10  and  C_14 
ROOT
HETATM    1  O   UNK N   1      27.981  19.276   8.253  0.00  0.00    -0.273 OA
HETATM    2  N   UNK N   1      28.161  18.444   6.167  0.00  0.00    -0.338 N 
HETATM    3  C   UNK N   1      27.325  20.287   4.935  0.00  0.00     0.040 C 
HETATM    4  C   UNK N   1      27.952  18.878   4.807  0.00  0.00     0.136 C 
HETATM    5  C   UNK N   1      27.417  20.668   6.425  0.00  0.00     0.113 C 
HETATM    6  C   UNK N   1      27.870  19.415   7.042  0.00  0.00     0.221 C 
ENDROOT
BRANCH   2   7
HETATM    7  C   UNK N   1      28.575  17.089   6.549  0.00  0.00     0.178 C 
BRANCH   7   8
HETATM    8  C   UNK N   1      29.956  16.699   5.990  0.00  0.00     0.030 C 
HETATM    9  C   UNK N   1      31.107  17.096   6.897  0.00  0.00     0.007 C 
ENDBRANCH   7   8
BRANCH   7  10
HETATM   10  C   UNK N   1      27.512  16.034   6.302  0.00  0.00     0.238 C 
HETATM   11  O   UNK N   1      27.730  15.126   5.515  0.00  0.00    -0.271 OA
HETATM   12  N   UNK N   1      26.313  16.099   6.918  0.00  0.00    -0.368 N 
HETATM   13  H   UNK N   1      25.668  15.361   7.014  0.00  0.00     0.159 HD
HETATM   14  H   UNK N   1      26.059  16.965   7.308  0.00  0.00     0.159 HD
ENDBRANCH   7  10
ENDBRANCH   2   7
BRANCH   3  15
HETATM   15  C   UNK N   1      25.890  20.217   4.475  0.00  0.00     0.054 C 
HETATM   16  C   UNK N   1      25.481  20.579   3.250  0.00  0.00     0.263 C 
HETATM   17  F   UNK N   1      24.171  20.455   2.916  0.00  0.00    -0.173 F 
HETATM   18  F   UNK N   1      26.349  21.107   2.345  0.00  0.00    -0.173 F 
ENDBRANCH   3  15
TORSDOF 4
ENDMDL
