REMARK  4 active torsions:
REMARK  status: ('A' for Active; 'I' for Inactive)
REMARK    1  A    between atoms: C_4  and  C_1 
REMARK    2  A    between atoms: O_9  and  C_3 
REMARK       I    between atoms: N_8  and  C_4 
REMARK    3  A    between atoms: C_13  and  N_8 
REMARK    4  A    between atoms: C_17  and  N_8 
ROOT
HETATM    1  C   UNK N   1      -0.564  -0.106  -0.123  0.00  0.00     0.134 A 
HETATM    2  C   UNK N   1      -0.677   1.305  -0.265  0.00  0.00     0.266 A 
HETATM    3  C   UNK N   1      -1.773  -0.844   0.030  0.00  0.00     0.101 A 
HETATM    4  N   UNK N   1      -1.907   1.927  -0.200  0.00  0.00    -0.317 N 
HETATM    5  C   UNK N   1      -3.030  -0.195   0.067  0.00  0.00     0.047 A 
HETATM    6  C   UNK N   1      -3.064   1.216  -0.040  0.00  0.00     0.051 A 
HETATM    7  O   UNK N   1       0.302   1.983  -0.499  0.00  0.00    -0.267 OA
HETATM    8  C   UNK N   1      -4.267  -0.902   0.203  0.00  0.00     0.049 A 
HETATM    9  C   UNK N   1      -1.965   3.385  -0.338  0.00  0.00     0.159 C 
HETATM   10  C   UNK N   1      -4.301   1.886  -0.003  0.00  0.00     0.031 A 
HETATM   11 Cl   UNK N   1      -4.399  -2.655   0.325  0.00  0.00    -0.083 Cl
HETATM   12  C   UNK N   1      -5.492   1.186   0.133  0.00  0.00     0.004 A 
HETATM   13  C   UNK N   1      -5.472  -0.198   0.232  0.00  0.00     0.025 A 
ENDROOT
BRANCH   1  14
HETATM   14  C   UNK N   1       0.754  -0.898  -0.197  0.00  0.00     0.266 C 
HETATM   15  N   UNK N   1       2.015  -0.438   0.191  0.00  0.00    -0.314 N 
HETATM   16  O   UNK N   1       0.658  -2.042  -0.615  0.00  0.00    -0.267 OA
BRANCH  15  17
HETATM   17  C   UNK N   1       3.203  -1.279   0.095  0.00  0.00     0.037 A 
HETATM   18  C   UNK N   1       3.143  -2.627  -0.318  0.00  0.00     0.029 A 
HETATM   19  C   UNK N   1       4.291  -3.419  -0.389  0.00  0.00     0.002 A 
HETATM   20  C   UNK N   1       5.533  -2.879  -0.057  0.00  0.00     0.000 A 
HETATM   21  C   UNK N   1       5.623  -1.550   0.354  0.00  0.00     0.002 A 
HETATM   22  C   UNK N   1       4.472  -0.763   0.437  0.00  0.00     0.029 A 
ENDBRANCH  15  17
BRANCH  15  23
HETATM   23  C   UNK N   1       2.172   0.858   0.827  0.00  0.00     0.128 C 
HETATM   24  C   UNK N   1       3.051   1.789  -0.005  0.00  0.00     0.027 C 
ENDBRANCH  15  23
ENDBRANCH   1  14
BRANCH   3  25
HETATM   25  O   UNK N   1      -1.714  -2.183   0.153  0.00  0.00    -0.358 OA
HETATM   26  H   UNK N   1      -2.500  -2.685   0.239  0.00  0.00     0.217 HD
ENDBRANCH   3  25
TORSDOF 4
