MODEL 1
REMARK VINA RESULT:      -6.5      0.000      0.000
REMARK  10 active torsions:
REMARK  status: ('A' for Active; 'I' for Inactive)
REMARK    1  A    between atoms: S_1  and  C_17 
REMARK    2  A    between atoms: S_1  and  C_21 
REMARK    3  A    between atoms: S_2  and  N_11 
REMARK    4  A    between atoms: S_2  and  N_12 
REMARK    5  A    between atoms: C_19  and  O_4 
REMARK    6  A    between atoms: O_5  and  C_26 
REMARK    7  A    between atoms: N_11  and  C_27 
REMARK    8  A    between atoms: C_14  and  C_19 
REMARK    9  A    between atoms: C_18  and  C_26 
REMARK   10  A    between atoms: C_23  and  C_27 
ROOT
HETATM    1  O   UNK N   1      19.280  14.276   9.693  0.00  0.00    -0.279 OA
HETATM    2  N   UNK N   1      21.363  14.884   9.112  0.00  0.00    -0.206 NA
HETATM    3  C   UNK N   1      22.330  13.842   8.954  0.00  0.00     0.095 A 
HETATM    4  C   UNK N   1      21.266  12.879   9.701  0.00  0.00     0.120 A 
HETATM    5  C   UNK N   1      22.523  13.813   7.404  0.00  0.00     0.043 A 
HETATM    6  C   UNK N   1      20.492  14.151   9.769  0.00  0.00     0.213 A 
HETATM    7  C   UNK N   1      21.645  14.943   6.903  0.00  0.00     0.013 A 
HETATM    8  C   UNK N   1      21.021  15.532   7.916  0.00  0.00     0.105 A 
HETATM    9  C   UNK N   1      22.169  12.471   6.787  0.00  0.00     0.017 C 
ENDROOT
BRANCH   7  10
HETATM   10  S   UNK N   1      21.496  15.387   5.159  0.00  0.00    -0.125 SA
BRANCH  10  11
HETATM   11  C   UNK N   1      22.899  16.541   5.200  0.00  0.00     0.071 C 
HETATM   12  C   UNK N   1      23.812  16.364   4.024  0.00  0.00     0.043 C 
HETATM   13  C   UNK N   1      24.566  17.679   4.012  0.00  0.00     0.096 C 
HETATM   14  N   UNK N   1      23.664  18.690   4.572  0.00  0.00    -0.414 N 
HETATM   15  C   UNK N   1      22.476  17.972   5.032  0.00  0.00     0.129 C 
HETATM   16  H   UNK N   1      23.831  19.694   4.630  0.00  0.00     0.153 HD
BRANCH  13  17
HETATM   17  C   UNK N   1      25.798  17.543   4.908  0.00  0.00     0.158 C 
BRANCH  17  18
HETATM   18  N   UNK N   1      25.978  18.703   5.781  0.00  0.00    -0.301 N 
HETATM   19  H   UNK N   1      25.427  18.887   6.620  0.00  0.00     0.173 HD
BRANCH  18  20
HETATM   20  S   UNK N   1      27.281  19.750   5.183  0.00  0.00     0.312 S 
HETATM   21  O   UNK N   1      25.993  20.582   5.284  0.00  0.00    -0.183 OA
HETATM   22  O   UNK N   1      27.680  19.337   6.608  0.00  0.00    -0.183 OA
BRANCH  20  23
HETATM   23  N   UNK N   1      27.632  21.224   6.085  0.00  0.00    -0.312 N 
HETATM   24  H   UNK N   1      27.018  21.514   6.846  0.00  0.00     0.170 HD
HETATM   25  H   UNK N   1      28.448  21.786   5.846  0.00  0.00     0.170 HD
ENDBRANCH  20  23
ENDBRANCH  18  20
ENDBRANCH  17  18
ENDBRANCH  13  17
ENDBRANCH  10  11
ENDBRANCH   7  10
BRANCH   8  26
HETATM   26  C   UNK N   1      20.055  16.657   7.839  0.00  0.00     0.189 C 
HETATM   27  O   UNK N   1      20.452  17.806   7.955  0.00  0.00    -0.645 OA
BRANCH  26  28
HETATM   28  O   UNK N   1      18.743  16.434   7.635  0.00  0.00    -0.772 OA
HETATM   29  H   UNK N   1      18.293  16.508   6.816  0.00  0.00     0.167 HD
ENDBRANCH  26  28
ENDBRANCH   8  26
BRANCH   4  30
HETATM   30  C   UNK N   1      21.714  12.314  11.050  0.00  0.00     0.128 C 
HETATM   31  C   UNK N   1      20.500  11.905  11.861  0.00  0.00     0.040 C 
BRANCH  30  32
HETATM   32  O   UNK N   1      22.567  11.219  10.901  0.00  0.00    -0.395 OA
HETATM   33  H   UNK N   1      23.256  10.586  10.644  0.00  0.00     0.210 HD
ENDBRANCH  30  32
ENDBRANCH   4  30
TORSDOF 10
ENDMDL
MODEL 2
REMARK VINA RESULT:      -6.5      9.734     11.587
REMARK  10 active torsions:
REMARK  status: ('A' for Active; 'I' for Inactive)
REMARK    1  A    between atoms: S_1  and  C_17 
REMARK    2  A    between atoms: S_1  and  C_21 
REMARK    3  A    between atoms: S_2  and  N_11 
REMARK    4  A    between atoms: S_2  and  N_12 
REMARK    5  A    between atoms: C_19  and  O_4 
REMARK    6  A    between atoms: O_5  and  C_26 
REMARK    7  A    between atoms: N_11  and  C_27 
REMARK    8  A    between atoms: C_14  and  C_19 
REMARK    9  A    between atoms: C_18  and  C_26 
REMARK   10  A    between atoms: C_23  and  C_27 
ROOT
HETATM    1  O   UNK N   1      35.403  17.326  10.518  0.00  0.00    -0.279 OA
HETATM    2  N   UNK N   1      34.548  15.830   9.076  0.00  0.00    -0.206 NA
HETATM    3  C   UNK N   1      33.764  14.766   9.625  0.00  0.00     0.095 A 
HETATM    4  C   UNK N   1      34.362  15.201  11.063  0.00  0.00     0.120 A 
HETATM    5  C   UNK N   1      32.322  15.164   9.175  0.00  0.00     0.043 A 
HETATM    6  C   UNK N   1      35.099  16.183  10.217  0.00  0.00     0.213 A 
HETATM    7  C   UNK N   1      32.528  16.415   8.344  0.00  0.00     0.013 A 
HETATM    8  C   UNK N   1      33.814  16.742   8.304  0.00  0.00     0.105 A 
HETATM    9  C   UNK N   1      31.375  15.380  10.342  0.00  0.00     0.017 C 
ENDROOT
BRANCH   7  10
HETATM   10  S   UNK N   1      31.179  17.309   7.541  0.00  0.00    -0.125 SA
BRANCH  10  11
HETATM   11  C   UNK N   1      31.430  16.502   5.933  0.00  0.00     0.071 C 
HETATM   12  C   UNK N   1      30.382  15.467   5.649  0.00  0.00     0.043 C 
HETATM   13  C   UNK N   1      30.498  15.309   4.145  0.00  0.00     0.096 C 
HETATM   14  N   UNK N   1      30.954  16.598   3.617  0.00  0.00    -0.414 N 
HETATM   15  C   UNK N   1      31.237  17.442   4.778  0.00  0.00     0.129 C 
HETATM   16  H   UNK N   1      31.054  16.857   2.636  0.00  0.00     0.153 HD
BRANCH  13  17
HETATM   17  C   UNK N   1      31.547  14.237   3.847  0.00  0.00     0.158 C 
BRANCH  17  18
HETATM   18  N   UNK N   1      32.174  14.426   2.539  0.00  0.00    -0.301 N 
HETATM   19  H   UNK N   1      31.664  14.591   1.671  0.00  0.00     0.173 HD
BRANCH  18  20
HETATM   20  S   UNK N   1      33.942  14.325   2.663  0.00  0.00     0.312 S 
HETATM   21  O   UNK N   1      33.483  13.447   1.488  0.00  0.00    -0.183 OA
HETATM   22  O   UNK N   1      33.618  15.784   2.306  0.00  0.00    -0.183 OA
BRANCH  20  23
HETATM   23  N   UNK N   1      34.892  14.748   1.239  0.00  0.00    -0.312 N 
HETATM   24  H   UNK N   1      35.741  15.304   1.339  0.00  0.00     0.170 HD
HETATM   25  H   UNK N   1      34.592  14.437   0.315  0.00  0.00     0.170 HD
ENDBRANCH  20  23
ENDBRANCH  18  20
ENDBRANCH  17  18
ENDBRANCH  13  17
ENDBRANCH  10  11
ENDBRANCH   7  10
BRANCH   8  26
HETATM   26  C   UNK N   1      34.419  17.912   7.619  0.00  0.00     0.189 C 
HETATM   27  O   UNK N   1      34.528  17.914   6.403  0.00  0.00    -0.645 OA
BRANCH  26  28
HETATM   28  O   UNK N   1      34.846  18.981   8.318  0.00  0.00    -0.772 OA
HETATM   29  H   UNK N   1      35.056  19.823   7.963  0.00  0.00     0.167 HD
ENDBRANCH  26  28
ENDBRANCH   8  26
BRANCH   4  30
HETATM   30  C   UNK N   1      35.234  14.158  11.763  0.00  0.00     0.128 C 
HETATM   31  C   UNK N   1      36.027  14.819  12.875  0.00  0.00     0.040 C 
BRANCH  30  32
HETATM   32  O   UNK N   1      34.476  13.111  12.289  0.00  0.00    -0.395 OA
HETATM   33  H   UNK N   1      33.842  12.545  12.758  0.00  0.00     0.210 HD
ENDBRANCH  30  32
ENDBRANCH   4  30
TORSDOF 10
ENDMDL
MODEL 3
REMARK VINA RESULT:      -6.1     15.559     16.750
REMARK  10 active torsions:
REMARK  status: ('A' for Active; 'I' for Inactive)
REMARK    1  A    between atoms: S_1  and  C_17 
REMARK    2  A    between atoms: S_1  and  C_21 
REMARK    3  A    between atoms: S_2  and  N_11 
REMARK    4  A    between atoms: S_2  and  N_12 
REMARK    5  A    between atoms: C_19  and  O_4 
REMARK    6  A    between atoms: O_5  and  C_26 
REMARK    7  A    between atoms: N_11  and  C_27 
REMARK    8  A    between atoms: C_14  and  C_19 
REMARK    9  A    between atoms: C_18  and  C_26 
REMARK   10  A    between atoms: C_23  and  C_27 
ROOT
HETATM    1  O   UNK N   1      32.610  19.952  -6.625  0.00  0.00    -0.279 OA
HETATM    2  N   UNK N   1      30.719  20.307  -5.463  0.00  0.00    -0.206 NA
HETATM    3  C   UNK N   1      30.764  21.287  -4.423  0.00  0.00     0.095 A 
HETATM    4  C   UNK N   1      32.373  21.224  -4.570  0.00  0.00     0.120 A 
HETATM    5  C   UNK N   1      29.923  22.450  -5.040  0.00  0.00     0.043 A 
HETATM    6  C   UNK N   1      32.023  20.185  -5.579  0.00  0.00     0.213 A 
HETATM    7  C   UNK N   1      29.452  21.898  -6.370  0.00  0.00     0.013 A 
HETATM    8  C   UNK N   1      29.918  20.668  -6.556  0.00  0.00     0.105 A 
HETATM    9  C   UNK N   1      30.710  23.741  -5.181  0.00  0.00     0.017 C 
ENDROOT
BRANCH   7  10
HETATM   10  S   UNK N   1      28.407  22.823  -7.517  0.00  0.00    -0.125 SA
BRANCH  10  11
HETATM   11  C   UNK N   1      27.329  23.477  -6.208  0.00  0.00     0.071 C 
HETATM   12  C   UNK N   1      27.251  24.974  -6.236  0.00  0.00     0.043 C 
HETATM   13  C   UNK N   1      25.987  25.237  -5.438  0.00  0.00     0.096 C 
HETATM   14  N   UNK N   1      25.113  24.077  -5.638  0.00  0.00    -0.414 N 
HETATM   15  C   UNK N   1      25.888  23.103  -6.405  0.00  0.00     0.129 C 
HETATM   16  H   UNK N   1      24.154  23.971  -5.309  0.00  0.00     0.153 HD
BRANCH  13  17
HETATM   17  C   UNK N   1      26.359  25.346  -3.959  0.00  0.00     0.158 C 
BRANCH  17  18
HETATM   18  N   UNK N   1      26.884  26.668  -3.617  0.00  0.00    -0.301 N 
HETATM   19  H   UNK N   1      27.703  26.831  -3.031  0.00  0.00     0.173 HD
BRANCH  18  20
HETATM   20  S   UNK N   1      25.904  27.951  -4.356  0.00  0.00     0.312 S 
HETATM   21  O   UNK N   1      25.513  27.828  -2.875  0.00  0.00    -0.183 OA
HETATM   22  O   UNK N   1      27.361  28.435  -4.412  0.00  0.00    -0.183 OA
BRANCH  20  23
HETATM   23  N   UNK N   1      25.960  29.554  -3.624  0.00  0.00    -0.312 N 
HETATM   24  H   UNK N   1      26.665  29.768  -2.919  0.00  0.00     0.170 HD
HETATM   25  H   UNK N   1      25.287  30.266  -3.905  0.00  0.00     0.170 HD
ENDBRANCH  20  23
ENDBRANCH  18  20
ENDBRANCH  17  18
ENDBRANCH  13  17
ENDBRANCH  10  11
ENDBRANCH   7  10
BRANCH   8  26
HETATM   26  C   UNK N   1      29.704  19.801  -7.742  0.00  0.00     0.189 C 
HETATM   27  O   UNK N   1      28.861  18.919  -7.704  0.00  0.00    -0.645 OA
BRANCH  26  28
HETATM   28  O   UNK N   1      30.423  19.974  -8.867  0.00  0.00    -0.772 OA
HETATM   29  H   UNK N   1      30.118  19.833  -9.742  0.00  0.00     0.167 HD
ENDBRANCH  26  28
ENDBRANCH   8  26
BRANCH   4  30
HETATM   30  C   UNK N   1      33.133  20.714  -3.344  0.00  0.00     0.128 C 
HETATM   31  C   UNK N   1      34.621  20.929  -3.540  0.00  0.00     0.040 C 
BRANCH  30  32
HETATM   32  O   UNK N   1      32.720  21.349  -2.172  0.00  0.00    -0.395 OA
HETATM   33  H   UNK N   1      32.623  21.899  -1.378  0.00  0.00     0.210 HD
ENDBRANCH  30  32
ENDBRANCH   4  30
TORSDOF 10
ENDMDL
MODEL 4
REMARK VINA RESULT:      -5.9     11.038     12.969
REMARK  10 active torsions:
REMARK  status: ('A' for Active; 'I' for Inactive)
REMARK    1  A    between atoms: S_1  and  C_17 
REMARK    2  A    between atoms: S_1  and  C_21 
REMARK    3  A    between atoms: S_2  and  N_11 
REMARK    4  A    between atoms: S_2  and  N_12 
REMARK    5  A    between atoms: C_19  and  O_4 
REMARK    6  A    between atoms: O_5  and  C_26 
REMARK    7  A    between atoms: N_11  and  C_27 
REMARK    8  A    between atoms: C_14  and  C_19 
REMARK    9  A    between atoms: C_18  and  C_26 
REMARK   10  A    between atoms: C_23  and  C_27 
ROOT
HETATM    1  O   UNK N   1      35.210  11.166  12.176  0.00  0.00    -0.279 OA
HETATM    2  N   UNK N   1      34.749  13.166  11.261  0.00  0.00    -0.206 NA
HETATM    3  C   UNK N   1      35.698  14.216  11.470  0.00  0.00     0.095 A 
HETATM    4  C   UNK N   1      36.345  13.268  12.609  0.00  0.00     0.120 A 
HETATM    5  C   UNK N   1      36.338  14.358  10.053  0.00  0.00     0.043 A 
HETATM    6  C   UNK N   1      35.211  12.386  12.214  0.00  0.00     0.213 A 
HETATM    7  C   UNK N   1      35.570  13.367   9.201  0.00  0.00     0.013 A 
HETATM    8  C   UNK N   1      34.665  12.727   9.932  0.00  0.00     0.105 A 
HETATM    9  C   UNK N   1      37.835  14.104  10.049  0.00  0.00     0.017 C 
ENDROOT
BRANCH   7  10
HETATM   10  S   UNK N   1      35.880  13.119   7.439  0.00  0.00    -0.125 SA
BRANCH  10  11
HETATM   11  C   UNK N   1      34.770  14.462   6.924  0.00  0.00     0.071 C 
HETATM   12  C   UNK N   1      35.179  15.063   5.612  0.00  0.00     0.043 C 
HETATM   13  C   UNK N   1      33.904  15.760   5.176  0.00  0.00     0.096 C 
HETATM   14  N   UNK N   1      32.789  14.999   5.747  0.00  0.00    -0.414 N 
HETATM   15  C   UNK N   1      33.385  13.977   6.607  0.00  0.00     0.129 C 
HETATM   16  H   UNK N   1      31.795  15.151   5.578  0.00  0.00     0.153 HD
BRANCH  13  17
HETATM   17  C   UNK N   1      33.903  17.177   5.752  0.00  0.00     0.158 C 
BRANCH  17  18
HETATM   18  N   UNK N   1      32.759  17.414   6.633  0.00  0.00    -0.301 N 
HETATM   19  H   UNK N   1      31.800  17.134   6.424  0.00  0.00     0.173 HD
BRANCH  18  20
HETATM   20  S   UNK N   1      33.263  18.255   8.113  0.00  0.00     0.312 S 
HETATM   21  O   UNK N   1      32.825  16.829   8.485  0.00  0.00    -0.183 OA
HETATM   22  O   UNK N   1      34.518  18.140   7.235  0.00  0.00    -0.183 OA
BRANCH  20  23
HETATM   23  N   UNK N   1      34.529  17.513   9.090  0.00  0.00    -0.312 N 
HETATM   24  H   UNK N   1      34.283  16.968   9.916  0.00  0.00     0.170 HD
HETATM   25  H   UNK N   1      35.508  17.629   8.829  0.00  0.00     0.170 HD
ENDBRANCH  20  23
ENDBRANCH  18  20
ENDBRANCH  17  18
ENDBRANCH  13  17
ENDBRANCH  10  11
ENDBRANCH   7  10
BRANCH   8  26
HETATM   26  C   UNK N   1      33.736  11.663   9.475  0.00  0.00     0.189 C 
HETATM   27  O   UNK N   1      34.177  10.576   9.137  0.00  0.00    -0.645 OA
BRANCH  26  28
HETATM   28  O   UNK N   1      32.406  11.873   9.434  0.00  0.00    -0.772 OA
HETATM   29  H   UNK N   1      31.966  12.506   8.901  0.00  0.00     0.167 HD
ENDBRANCH  26  28
ENDBRANCH   8  26
BRANCH   4  30
HETATM   30  C   UNK N   1      36.285  13.810  14.039  0.00  0.00     0.128 C 
HETATM   31  C   UNK N   1      36.920  12.814  14.990  0.00  0.00     0.040 C 
BRANCH  30  32
HETATM   32  O   UNK N   1      36.926  15.044  14.157  0.00  0.00    -0.395 OA
HETATM   33  H   UNK N   1      37.496  15.795  14.387  0.00  0.00     0.210 HD
ENDBRANCH  30  32
ENDBRANCH   4  30
TORSDOF 10
ENDMDL
MODEL 5
REMARK VINA RESULT:      -5.8      8.996     11.798
REMARK  10 active torsions:
REMARK  status: ('A' for Active; 'I' for Inactive)
REMARK    1  A    between atoms: S_1  and  C_17 
REMARK    2  A    between atoms: S_1  and  C_21 
REMARK    3  A    between atoms: S_2  and  N_11 
REMARK    4  A    between atoms: S_2  and  N_12 
REMARK    5  A    between atoms: C_19  and  O_4 
REMARK    6  A    between atoms: O_5  and  C_26 
REMARK    7  A    between atoms: N_11  and  C_27 
REMARK    8  A    between atoms: C_14  and  C_19 
REMARK    9  A    between atoms: C_18  and  C_26 
REMARK   10  A    between atoms: C_23  and  C_27 
ROOT
HETATM    1  O   UNK N   1      33.548  15.052  11.144  0.00  0.00    -0.279 OA
HETATM    2  N   UNK N   1      35.474  15.381  10.033  0.00  0.00    -0.206 NA
HETATM    3  C   UNK N   1      36.271  14.228   9.749  0.00  0.00     0.095 A 
HETATM    4  C   UNK N   1      35.338  13.445  10.812  0.00  0.00     0.120 A 
HETATM    5  C   UNK N   1      36.075  14.073   8.207  0.00  0.00     0.043 A 
HETATM    6  C   UNK N   1      34.726  14.797  10.943  0.00  0.00     0.213 A 
HETATM    7  C   UNK N   1      35.210  15.258   7.825  0.00  0.00     0.013 A 
HETATM    8  C   UNK N   1      34.911  15.981   8.898  0.00  0.00     0.105 A 
HETATM    9  C   UNK N   1      35.457  12.742   7.818  0.00  0.00     0.017 C 
ENDROOT
BRANCH   7  10
HETATM   10  S   UNK N   1      34.680  15.598   6.132  0.00  0.00    -0.125 SA
BRANCH  10  11
HETATM   11  C   UNK N   1      32.913  15.425   6.514  0.00  0.00     0.071 C 
HETATM   12  C   UNK N   1      32.069  16.396   5.745  0.00  0.00     0.043 C 
HETATM   13  C   UNK N   1      30.694  15.761   5.839  0.00  0.00     0.096 C 
HETATM   14  N   UNK N   1      30.903  14.314   5.943  0.00  0.00    -0.414 N 
HETATM   15  C   UNK N   1      32.348  14.112   6.052  0.00  0.00     0.129 C 
HETATM   16  H   UNK N   1      30.185  13.591   5.939  0.00  0.00     0.153 HD
BRANCH  13  17
HETATM   17  C   UNK N   1      30.010  16.269   7.108  0.00  0.00     0.158 C 
BRANCH  17  18
HETATM   18  N   UNK N   1      30.427  17.628   7.456  0.00  0.00    -0.301 N 
HETATM   19  H   UNK N   1      31.230  18.108   7.050  0.00  0.00     0.173 HD
BRANCH  18  20
HETATM   20  S   UNK N   1      29.348  18.329   8.679  0.00  0.00     0.312 S 
HETATM   21  O   UNK N   1      29.633  16.867   9.057  0.00  0.00    -0.183 OA
HETATM   22  O   UNK N   1      30.673  19.101   8.780  0.00  0.00    -0.183 OA
BRANCH  20  23
HETATM   23  N   UNK N   1      29.869  18.273  10.363  0.00  0.00    -0.312 N 
HETATM   24  H   UNK N   1      29.653  19.048  10.989  0.00  0.00     0.170 HD
HETATM   25  H   UNK N   1      30.387  17.466  10.710  0.00  0.00     0.170 HD
ENDBRANCH  20  23
ENDBRANCH  18  20
ENDBRANCH  17  18
ENDBRANCH  13  17
ENDBRANCH  10  11
ENDBRANCH   7  10
BRANCH   8  26
HETATM   26  C   UNK N   1      34.065  17.201   8.947  0.00  0.00     0.189 C 
HETATM   27  O   UNK N   1      34.552  18.288   8.679  0.00  0.00    -0.645 OA
BRANCH  26  28
HETATM   28  O   UNK N   1      32.761  17.129   9.276  0.00  0.00    -0.772 OA
HETATM   29  H   UNK N   1      32.170  16.442   9.035  0.00  0.00     0.167 HD
ENDBRANCH  26  28
ENDBRANCH   8  26
BRANCH   4  30
HETATM   30  C   UNK N   1      36.047  12.925  12.064  0.00  0.00     0.128 C 
HETATM   31  C   UNK N   1      36.307  11.438  11.923  0.00  0.00     0.040 C 
BRANCH  30  32
HETATM   32  O   UNK N   1      37.253  13.590  12.294  0.00  0.00    -0.395 OA
HETATM   33  H   UNK N   1      38.127  14.009  12.242  0.00  0.00     0.210 HD
ENDBRANCH  30  32
ENDBRANCH   4  30
TORSDOF 10
ENDMDL
MODEL 6
REMARK VINA RESULT:      -5.8      3.698      5.247
REMARK  10 active torsions:
REMARK  status: ('A' for Active; 'I' for Inactive)
REMARK    1  A    between atoms: S_1  and  C_17 
REMARK    2  A    between atoms: S_1  and  C_21 
REMARK    3  A    between atoms: S_2  and  N_11 
REMARK    4  A    between atoms: S_2  and  N_12 
REMARK    5  A    between atoms: C_19  and  O_4 
REMARK    6  A    between atoms: O_5  and  C_26 
REMARK    7  A    between atoms: N_11  and  C_27 
REMARK    8  A    between atoms: C_14  and  C_19 
REMARK    9  A    between atoms: C_18  and  C_26 
REMARK   10  A    between atoms: C_23  and  C_27 
ROOT
HETATM    1  O   UNK N   1      21.017  17.441   6.244  0.00  0.00    -0.279 OA
HETATM    2  N   UNK N   1      22.068  15.462   6.414  0.00  0.00    -0.206 NA
HETATM    3  C   UNK N   1      21.307  14.357   6.911  0.00  0.00     0.095 A 
HETATM    4  C   UNK N   1      20.212  15.451   7.379  0.00  0.00     0.120 A 
HETATM    5  C   UNK N   1      21.113  13.495   5.623  0.00  0.00     0.043 A 
HETATM    6  C   UNK N   1      21.230  16.388   6.825  0.00  0.00     0.213 A 
HETATM    7  C   UNK N   1      21.889  14.244   4.558  0.00  0.00     0.013 A 
HETATM    8  C   UNK N   1      22.428  15.348   5.064  0.00  0.00     0.105 A 
HETATM    9  C   UNK N   1      19.653  13.292   5.258  0.00  0.00     0.017 C 
ENDROOT
BRANCH   7  10
HETATM   10  S   UNK N   1      22.030  13.680   2.848  0.00  0.00    -0.125 SA
BRANCH  10  11
HETATM   11  C   UNK N   1      20.703  14.766   2.246  0.00  0.00     0.071 C 
HETATM   12  C   UNK N   1      21.153  15.630   1.106  0.00  0.00     0.043 C 
HETATM   13  C   UNK N   1      19.831  16.046   0.487  0.00  0.00     0.096 C 
HETATM   14  N   UNK N   1      18.883  14.959   0.748  0.00  0.00    -0.414 N 
HETATM   15  C   UNK N   1      19.576  14.004   1.612  0.00  0.00     0.129 C 
HETATM   16  H   UNK N   1      17.929  14.883   0.396  0.00  0.00     0.153 HD
BRANCH  13  17
HETATM   17  C   UNK N   1      19.349  17.320   1.180  0.00  0.00     0.158 C 
BRANCH  17  18
HETATM   18  N   UNK N   1      20.436  18.273   1.404  0.00  0.00    -0.301 N 
HETATM   19  H   UNK N   1      21.347  18.230   0.947  0.00  0.00     0.173 HD
BRANCH  18  20
HETATM   20  S   UNK N   1      19.959  19.515   2.581  0.00  0.00     0.312 S 
HETATM   21  O   UNK N   1      19.863  18.137   3.256  0.00  0.00    -0.183 OA
HETATM   22  O   UNK N   1      21.440  19.772   2.260  0.00  0.00    -0.183 OA
BRANCH  20  23
HETATM   23  N   UNK N   1      20.832  19.575   4.111  0.00  0.00    -0.312 N 
HETATM   24  H   UNK N   1      21.306  18.743   4.462  0.00  0.00     0.170 HD
HETATM   25  H   UNK N   1      20.863  20.443   4.647  0.00  0.00     0.170 HD
ENDBRANCH  20  23
ENDBRANCH  18  20
ENDBRANCH  17  18
ENDBRANCH  13  17
ENDBRANCH  10  11
ENDBRANCH   7  10
BRANCH   8  26
HETATM   26  C   UNK N   1      23.235  16.361   4.340  0.00  0.00     0.189 C 
HETATM   27  O   UNK N   1      24.453  16.277   4.336  0.00  0.00    -0.645 OA
BRANCH  26  28
HETATM   28  O   UNK N   1      22.646  17.375   3.677  0.00  0.00    -0.772 OA
HETATM   29  H   UNK N   1      23.054  18.181   3.429  0.00  0.00     0.167 HD
ENDBRANCH  26  28
ENDBRANCH   8  26
BRANCH   4  30
HETATM   30  C   UNK N   1      19.980  15.557   8.888  0.00  0.00     0.128 C 
HETATM   31  C   UNK N   1      18.900  16.583   9.168  0.00  0.00     0.040 C 
BRANCH  30  32
HETATM   32  O   UNK N   1      19.616  14.330   9.447  0.00  0.00    -0.395 OA
HETATM   33  H   UNK N   1      19.573  13.473   9.900  0.00  0.00     0.210 HD
ENDBRANCH  30  32
ENDBRANCH   4  30
TORSDOF 10
ENDMDL
MODEL 7
REMARK VINA RESULT:      -5.7      9.925     13.048
REMARK  10 active torsions:
REMARK  status: ('A' for Active; 'I' for Inactive)
REMARK    1  A    between atoms: S_1  and  C_17 
REMARK    2  A    between atoms: S_1  and  C_21 
REMARK    3  A    between atoms: S_2  and  N_11 
REMARK    4  A    between atoms: S_2  and  N_12 
REMARK    5  A    between atoms: C_19  and  O_4 
REMARK    6  A    between atoms: O_5  and  C_26 
REMARK    7  A    between atoms: N_11  and  C_27 
REMARK    8  A    between atoms: C_14  and  C_19 
REMARK    9  A    between atoms: C_18  and  C_26 
REMARK   10  A    between atoms: C_23  and  C_27 
ROOT
HETATM    1  O   UNK N   1      34.398  17.806   6.048  0.00  0.00    -0.279 OA
HETATM    2  N   UNK N   1      32.835  17.537   7.639  0.00  0.00    -0.206 NA
HETATM    3  C   UNK N   1      31.773  16.618   7.366  0.00  0.00     0.095 A 
HETATM    4  C   UNK N   1      32.270  16.657   5.827  0.00  0.00     0.120 A 
HETATM    5  C   UNK N   1      32.124  15.430   8.316  0.00  0.00     0.043 A 
HETATM    6  C   UNK N   1      33.239  17.640   6.392  0.00  0.00     0.213 A 
HETATM    7  C   UNK N   1      33.350  15.909   9.069  0.00  0.00     0.013 A 
HETATM    8  C   UNK N   1      33.703  17.121   8.658  0.00  0.00     0.105 A 
HETATM    9  C   UNK N   1      32.357  14.125   7.575  0.00  0.00     0.017 C 
ENDROOT
BRANCH   7  10
HETATM   10  S   UNK N   1      34.185  14.930  10.335  0.00  0.00    -0.125 SA
BRANCH  10  11
HETATM   11  C   UNK N   1      35.318  14.136   9.157  0.00  0.00     0.071 C 
HETATM   12  C   UNK N   1      36.756  14.381   9.503  0.00  0.00     0.043 C 
HETATM   13  C   UNK N   1      37.456  13.277   8.732  0.00  0.00     0.096 C 
HETATM   14  N   UNK N   1      36.512  12.159   8.644  0.00  0.00    -0.414 N 
HETATM   15  C   UNK N   1      35.252  12.637   9.213  0.00  0.00     0.129 C 
HETATM   16  H   UNK N   1      36.697  11.232   8.262  0.00  0.00     0.153 HD
BRANCH  13  17
HETATM   17  C   UNK N   1      37.772  13.790   7.326  0.00  0.00     0.158 C 
BRANCH  17  18
HETATM   18  N   UNK N   1      37.379  12.836   6.289  0.00  0.00    -0.301 N 
HETATM   19  H   UNK N   1      37.550  11.831   6.332  0.00  0.00     0.173 HD
BRANCH  18  20
HETATM   20  S   UNK N   1      36.565  13.662   4.944  0.00  0.00     0.312 S 
HETATM   21  O   UNK N   1      35.500  12.971   5.811  0.00  0.00    -0.183 OA
HETATM   22  O   UNK N   1      37.214  14.763   5.796  0.00  0.00    -0.183 OA
BRANCH  20  23
HETATM   23  N   UNK N   1      35.312  14.837   5.339  0.00  0.00    -0.312 N 
HETATM   24  H   UNK N   1      35.362  15.782   4.960  0.00  0.00     0.170 HD
HETATM   25  H   UNK N   1      34.536  14.571   5.946  0.00  0.00     0.170 HD
ENDBRANCH  20  23
ENDBRANCH  18  20
ENDBRANCH  17  18
ENDBRANCH  13  17
ENDBRANCH  10  11
ENDBRANCH   7  10
BRANCH   8  26
HETATM   26  C   UNK N   1      34.863  17.921   9.127  0.00  0.00     0.189 C 
HETATM   27  O   UNK N   1      35.494  17.558  10.107  0.00  0.00    -0.645 OA
BRANCH  26  28
HETATM   28  O   UNK N   1      35.239  19.043   8.484  0.00  0.00    -0.772 OA
HETATM   29  H   UNK N   1      35.191  19.189   7.559  0.00  0.00     0.167 HD
ENDBRANCH  26  28
ENDBRANCH   8  26
BRANCH   4  30
HETATM   30  C   UNK N   1      31.272  17.230   4.820  0.00  0.00     0.128 C 
HETATM   31  C   UNK N   1      31.878  17.207   3.430  0.00  0.00     0.040 C 
BRANCH  30  32
HETATM   32  O   UNK N   1      30.069  16.521   4.817  0.00  0.00    -0.395 OA
HETATM   33  H   UNK N   1      29.151  16.216   4.896  0.00  0.00     0.210 HD
ENDBRANCH  30  32
ENDBRANCH   4  30
TORSDOF 10
ENDMDL
MODEL 8
REMARK VINA RESULT:      -5.7      6.686     10.116
REMARK  10 active torsions:
REMARK  status: ('A' for Active; 'I' for Inactive)
REMARK    1  A    between atoms: S_1  and  C_17 
REMARK    2  A    between atoms: S_1  and  C_21 
REMARK    3  A    between atoms: S_2  and  N_11 
REMARK    4  A    between atoms: S_2  and  N_12 
REMARK    5  A    between atoms: C_19  and  O_4 
REMARK    6  A    between atoms: O_5  and  C_26 
REMARK    7  A    between atoms: N_11  and  C_27 
REMARK    8  A    between atoms: C_14  and  C_19 
REMARK    9  A    between atoms: C_18  and  C_26 
REMARK   10  A    between atoms: C_23  and  C_27 
ROOT
HETATM    1  O   UNK N   1      26.954  17.298   3.354  0.00  0.00    -0.279 OA
HETATM    2  N   UNK N   1      28.680  18.232   4.448  0.00  0.00    -0.206 NA
HETATM    3  C   UNK N   1      28.416  18.783   5.741  0.00  0.00     0.095 A 
HETATM    4  C   UNK N   1      26.848  18.660   5.362  0.00  0.00     0.120 A 
HETATM    5  C   UNK N   1      29.121  17.753   6.680  0.00  0.00     0.043 A 
HETATM    6  C   UNK N   1      27.420  18.164   4.078  0.00  0.00     0.213 A 
HETATM    7  C   UNK N   1      29.767  16.767   5.727  0.00  0.00     0.013 A 
HETATM    8  C   UNK N   1      29.500  17.094   4.467  0.00  0.00     0.105 A 
HETATM    9  C   UNK N   1      28.167  17.092   7.659  0.00  0.00     0.017 C 
ENDROOT
BRANCH   7  10
HETATM   10  S   UNK N   1      30.748  15.353   6.273  0.00  0.00    -0.125 SA
BRANCH  10  11
HETATM   11  C   UNK N   1      32.110  16.378   6.901  0.00  0.00     0.071 C 
HETATM   12  C   UNK N   1      33.137  15.568   7.633  0.00  0.00     0.043 C 
HETATM   13  C   UNK N   1      34.338  16.495   7.619  0.00  0.00     0.096 C 
HETATM   14  N   UNK N   1      34.228  17.309   6.404  0.00  0.00    -0.414 N 
HETATM   15  C   UNK N   1      32.938  16.977   5.801  0.00  0.00     0.129 C 
HETATM   16  H   UNK N   1      34.914  17.974   6.050  0.00  0.00     0.153 HD
BRANCH  13  17
HETATM   17  C   UNK N   1      34.268  17.402   8.848  0.00  0.00     0.158 C 
BRANCH  17  18
HETATM   18  N   UNK N   1      34.205  16.639  10.095  0.00  0.00    -0.301 N 
HETATM   19  H   UNK N   1      33.471  16.737  10.797  0.00  0.00     0.173 HD
BRANCH  18  20
HETATM   20  S   UNK N   1      35.578  15.520  10.224  0.00  0.00     0.312 S 
HETATM   21  O   UNK N   1      36.052  16.927  10.623  0.00  0.00    -0.183 OA
HETATM   22  O   UNK N   1      34.550  15.064  11.271  0.00  0.00    -0.183 OA
BRANCH  20  23
HETATM   23  N   UNK N   1      36.409  15.416  11.776  0.00  0.00    -0.312 N 
HETATM   24  H   UNK N   1      37.349  15.023  11.825  0.00  0.00     0.170 HD
HETATM   25  H   UNK N   1      35.950  15.747  12.624  0.00  0.00     0.170 HD
ENDBRANCH  20  23
ENDBRANCH  18  20
ENDBRANCH  17  18
ENDBRANCH  13  17
ENDBRANCH  10  11
ENDBRANCH   7  10
BRANCH   8  26
HETATM   26  C   UNK N   1      29.926  16.366   3.245  0.00  0.00     0.189 C 
HETATM   27  O   UNK N   1      29.464  15.262   3.006  0.00  0.00    -0.645 OA
BRANCH  26  28
HETATM   28  O   UNK N   1      30.811  16.908   2.388  0.00  0.00    -0.772 OA
HETATM   29  H   UNK N   1      31.705  16.645   2.281  0.00  0.00     0.167 HD
ENDBRANCH  26  28
ENDBRANCH   8  26
BRANCH   4  30
HETATM   30  C   UNK N   1      26.081  19.980   5.268  0.00  0.00     0.128 C 
HETATM   31  C   UNK N   1      24.796  19.770   4.491  0.00  0.00     0.040 C 
BRANCH  30  32
HETATM   32  O   UNK N   1      25.785  20.502   6.528  0.00  0.00    -0.395 OA
HETATM   33  H   UNK N   1      25.530  21.047   7.290  0.00  0.00     0.210 HD
ENDBRANCH  30  32
ENDBRANCH   4  30
TORSDOF 10
ENDMDL
MODEL 9
REMARK VINA RESULT:      -5.6     10.383     12.486
REMARK  10 active torsions:
REMARK  status: ('A' for Active; 'I' for Inactive)
REMARK    1  A    between atoms: S_1  and  C_17 
REMARK    2  A    between atoms: S_1  and  C_21 
REMARK    3  A    between atoms: S_2  and  N_11 
REMARK    4  A    between atoms: S_2  and  N_12 
REMARK    5  A    between atoms: C_19  and  O_4 
REMARK    6  A    between atoms: O_5  and  C_26 
REMARK    7  A    between atoms: N_11  and  C_27 
REMARK    8  A    between atoms: C_14  and  C_19 
REMARK    9  A    between atoms: C_18  and  C_26 
REMARK   10  A    between atoms: C_23  and  C_27 
ROOT
HETATM    1  O   UNK N   1      35.713  10.644  11.467  0.00  0.00    -0.279 OA
HETATM    2  N   UNK N   1      34.693  12.644  11.390  0.00  0.00    -0.206 NA
HETATM    3  C   UNK N   1      35.451  13.783  11.808  0.00  0.00     0.095 A 
HETATM    4  C   UNK N   1      36.504  12.726  12.433  0.00  0.00     0.120 A 
HETATM    5  C   UNK N   1      35.717  14.509  10.451  0.00  0.00     0.043 A 
HETATM    6  C   UNK N   1      35.494  11.753  11.929  0.00  0.00     0.213 A 
HETATM    7  C   UNK N   1      34.975  13.667   9.431  0.00  0.00     0.013 A 
HETATM    8  C   UNK N   1      34.395  12.628  10.020  0.00  0.00     0.105 A 
HETATM    9  C   UNK N   1      37.195  14.653  10.134  0.00  0.00     0.017 C 
ENDROOT
BRANCH   7  10
HETATM   10  S   UNK N   1      34.921  14.058   7.669  0.00  0.00    -0.125 SA
BRANCH  10  11
HETATM   11  C   UNK N   1      33.496  15.174   7.830  0.00  0.00     0.071 C 
HETATM   12  C   UNK N   1      33.794  16.550   7.316  0.00  0.00     0.043 C 
HETATM   13  C   UNK N   1      32.403  17.113   7.099  0.00  0.00     0.096 C 
HETATM   14  N   UNK N   1      31.532  15.977   6.783  0.00  0.00    -0.414 N 
HETATM   15  C   UNK N   1      32.347  14.774   6.950  0.00  0.00     0.129 C 
HETATM   16  H   UNK N   1      30.553  16.016   6.503  0.00  0.00     0.153 HD
BRANCH  13  17
HETATM   17  C   UNK N   1      31.934  17.768   8.399  0.00  0.00     0.158 C 
BRANCH  17  18
HETATM   18  N   UNK N   1      30.688  17.183   8.895  0.00  0.00    -0.301 N 
HETATM   19  H   UNK N   1      30.491  16.182   8.929  0.00  0.00     0.173 HD
BRANCH  18  20
HETATM   20  S   UNK N   1      29.561  18.448   9.426  0.00  0.00     0.312 S 
HETATM   21  O   UNK N   1      29.204  18.048   7.986  0.00  0.00    -0.183 OA
HETATM   22  O   UNK N   1      29.297  17.231  10.325  0.00  0.00    -0.183 OA
BRANCH  20  23
HETATM   23  N   UNK N   1      27.835  18.097   9.352  0.00  0.00    -0.312 N 
HETATM   24  H   UNK N   1      27.156  18.844   9.491  0.00  0.00     0.170 HD
HETATM   25  H   UNK N   1      27.516  17.145   9.169  0.00  0.00     0.170 HD
ENDBRANCH  20  23
ENDBRANCH  18  20
ENDBRANCH  17  18
ENDBRANCH  13  17
ENDBRANCH  10  11
ENDBRANCH   7  10
BRANCH   8  26
HETATM   26  C   UNK N   1      33.601  11.557   9.365  0.00  0.00     0.189 C 
HETATM   27  O   UNK N   1      34.160  10.737   8.653  0.00  0.00    -0.645 OA
BRANCH  26  28
HETATM   28  O   UNK N   1      32.270  11.470   9.547  0.00  0.00    -0.772 OA
HETATM   29  H   UNK N   1      31.642  12.136   9.346  0.00  0.00     0.167 HD
ENDBRANCH  26  28
ENDBRANCH   8  26
BRANCH   4  30
HETATM   30  C   UNK N   1      36.667  12.770  13.953  0.00  0.00     0.128 C 
HETATM   31  C   UNK N   1      37.636  11.690  14.394  0.00  0.00     0.040 C 
BRANCH  30  32
HETATM   32  O   UNK N   1      37.122  14.014  14.394  0.00  0.00    -0.395 OA
HETATM   33  H   UNK N   1      37.499  14.903  14.490  0.00  0.00     0.210 HD
ENDBRANCH  30  32
ENDBRANCH   4  30
TORSDOF 10
ENDMDL
