MODEL 1
REMARK VINA RESULT:      -8.1      0.000      0.000
REMARK  6 active torsions:
REMARK  status: ('A' for Active; 'I' for Inactive)
REMARK    1  A    between atoms: C_15  and  C_9 
REMARK    2  A    between atoms: C_19  and  C_12 
REMARK    3  A    between atoms: S_31  and  C_16 
REMARK    4  A    between atoms: C_22  and  C_18 
REMARK    5  A    between atoms: S_31  and  C_21 
REMARK    6  A    between atoms: O_30  and  C_22 
ROOT
HETATM    1  C   UNK N   1      35.387  12.957  11.051  0.00  0.00     0.020 A 
HETATM    2  C   UNK N   1      34.831  13.703   9.999  0.00  0.00     0.017 A 
HETATM    3  C   UNK N   1      35.866  15.012  12.292  0.00  0.00     0.050 A 
HETATM    4  C   UNK N   1      35.912  13.600  12.198  0.00  0.00     0.007 A 
HETATM    5  C   UNK N   1      34.818  15.086  10.130  0.00  0.00     0.020 A 
HETATM    6  C   UNK N   1      34.451  16.087   9.269  0.00  0.00     0.060 A 
HETATM    7  C   UNK N   1      35.293  15.717  11.236  0.00  0.00     0.061 A 
HETATM    8  N   UNK N   1      34.683  17.279   9.867  0.00  0.00    -0.299 N 
HETATM    9  N   UNK N   1      35.196  17.050  11.079  0.00  0.00    -0.299 N 
ATOM     10  HN  UNK N   1      35.466  17.758  11.762  1.00  0.00     0.187 HD
HETATM   11  H   UNK N   1      34.505  18.165   9.475  0.00  0.00     0.187 HD
ENDROOT
BRANCH   4  12
HETATM   12  S   UNK N   1      36.839  12.596  13.379  0.00  0.00    -0.090 SA
BRANCH  12  13
HETATM   13  C   UNK N   1      36.151  13.172  14.946  0.00  0.00     0.020 A 
HETATM   14  C   UNK N   1      36.825  14.216  15.593  0.00  0.00     0.020 A 
HETATM   15  C   UNK N   1      36.470  14.621  16.876  0.00  0.00     0.001 A 
HETATM   16  C   UNK N   1      35.464  13.948  17.558  0.00  0.00     0.001 A 
HETATM   17  C   UNK N   1      34.801  12.886  16.949  0.00  0.00     0.017 A 
HETATM   18  C   UNK N   1      35.101  12.487  15.636  0.00  0.00     0.032 A 
BRANCH  18  19
HETATM   19  C   UNK N   1      34.343  11.297  15.124  0.00  0.00     0.147 C 
HETATM   20  N   UNK N   1      34.613  10.066  15.421  0.00  0.00    -0.375 N 
HETATM   21  C   UNK N   1      35.732   9.624  16.208  0.00  0.00     0.148 C 
ATOM     22  HN  UNK N   1      33.979   9.350  15.066  1.00  0.00     0.161 HD
BRANCH  19  23
HETATM   23  O   UNK N   1      33.369  11.523  14.220  0.00  0.00    -0.346 OA
HETATM   24  H   UNK N   1      33.462  11.216  13.339  0.00  0.00     0.219 HD
ENDBRANCH  19  23
ENDBRANCH  18  19
ENDBRANCH  12  13
ENDBRANCH   4  12
BRANCH   6  25
HETATM   25  C   UNK N   1      34.008  15.876   7.880  0.00  0.00     0.034 C 
HETATM   26  C   UNK N   1      33.978  16.858   6.966  0.00  0.00     0.032 C 
BRANCH  26  27
HETATM   27  C   UNK N   1      33.645  16.564   5.554  0.00  0.00     0.031 A 
HETATM   28  C   UNK N   1      32.954  17.507   4.787  0.00  0.00     0.029 A 
HETATM   29  C   UNK N   1      32.692  17.238   3.442  0.00  0.00     0.004 A 
HETATM   30  C   UNK N   1      33.122  16.038   2.875  0.00  0.00     0.017 A 
HETATM   31  C   UNK N   1      33.809  15.118   3.667  0.00  0.00     0.088 A 
HETATM   32  N   UNK N   1      34.057  15.398   4.975  0.00  0.00    -0.366 N 
ATOM     33  HN  UNK N   1      34.566  14.717   5.539  1.00  0.00     0.165 HD
ENDBRANCH  26  27
ENDBRANCH   6  25
TORSDOF 6
ENDMDL
MODEL 2
REMARK VINA RESULT:      -8.0      7.569     10.865
REMARK  6 active torsions:
REMARK  status: ('A' for Active; 'I' for Inactive)
REMARK    1  A    between atoms: C_15  and  C_9 
REMARK    2  A    between atoms: C_19  and  C_12 
REMARK    3  A    between atoms: S_31  and  C_16 
REMARK    4  A    between atoms: C_22  and  C_18 
REMARK    5  A    between atoms: S_31  and  C_21 
REMARK    6  A    between atoms: O_30  and  C_22 
ROOT
HETATM    1  C   UNK N   1      27.685  16.239   5.980  0.00  0.00     0.020 A 
HETATM    2  C   UNK N   1      26.611  17.047   5.570  0.00  0.00     0.017 A 
HETATM    3  C   UNK N   1      29.283  17.922   5.202  0.00  0.00     0.050 A 
HETATM    4  C   UNK N   1      29.023  16.664   5.796  0.00  0.00     0.007 A 
HETATM    5  C   UNK N   1      26.915  18.268   4.982  0.00  0.00     0.020 A 
HETATM    6  C   UNK N   1      26.130  19.225   4.394  0.00  0.00     0.060 A 
HETATM    7  C   UNK N   1      28.193  18.701   4.823  0.00  0.00     0.061 A 
HETATM    8  N   UNK N   1      26.929  20.211   3.922  0.00  0.00    -0.299 N 
HETATM    9  N   UNK N   1      28.197  19.890   4.191  0.00  0.00    -0.299 N 
ATOM     10  HN  UNK N   1      29.021  20.445   3.959  1.00  0.00     0.187 HD
HETATM   11  H   UNK N   1      26.627  21.026   3.459  0.00  0.00     0.187 HD
ENDROOT
BRANCH   4  12
HETATM   12  S   UNK N   1      30.339  15.466   6.107  0.00  0.00    -0.090 SA
BRANCH  12  13
HETATM   13  C   UNK N   1      31.696  16.553   6.592  0.00  0.00     0.020 A 
HETATM   14  C   UNK N   1      32.666  16.835   5.620  0.00  0.00     0.020 A 
HETATM   15  C   UNK N   1      33.831  17.527   5.938  0.00  0.00     0.001 A 
HETATM   16  C   UNK N   1      34.070  17.905   7.254  0.00  0.00     0.001 A 
HETATM   17  C   UNK N   1      33.136  17.609   8.244  0.00  0.00     0.017 A 
HETATM   18  C   UNK N   1      31.928  16.957   7.944  0.00  0.00     0.032 A 
BRANCH  18  19
HETATM   19  C   UNK N   1      31.038  16.658   9.115  0.00  0.00     0.147 C 
HETATM   20  N   UNK N   1      30.022  17.375   9.472  0.00  0.00    -0.375 N 
HETATM   21  C   UNK N   1      29.629  18.622   8.873  0.00  0.00     0.148 C 
ATOM     22  HN  UNK N   1      29.452  17.026  10.244  1.00  0.00     0.161 HD
BRANCH  19  23
HETATM   23  O   UNK N   1      31.377  15.618   9.903  0.00  0.00    -0.346 OA
HETATM   24  H   UNK N   1      31.756  15.768  10.748  0.00  0.00     0.219 HD
ENDBRANCH  19  23
ENDBRANCH  18  19
ENDBRANCH  12  13
ENDBRANCH   4  12
BRANCH   6  25
HETATM   25  C   UNK N   1      24.674  19.111   4.201  0.00  0.00     0.034 C 
HETATM   26  C   UNK N   1      23.972  19.951   3.425  0.00  0.00     0.032 C 
BRANCH  26  27
HETATM   27  C   UNK N   1      22.533  19.714   3.166  0.00  0.00     0.031 A 
HETATM   28  C   UNK N   1      21.889  18.619   3.750  0.00  0.00     0.029 A 
HETATM   29  C   UNK N   1      20.520  18.436   3.540  0.00  0.00     0.004 A 
HETATM   30  C   UNK N   1      19.809  19.346   2.756  0.00  0.00     0.017 A 
HETATM   31  C   UNK N   1      20.482  20.428   2.189  0.00  0.00     0.088 A 
HETATM   32  N   UNK N   1      21.814  20.591   2.406  0.00  0.00    -0.366 N 
ATOM     33  HN  UNK N   1      22.290  21.391   1.988  1.00  0.00     0.165 HD
ENDBRANCH  26  27
ENDBRANCH   6  25
TORSDOF 6
ENDMDL
MODEL 3
REMARK VINA RESULT:      -7.9      4.044      9.593
REMARK  6 active torsions:
REMARK  status: ('A' for Active; 'I' for Inactive)
REMARK    1  A    between atoms: C_15  and  C_9 
REMARK    2  A    between atoms: C_19  and  C_12 
REMARK    3  A    between atoms: S_31  and  C_16 
REMARK    4  A    between atoms: C_22  and  C_18 
REMARK    5  A    between atoms: S_31  and  C_21 
REMARK    6  A    between atoms: O_30  and  C_22 
ROOT
HETATM    1  C   UNK N   1      32.705  15.117   8.194  0.00  0.00     0.020 A 
HETATM    2  C   UNK N   1      33.356  14.533   9.294  0.00  0.00     0.017 A 
HETATM    3  C   UNK N   1      33.885  17.226   8.581  0.00  0.00     0.050 A 
HETATM    4  C   UNK N   1      32.957  16.462   7.834  0.00  0.00     0.007 A 
HETATM    5  C   UNK N   1      34.249  15.324  10.005  0.00  0.00     0.020 A 
HETATM    6  C   UNK N   1      34.956  15.103  11.157  0.00  0.00     0.060 A 
HETATM    7  C   UNK N   1      34.522  16.608   9.655  0.00  0.00     0.061 A 
HETATM    8  N   UNK N   1      35.649  16.225  11.463  0.00  0.00    -0.299 N 
HETATM    9  N   UNK N   1      35.385  17.148  10.536  0.00  0.00    -0.299 N 
ATOM     10  HN  UNK N   1      35.768  18.093  10.501  1.00  0.00     0.187 HD
HETATM   11  H   UNK N   1      36.245  16.341  12.239  0.00  0.00     0.187 HD
ENDROOT
BRANCH   4  12
HETATM   12  S   UNK N   1      31.894  17.213   6.580  0.00  0.00    -0.090 SA
BRANCH  12  13
HETATM   13  C   UNK N   1      30.416  17.581   7.548  0.00  0.00     0.020 A 
HETATM   14  C   UNK N   1      30.610  18.070   8.848  0.00  0.00     0.020 A 
HETATM   15  C   UNK N   1      29.544  18.230   9.728  0.00  0.00     0.001 A 
HETATM   16  C   UNK N   1      28.265  17.851   9.338  0.00  0.00     0.001 A 
HETATM   17  C   UNK N   1      28.051  17.332   8.063  0.00  0.00     0.017 A 
HETATM   18  C   UNK N   1      29.099  17.206   7.135  0.00  0.00     0.032 A 
BRANCH  18  19
HETATM   19  C   UNK N   1      28.734  16.586   5.818  0.00  0.00     0.147 C 
HETATM   20  N   UNK N   1      28.427  17.249   4.749  0.00  0.00    -0.375 N 
HETATM   21  C   UNK N   1      28.290  18.678   4.665  0.00  0.00     0.148 C 
ATOM     22  HN  UNK N   1      28.268  16.713   3.896  1.00  0.00     0.161 HD
BRANCH  19  23
HETATM   23  O   UNK N   1      28.633  15.243   5.770  0.00  0.00    -0.346 OA
HETATM   24  H   UNK N   1      27.793  14.829   5.829  0.00  0.00     0.219 HD
ENDBRANCH  19  23
ENDBRANCH  18  19
ENDBRANCH  12  13
ENDBRANCH   4  12
BRANCH   6  25
HETATM   25  C   UNK N   1      34.856  13.884  11.980  0.00  0.00     0.034 C 
HETATM   26  C   UNK N   1      35.404  13.780  13.201  0.00  0.00     0.032 C 
BRANCH  26  27
HETATM   27  C   UNK N   1      35.165  12.580  14.035  0.00  0.00     0.031 A 
HETATM   28  C   UNK N   1      35.972  12.332  15.150  0.00  0.00     0.029 A 
HETATM   29  C   UNK N   1      35.704  11.224  15.957  0.00  0.00     0.004 A 
HETATM   30  C   UNK N   1      34.637  10.380  15.649  0.00  0.00     0.017 A 
HETATM   31  C   UNK N   1      33.851  10.656  14.530  0.00  0.00     0.088 A 
HETATM   32  N   UNK N   1      34.126  11.741  13.756  0.00  0.00    -0.366 N 
ATOM     33  HN  UNK N   1      33.538  11.931  12.945  1.00  0.00     0.165 HD
ENDBRANCH  26  27
ENDBRANCH   6  25
TORSDOF 6
ENDMDL
MODEL 4
REMARK VINA RESULT:      -7.9      5.060      7.512
REMARK  6 active torsions:
REMARK  status: ('A' for Active; 'I' for Inactive)
REMARK    1  A    between atoms: C_15  and  C_9 
REMARK    2  A    between atoms: C_19  and  C_12 
REMARK    3  A    between atoms: S_31  and  C_16 
REMARK    4  A    between atoms: C_22  and  C_18 
REMARK    5  A    between atoms: S_31  and  C_21 
REMARK    6  A    between atoms: O_30  and  C_22 
ROOT
HETATM    1  C   UNK N   1      31.759  16.778   6.521  0.00  0.00     0.020 A 
HETATM    2  C   UNK N   1      30.417  17.193   6.510  0.00  0.00     0.017 A 
HETATM    3  C   UNK N   1      31.988  17.492   8.851  0.00  0.00     0.050 A 
HETATM    4  C   UNK N   1      32.554  16.928   7.683  0.00  0.00     0.007 A 
HETATM    5  C   UNK N   1      29.909  17.752   7.675  0.00  0.00     0.020 A 
HETATM    6  C   UNK N   1      28.703  18.337   7.964  0.00  0.00     0.060 A 
HETATM    7  C   UNK N   1      30.651  17.878   8.806  0.00  0.00     0.061 A 
HETATM    8  N   UNK N   1      28.729  18.775   9.245  0.00  0.00    -0.299 N 
HETATM    9  N   UNK N   1      29.926  18.487   9.763  0.00  0.00    -0.299 N 
ATOM     10  HN  UNK N   1      30.235  18.692  10.713  1.00  0.00     0.187 HD
HETATM   11  H   UNK N   1      27.992  19.228   9.714  0.00  0.00     0.187 HD
ENDROOT
BRANCH   4  12
HETATM   12  S   UNK N   1      34.328  16.614   7.538  0.00  0.00    -0.090 SA
BRANCH  12  13
HETATM   13  C   UNK N   1      34.391  14.830   7.809  0.00  0.00     0.020 A 
HETATM   14  C   UNK N   1      34.379  14.012   6.670  0.00  0.00     0.020 A 
HETATM   15  C   UNK N   1      34.262  12.629   6.774  0.00  0.00     0.001 A 
HETATM   16  C   UNK N   1      34.102  12.042   8.023  0.00  0.00     0.001 A 
HETATM   17  C   UNK N   1      34.078  12.836   9.167  0.00  0.00     0.017 A 
HETATM   18  C   UNK N   1      34.245  14.230   9.098  0.00  0.00     0.032 A 
BRANCH  18  19
HETATM   19  C   UNK N   1      34.148  14.965  10.404  0.00  0.00     0.147 C 
HETATM   20  N   UNK N   1      35.152  15.486  11.034  0.00  0.00    -0.375 N 
HETATM   21  C   UNK N   1      36.532  15.369  10.645  0.00  0.00     0.148 C 
ATOM     22  HN  UNK N   1      34.947  16.022  11.877  1.00  0.00     0.161 HD
BRANCH  19  23
HETATM   23  O   UNK N   1      32.943  15.006  11.006  0.00  0.00    -0.346 OA
HETATM   24  H   UNK N   1      32.559  14.224  11.351  0.00  0.00     0.219 HD
ENDBRANCH  19  23
ENDBRANCH  18  19
ENDBRANCH  12  13
ENDBRANCH   4  12
BRANCH   6  25
HETATM   25  C   UNK N   1      27.625  18.561   6.985  0.00  0.00     0.034 C 
HETATM   26  C   UNK N   1      27.569  19.644   6.195  0.00  0.00     0.032 C 
BRANCH  26  27
HETATM   27  C   UNK N   1      26.534  19.757   5.142  0.00  0.00     0.031 A 
HETATM   28  C   UNK N   1      26.813  20.449   3.959  0.00  0.00     0.029 A 
HETATM   29  C   UNK N   1      25.846  20.504   2.953  0.00  0.00     0.004 A 
HETATM   30  C   UNK N   1      24.618  19.868   3.132  0.00  0.00     0.017 A 
HETATM   31  C   UNK N   1      24.372  19.185   4.323  0.00  0.00     0.088 A 
HETATM   32  N   UNK N   1      25.325  19.141   5.292  0.00  0.00    -0.366 N 
ATOM     33  HN  UNK N   1      25.132  18.632   6.155  1.00  0.00     0.165 HD
ENDBRANCH  26  27
ENDBRANCH   6  25
TORSDOF 6
ENDMDL
MODEL 5
REMARK VINA RESULT:      -7.9      5.085      7.010
REMARK  6 active torsions:
REMARK  status: ('A' for Active; 'I' for Inactive)
REMARK    1  A    between atoms: C_15  and  C_9 
REMARK    2  A    between atoms: C_19  and  C_12 
REMARK    3  A    between atoms: S_31  and  C_16 
REMARK    4  A    between atoms: C_22  and  C_18 
REMARK    5  A    between atoms: S_31  and  C_21 
REMARK    6  A    between atoms: O_30  and  C_22 
ROOT
HETATM    1  C   UNK N   1      31.636  16.531   6.599  0.00  0.00     0.020 A 
HETATM    2  C   UNK N   1      30.317  17.012   6.566  0.00  0.00     0.017 A 
HETATM    3  C   UNK N   1      31.881  17.287   8.914  0.00  0.00     0.050 A 
HETATM    4  C   UNK N   1      32.427  16.668   7.765  0.00  0.00     0.007 A 
HETATM    5  C   UNK N   1      29.827  17.623   7.713  0.00  0.00     0.020 A 
HETATM    6  C   UNK N   1      28.650  18.274   7.977  0.00  0.00     0.060 A 
HETATM    7  C   UNK N   1      30.565  17.738   8.848  0.00  0.00     0.061 A 
HETATM    8  N   UNK N   1      28.688  18.739   9.247  0.00  0.00    -0.299 N 
HETATM    9  N   UNK N   1      29.864  18.404   9.784  0.00  0.00    -0.299 N 
ATOM     10  HN  UNK N   1      30.175  18.616  10.732  1.00  0.00     0.187 HD
HETATM   11  H   UNK N   1      27.970  19.240   9.699  0.00  0.00     0.187 HD
ENDROOT
BRANCH   4  12
HETATM   12  S   UNK N   1      34.184  16.262   7.644  0.00  0.00    -0.090 SA
BRANCH  12  13
HETATM   13  C   UNK N   1      34.533  15.711   9.327  0.00  0.00     0.020 A 
HETATM   14  C   UNK N   1      35.265  16.583  10.145  0.00  0.00     0.020 A 
HETATM   15  C   UNK N   1      35.723  16.188  11.398  0.00  0.00     0.001 A 
HETATM   16  C   UNK N   1      35.500  14.888  11.835  0.00  0.00     0.001 A 
HETATM   17  C   UNK N   1      34.804  13.992  11.027  0.00  0.00     0.017 A 
HETATM   18  C   UNK N   1      34.285  14.377   9.780  0.00  0.00     0.032 A 
BRANCH  18  19
HETATM   19  C   UNK N   1      33.600  13.297   8.995  0.00  0.00     0.147 C 
HETATM   20  N   UNK N   1      34.185  12.518   8.142  0.00  0.00    -0.375 N 
HETATM   21  C   UNK N   1      35.560  12.615   7.732  0.00  0.00     0.148 C 
ATOM     22  HN  UNK N   1      33.624  11.775   7.725  1.00  0.00     0.161 HD
BRANCH  19  23
HETATM   23  O   UNK N   1      32.262  13.190   9.122  0.00  0.00    -0.346 OA
HETATM   24  H   UNK N   1      31.867  12.356   9.286  0.00  0.00     0.219 HD
ENDBRANCH  19  23
ENDBRANCH  18  19
ENDBRANCH  12  13
ENDBRANCH   4  12
BRANCH   6  25
HETATM   25  C   UNK N   1      27.593  18.528   6.983  0.00  0.00     0.034 C 
HETATM   26  C   UNK N   1      27.556  19.633   6.222  0.00  0.00     0.032 C 
BRANCH  26  27
HETATM   27  C   UNK N   1      26.543  19.778   5.152  0.00  0.00     0.031 A 
HETATM   28  C   UNK N   1      26.863  20.463   3.975  0.00  0.00     0.029 A 
HETATM   29  C   UNK N   1      25.916  20.548   2.952  0.00  0.00     0.004 A 
HETATM   30  C   UNK N   1      24.665  19.950   3.110  0.00  0.00     0.017 A 
HETATM   31  C   UNK N   1      24.378  19.274   4.296  0.00  0.00     0.088 A 
HETATM   32  N   UNK N   1      25.314  19.200   5.280  0.00  0.00    -0.366 N 
ATOM     33  HN  UNK N   1      25.090  18.697   6.139  1.00  0.00     0.165 HD
ENDBRANCH  26  27
ENDBRANCH   6  25
TORSDOF 6
ENDMDL
MODEL 6
REMARK VINA RESULT:      -7.9      4.799      8.029
REMARK  6 active torsions:
REMARK  status: ('A' for Active; 'I' for Inactive)
REMARK    1  A    between atoms: C_15  and  C_9 
REMARK    2  A    between atoms: C_19  and  C_12 
REMARK    3  A    between atoms: S_31  and  C_16 
REMARK    4  A    between atoms: C_22  and  C_18 
REMARK    5  A    between atoms: S_31  and  C_21 
REMARK    6  A    between atoms: O_30  and  C_22 
ROOT
HETATM    1  C   UNK N   1      35.735  10.031  17.843  0.00  0.00     0.020 A 
HETATM    2  C   UNK N   1      35.882  11.050  16.888  0.00  0.00     0.017 A 
HETATM    3  C   UNK N   1      35.214  11.686  19.569  0.00  0.00     0.050 A 
HETATM    4  C   UNK N   1      35.408  10.338  19.186  0.00  0.00     0.007 A 
HETATM    5  C   UNK N   1      35.695  12.359  17.312  0.00  0.00     0.020 A 
HETATM    6  C   UNK N   1      35.857  13.563  16.678  0.00  0.00     0.060 A 
HETATM    7  C   UNK N   1      35.353  12.668  18.591  0.00  0.00     0.061 A 
HETATM    8  N   UNK N   1      35.593  14.556  17.559  0.00  0.00    -0.299 N 
HETATM    9  N   UNK N   1      35.278  14.004  18.733  0.00  0.00    -0.299 N 
ATOM     10  HN  UNK N   1      35.026  14.505  19.586  1.00  0.00     0.187 HD
HETATM   11  H   UNK N   1      35.627  15.522  17.367  0.00  0.00     0.187 HD
ENDROOT
BRANCH   4  12
HETATM   12  S   UNK N   1      35.494   9.004  20.402  0.00  0.00    -0.090 SA
BRANCH  12  13
HETATM   13  C   UNK N   1      33.746   8.599  20.603  0.00  0.00     0.020 A 
HETATM   14  C   UNK N   1      33.183   7.721  19.666  0.00  0.00     0.020 A 
HETATM   15  C   UNK N   1      31.814   7.474  19.637  0.00  0.00     0.001 A 
HETATM   16  C   UNK N   1      30.973   8.145  20.515  0.00  0.00     0.001 A 
HETATM   17  C   UNK N   1      31.504   9.048  21.434  0.00  0.00     0.017 A 
HETATM   18  C   UNK N   1      32.887   9.280  21.522  0.00  0.00     0.032 A 
BRANCH  18  19
HETATM   19  C   UNK N   1      33.315  10.313  22.523  0.00  0.00     0.147 C 
HETATM   20  N   UNK N   1      33.938  10.057  23.628  0.00  0.00    -0.375 N 
HETATM   21  C   UNK N   1      34.242   8.744  24.129  0.00  0.00     0.148 C 
ATOM     22  HN  UNK N   1      34.238  10.854  24.191  1.00  0.00     0.161 HD
BRANCH  19  23
HETATM   23  O   UNK N   1      32.942  11.589  22.297  0.00  0.00    -0.346 OA
HETATM   24  H   UNK N   1      32.313  12.004  22.854  0.00  0.00     0.219 HD
ENDBRANCH  19  23
ENDBRANCH  18  19
ENDBRANCH  12  13
ENDBRANCH   4  12
BRANCH   6  25
HETATM   25  C   UNK N   1      36.366  13.724  15.305  0.00  0.00     0.034 C 
HETATM   26  C   UNK N   1      35.637  13.434  14.216  0.00  0.00     0.032 C 
BRANCH  26  27
HETATM   27  C   UNK N   1      36.153  13.733  12.861  0.00  0.00     0.031 A 
HETATM   28  C   UNK N   1      35.677  14.848  12.163  0.00  0.00     0.029 A 
HETATM   29  C   UNK N   1      36.209  15.148  10.907  0.00  0.00     0.004 A 
HETATM   30  C   UNK N   1      37.209  14.341  10.363  0.00  0.00     0.017 A 
HETATM   31  C   UNK N   1      37.661  13.237  11.086  0.00  0.00     0.088 A 
HETATM   32  N   UNK N   1      37.133  12.961  12.308  0.00  0.00    -0.366 N 
ATOM     33  HN  UNK N   1      37.479  12.153  12.826  1.00  0.00     0.165 HD
ENDBRANCH  26  27
ENDBRANCH   6  25
TORSDOF 6
ENDMDL
MODEL 7
REMARK VINA RESULT:      -7.5      7.504     11.104
REMARK  6 active torsions:
REMARK  status: ('A' for Active; 'I' for Inactive)
REMARK    1  A    between atoms: C_15  and  C_9 
REMARK    2  A    between atoms: C_19  and  C_12 
REMARK    3  A    between atoms: S_31  and  C_16 
REMARK    4  A    between atoms: C_22  and  C_18 
REMARK    5  A    between atoms: S_31  and  C_21 
REMARK    6  A    between atoms: O_30  and  C_22 
ROOT
HETATM    1  C   UNK N   1      27.815  15.899   5.200  0.00  0.00     0.020 A 
HETATM    2  C   UNK N   1      26.824  16.775   4.728  0.00  0.00     0.017 A 
HETATM    3  C   UNK N   1      29.493  17.675   5.056  0.00  0.00     0.050 A 
HETATM    4  C   UNK N   1      29.152  16.337   5.362  0.00  0.00     0.007 A 
HETATM    5  C   UNK N   1      27.208  18.077   4.429  0.00  0.00     0.020 A 
HETATM    6  C   UNK N   1      26.531  19.128   3.868  0.00  0.00     0.060 A 
HETATM    7  C   UNK N   1      28.480  18.519   4.605  0.00  0.00     0.061 A 
HETATM    8  N   UNK N   1      27.383  20.173   3.741  0.00  0.00    -0.299 N 
HETATM    9  N   UNK N   1      28.580  19.799   4.199  0.00  0.00    -0.299 N 
ATOM     10  HN  UNK N   1      29.419  20.378   4.235  1.00  0.00     0.187 HD
HETATM   11  H   UNK N   1      27.158  21.058   3.372  0.00  0.00     0.187 HD
ENDROOT
BRANCH   4  12
HETATM   12  S   UNK N   1      30.410  15.090   5.721  0.00  0.00    -0.090 SA
BRANCH  12  13
HETATM   13  C   UNK N   1      31.707  16.104   6.462  0.00  0.00     0.020 A 
HETATM   14  C   UNK N   1      31.503  16.537   7.779  0.00  0.00     0.020 A 
HETATM   15  C   UNK N   1      32.361  17.452   8.382  0.00  0.00     0.001 A 
HETATM   16  C   UNK N   1      33.414  17.992   7.654  0.00  0.00     0.001 A 
HETATM   17  C   UNK N   1      33.619  17.603   6.333  0.00  0.00     0.017 A 
HETATM   18  C   UNK N   1      32.800  16.643   5.714  0.00  0.00     0.032 A 
BRANCH  18  19
HETATM   19  C   UNK N   1      33.105  16.356   4.272  0.00  0.00     0.147 C 
HETATM   20  N   UNK N   1      33.801  15.349   3.851  0.00  0.00    -0.375 N 
HETATM   21  C   UNK N   1      34.476  14.394   4.688  0.00  0.00     0.148 C 
ATOM     22  HN  UNK N   1      33.877  15.223   2.842  1.00  0.00     0.161 HD
BRANCH  19  23
HETATM   23  O   UNK N   1      32.700  17.261   3.359  0.00  0.00    -0.346 OA
HETATM   24  H   UNK N   1      32.166  17.987   3.617  0.00  0.00     0.219 HD
ENDBRANCH  19  23
ENDBRANCH  18  19
ENDBRANCH  12  13
ENDBRANCH   4  12
BRANCH   6  25
HETATM   25  C   UNK N   1      25.146  19.063   3.372  0.00  0.00     0.034 C 
HETATM   26  C   UNK N   1      24.076  19.134   4.179  0.00  0.00     0.032 C 
BRANCH  26  27
HETATM   27  C   UNK N   1      22.708  19.190   3.615  0.00  0.00     0.031 A 
HETATM   28  C   UNK N   1      21.769  18.214   3.961  0.00  0.00     0.029 A 
HETATM   29  C   UNK N   1      20.467  18.307   3.462  0.00  0.00     0.004 A 
HETATM   30  C   UNK N   1      20.115  19.371   2.631  0.00  0.00     0.017 A 
HETATM   31  C   UNK N   1      21.076  20.329   2.306  0.00  0.00     0.088 A 
HETATM   32  N   UNK N   1      22.337  20.222   2.802  0.00  0.00    -0.366 N 
ATOM     33  HN  UNK N   1      23.027  20.934   2.558  1.00  0.00     0.165 HD
ENDBRANCH  26  27
ENDBRANCH   6  25
TORSDOF 6
ENDMDL
MODEL 8
REMARK VINA RESULT:      -7.5      4.500      9.674
REMARK  6 active torsions:
REMARK  status: ('A' for Active; 'I' for Inactive)
REMARK    1  A    between atoms: C_15  and  C_9 
REMARK    2  A    between atoms: C_19  and  C_12 
REMARK    3  A    between atoms: S_31  and  C_16 
REMARK    4  A    between atoms: C_22  and  C_18 
REMARK    5  A    between atoms: S_31  and  C_21 
REMARK    6  A    between atoms: O_30  and  C_22 
ROOT
HETATM    1  C   UNK N   1      31.832  15.380   7.174  0.00  0.00     0.020 A 
HETATM    2  C   UNK N   1      32.524  15.026   8.344  0.00  0.00     0.017 A 
HETATM    3  C   UNK N   1      32.988  17.537   7.111  0.00  0.00     0.050 A 
HETATM    4  C   UNK N   1      32.051  16.634   6.554  0.00  0.00     0.007 A 
HETATM    5  C   UNK N   1      33.425  15.949   8.861  0.00  0.00     0.020 A 
HETATM    6  C   UNK N   1      34.169  15.961  10.011  0.00  0.00     0.060 A 
HETATM    7  C   UNK N   1      33.666  17.144   8.263  0.00  0.00     0.061 A 
HETATM    8  N   UNK N   1      34.852  17.128  10.074  0.00  0.00    -0.299 N 
HETATM    9  N   UNK N   1      34.546  17.853   8.995  0.00  0.00    -0.299 N 
ATOM     10  HN  UNK N   1      34.911  18.777   8.767  1.00  0.00     0.187 HD
HETATM   11  H   UNK N   1      35.469  17.397  10.793  0.00  0.00     0.187 HD
ENDROOT
BRANCH   4  12
HETATM   12  S   UNK N   1      30.940  17.119   5.214  0.00  0.00    -0.090 SA
BRANCH  12  13
HETATM   13  C   UNK N   1      29.396  16.348   5.743  0.00  0.00     0.020 A 
HETATM   14  C   UNK N   1      29.024  15.158   5.102  0.00  0.00     0.020 A 
HETATM   15  C   UNK N   1      27.780  14.575   5.321  0.00  0.00     0.001 A 
HETATM   16  C   UNK N   1      26.860  15.204   6.150  0.00  0.00     0.001 A 
HETATM   17  C   UNK N   1      27.193  16.405   6.774  0.00  0.00     0.017 A 
HETATM   18  C   UNK N   1      28.460  16.991   6.612  0.00  0.00     0.032 A 
BRANCH  18  19
HETATM   19  C   UNK N   1      28.664  18.308   7.303  0.00  0.00     0.147 C 
HETATM   20  N   UNK N   1      29.232  18.457   8.456  0.00  0.00    -0.375 N 
HETATM   21  C   UNK N   1      29.677  17.389   9.311  0.00  0.00     0.148 C 
ATOM     22  HN  UNK N   1      29.375  19.411   8.787  1.00  0.00     0.161 HD
BRANCH  19  23
HETATM   23  O   UNK N   1      28.136  19.403   6.720  0.00  0.00    -0.346 OA
HETATM   24  H   UNK N   1      28.685  20.000   6.250  0.00  0.00     0.219 HD
ENDBRANCH  19  23
ENDBRANCH  18  19
ENDBRANCH  12  13
ENDBRANCH   4  12
BRANCH   6  25
HETATM   25  C   UNK N   1      34.113  14.923  11.055  0.00  0.00     0.034 C 
HETATM   26  C   UNK N   1      35.182  14.199  11.425  0.00  0.00     0.032 C 
BRANCH  26  27
HETATM   27  C   UNK N   1      35.099  13.259  12.565  0.00  0.00     0.031 A 
HETATM   28  C   UNK N   1      35.590  13.636  13.819  0.00  0.00     0.029 A 
HETATM   29  C   UNK N   1      35.459  12.759  14.899  0.00  0.00     0.004 A 
HETATM   30  C   UNK N   1      34.839  11.523  14.720  0.00  0.00     0.017 A 
HETATM   31  C   UNK N   1      34.359  11.178  13.456  0.00  0.00     0.088 A 
HETATM   32  N   UNK N   1      34.494  12.044  12.417  0.00  0.00    -0.366 N 
ATOM     33  HN  UNK N   1      34.132  11.779  11.501  1.00  0.00     0.165 HD
ENDBRANCH  26  27
ENDBRANCH   6  25
TORSDOF 6
ENDMDL
MODEL 9
REMARK VINA RESULT:      -7.4      3.195      9.320
REMARK  6 active torsions:
REMARK  status: ('A' for Active; 'I' for Inactive)
REMARK    1  A    between atoms: C_15  and  C_9 
REMARK    2  A    between atoms: C_19  and  C_12 
REMARK    3  A    between atoms: S_31  and  C_16 
REMARK    4  A    between atoms: C_22  and  C_18 
REMARK    5  A    between atoms: S_31  and  C_21 
REMARK    6  A    between atoms: O_30  and  C_22 
ROOT
HETATM    1  C   UNK N   1      35.192  14.683   6.638  0.00  0.00     0.020 A 
HETATM    2  C   UNK N   1      35.551  14.537   7.988  0.00  0.00     0.017 A 
HETATM    3  C   UNK N   1      34.132  16.835   7.124  0.00  0.00     0.050 A 
HETATM    4  C   UNK N   1      34.479  15.823   6.197  0.00  0.00     0.007 A 
HETATM    5  C   UNK N   1      35.179  15.550   8.864  0.00  0.00     0.020 A 
HETATM    6  C   UNK N   1      35.281  15.671  10.225  0.00  0.00     0.060 A 
HETATM    7  C   UNK N   1      34.518  16.662   8.451  0.00  0.00     0.061 A 
HETATM    8  N   UNK N   1      34.713  16.841  10.600  0.00  0.00    -0.299 N 
HETATM    9  N   UNK N   1      34.249  17.453   9.507  0.00  0.00    -0.299 N 
ATOM     10  HN  UNK N   1      33.776  18.355   9.478  1.00  0.00     0.187 HD
HETATM   11  H   UNK N   1      34.652  17.183  11.521  0.00  0.00     0.187 HD
ENDROOT
BRANCH   4  12
HETATM   12  S   UNK N   1      33.830  15.813   4.510  0.00  0.00    -0.090 SA
BRANCH  12  13
HETATM   13  C   UNK N   1      32.076  16.118   4.807  0.00  0.00     0.020 A 
HETATM   14  C   UNK N   1      31.588  17.393   4.490  0.00  0.00     0.020 A 
HETATM   15  C   UNK N   1      30.295  17.778   4.830  0.00  0.00     0.001 A 
HETATM   16  C   UNK N   1      29.481  16.908   5.544  0.00  0.00     0.001 A 
HETATM   17  C   UNK N   1      29.954  15.646   5.900  0.00  0.00     0.017 A 
HETATM   18  C   UNK N   1      31.236  15.210   5.526  0.00  0.00     0.032 A 
BRANCH  18  19
HETATM   19  C   UNK N   1      31.633  13.849   6.018  0.00  0.00     0.147 C 
HETATM   20  N   UNK N   1      31.565  12.762   5.319  0.00  0.00    -0.375 N 
HETATM   21  C   UNK N   1      31.015  12.655   3.995  0.00  0.00     0.148 C 
ATOM     22  HN  UNK N   1      31.932  11.910   5.743  1.00  0.00     0.161 HD
BRANCH  19  23
HETATM   23  O   UNK N   1      32.001  13.738   7.311  0.00  0.00    -0.346 OA
HETATM   24  H   UNK N   1      32.848  14.027   7.588  0.00  0.00     0.219 HD
ENDBRANCH  19  23
ENDBRANCH  18  19
ENDBRANCH  12  13
ENDBRANCH   4  12
BRANCH   6  25
HETATM   25  C   UNK N   1      35.804  14.625  11.122  0.00  0.00     0.034 C 
HETATM   26  C   UNK N   1      36.036  14.831  12.427  0.00  0.00     0.032 C 
BRANCH  26  27
HETATM   27  C   UNK N   1      36.441  13.711  13.307  0.00  0.00     0.031 A 
HETATM   28  C   UNK N   1      35.957  13.641  14.617  0.00  0.00     0.029 A 
HETATM   29  C   UNK N   1      36.306  12.553  15.420  0.00  0.00     0.004 A 
HETATM   30  C   UNK N   1      37.127  11.547  14.910  0.00  0.00     0.017 A 
HETATM   31  C   UNK N   1      37.592  11.646  13.599  0.00  0.00     0.088 A 
HETATM   32  N   UNK N   1      37.241  12.713  12.832  0.00  0.00    -0.366 N 
ATOM     33  HN  UNK N   1      37.586  12.767  11.873  1.00  0.00     0.165 HD
ENDBRANCH  26  27
ENDBRANCH   6  25
TORSDOF 6
ENDMDL
