MODEL 1
REMARK VINA RESULT:      -6.7      0.000      0.000
REMARK  1 active torsions:
REMARK  status: ('A' for Active; 'I' for Inactive)
REMARK    1  A    between atoms: C_5  and  C_8 
ROOT
HETATM    1  O   UNK N   1      26.737  22.743  -6.378  0.00  0.00    -0.267 OA
HETATM    2  N   UNK N   1      25.498  24.620  -6.260  0.00  0.00    -0.322 N 
HETATM    3  C   UNK N   1      27.462  24.603  -5.003  0.00  0.00     0.047 A 
HETATM    4  C   UNK N   1      26.782  25.877  -4.820  0.00  0.00     0.006 A 
HETATM    5  C   UNK N   1      28.627  24.275  -4.411  0.00  0.00     0.048 C 
HETATM    6  C   UNK N   1      25.631  25.844  -5.576  0.00  0.00     0.046 A 
HETATM    7  C   UNK N   1      26.571  23.869  -5.936  0.00  0.00     0.257 A 
HETATM    8  C   UNK N   1      27.123  26.991  -4.055  0.00  0.00     0.015 A 
HETATM    9  C   UNK N   1      24.752  26.920  -5.616  0.00  0.00     0.030 A 
HETATM   10  C   UNK N   1      26.251  28.093  -4.078  0.00  0.00     0.001 A 
HETATM   11  C   UNK N   1      25.072  28.058  -4.854  0.00  0.00     0.002 A 
HETATM   12  H   UNK N   1      24.762  24.362  -6.860  0.00  0.00     0.169 HD
ENDROOT
BRANCH   5  13
HETATM   13  C   UNK N   1      29.356  23.003  -4.561  0.00  0.00     0.039 A 
HETATM   14  N   UNK N   1      29.470  22.319  -5.709  0.00  0.00    -0.359 N 
HETATM   15  C   UNK N   1      30.200  21.226  -5.426  0.00  0.00     0.006 A 
HETATM   16  H   UNK N   1      29.093  22.566  -6.583  0.00  0.00     0.166 HD
HETATM   17  C   UNK N   1      30.565  21.195  -4.093  0.00  0.00     0.033 A 
HETATM   18  C   UNK N   1      30.551  20.202  -6.442  0.00  0.00     0.068 C 
HETATM   19  C   UNK N   1      30.018  22.339  -3.549  0.00  0.00    -0.033 A 
HETATM   20  C   UNK N   1      30.132  22.761  -2.125  0.00  0.00     0.050 C 
ENDBRANCH   5  13
TORSDOF 1
ENDMDL
MODEL 2
REMARK VINA RESULT:      -6.6     16.418     19.389
REMARK  1 active torsions:
REMARK  status: ('A' for Active; 'I' for Inactive)
REMARK    1  A    between atoms: C_5  and  C_8 
ROOT
HETATM    1  O   UNK N   1      36.281  16.669  10.935  0.00  0.00    -0.267 OA
HETATM    2  N   UNK N   1      34.900  17.611   9.426  0.00  0.00    -0.322 N 
HETATM    3  C   UNK N   1      34.369  15.441  10.094  0.00  0.00     0.047 A 
HETATM    4  C   UNK N   1      33.387  15.903   9.124  0.00  0.00     0.006 A 
HETATM    5  C   UNK N   1      34.346  14.226  10.674  0.00  0.00     0.048 C 
HETATM    6  C   UNK N   1      33.738  17.183   8.757  0.00  0.00     0.046 A 
HETATM    7  C   UNK N   1      35.292  16.596  10.224  0.00  0.00     0.257 A 
HETATM    8  C   UNK N   1      32.267  15.269   8.588  0.00  0.00     0.015 A 
HETATM    9  C   UNK N   1      32.993  17.909   7.834  0.00  0.00     0.030 A 
HETATM   10  C   UNK N   1      31.496  15.981   7.652  0.00  0.00     0.001 A 
HETATM   11  C   UNK N   1      31.857  17.294   7.278  0.00  0.00     0.002 A 
HETATM   12  H   UNK N   1      35.343  18.485   9.330  0.00  0.00     0.169 HD
ENDROOT
BRANCH   5  13
HETATM   13  C   UNK N   1      35.313  13.709  11.659  0.00  0.00     0.039 A 
HETATM   14  N   UNK N   1      35.435  14.158  12.917  0.00  0.00    -0.359 N 
HETATM   15  C   UNK N   1      36.419  13.437  13.481  0.00  0.00     0.006 A 
HETATM   16  H   UNK N   1      34.910  14.873  13.342  0.00  0.00     0.166 HD
HETATM   17  C   UNK N   1      36.941  12.514  12.592  0.00  0.00     0.033 A 
HETATM   18  C   UNK N   1      36.865  13.633  14.884  0.00  0.00     0.068 C 
HETATM   19  C   UNK N   1      36.224  12.699  11.428  0.00  0.00    -0.033 A 
HETATM   20  C   UNK N   1      36.416  11.937  10.163  0.00  0.00     0.050 C 
ENDBRANCH   5  13
TORSDOF 1
ENDMDL
MODEL 3
REMARK VINA RESULT:      -6.6     21.042     24.322
REMARK  1 active torsions:
REMARK  status: ('A' for Active; 'I' for Inactive)
REMARK    1  A    between atoms: C_5  and  C_8 
ROOT
HETATM    1  O   UNK N   1      36.886  10.495  13.459  0.00  0.00    -0.267 OA
HETATM    2  N   UNK N   1      36.325  10.344  15.635  0.00  0.00    -0.322 N 
HETATM    3  C   UNK N   1      36.253  12.478  14.700  0.00  0.00     0.047 A 
HETATM    4  C   UNK N   1      35.866  12.551  16.101  0.00  0.00     0.006 A 
HETATM    5  C   UNK N   1      36.315  13.541  13.876  0.00  0.00     0.048 C 
HETATM    6  C   UNK N   1      35.923  11.273  16.613  0.00  0.00     0.046 A 
HETATM    7  C   UNK N   1      36.527  11.034  14.494  0.00  0.00     0.257 A 
HETATM    8  C   UNK N   1      35.492  13.638  16.889  0.00  0.00     0.015 A 
HETATM    9  C   UNK N   1      35.609  11.003  17.940  0.00  0.00     0.030 A 
HETATM   10  C   UNK N   1      35.169  13.392  18.235  0.00  0.00     0.001 A 
HETATM   11  C   UNK N   1      35.227  12.082  18.757  0.00  0.00     0.002 A 
HETATM   12  H   UNK N   1      36.438   9.373  15.761  0.00  0.00     0.169 HD
ENDROOT
BRANCH   5  13
HETATM   13  C   UNK N   1      36.701  13.525  12.453  0.00  0.00     0.039 A 
HETATM   14  N   UNK N   1      37.857  13.034  11.982  0.00  0.00    -0.359 N 
HETATM   15  C   UNK N   1      37.824  13.208  10.649  0.00  0.00     0.006 A 
HETATM   16  H   UNK N   1      38.584  12.630  12.506  0.00  0.00     0.166 HD
HETATM   17  C   UNK N   1      36.646  13.810  10.248  0.00  0.00     0.033 A 
HETATM   18  C   UNK N   1      38.932  12.792   9.751  0.00  0.00     0.068 C 
HETATM   19  C   UNK N   1      35.935  14.009  11.413  0.00  0.00    -0.033 A 
HETATM   20  C   UNK N   1      34.587  14.636  11.509  0.00  0.00     0.050 C 
ENDBRANCH   5  13
TORSDOF 1
ENDMDL
MODEL 4
REMARK VINA RESULT:      -6.4     22.148     25.277
REMARK  1 active torsions:
REMARK  status: ('A' for Active; 'I' for Inactive)
REMARK    1  A    between atoms: C_5  and  C_8 
ROOT
HETATM    1  O   UNK N   1      34.717  12.917  13.797  0.00  0.00    -0.267 OA
HETATM    2  N   UNK N   1      34.975  13.539  15.946  0.00  0.00    -0.322 N 
HETATM    3  C   UNK N   1      34.852  11.245  15.546  0.00  0.00     0.047 A 
HETATM    4  C   UNK N   1      35.018  11.478  16.973  0.00  0.00     0.006 A 
HETATM    5  C   UNK N   1      34.747  10.025  14.986  0.00  0.00     0.048 C 
HETATM    6  C   UNK N   1      35.085  12.841  17.164  0.00  0.00     0.046 A 
HETATM    7  C   UNK N   1      34.836  12.614  14.973  0.00  0.00     0.257 A 
HETATM    8  C   UNK N   1      35.104  10.585  18.039  0.00  0.00     0.015 A 
HETATM    9  C   UNK N   1      35.243  13.394  18.430  0.00  0.00     0.030 A 
HETATM   10  C   UNK N   1      35.263  11.119  19.330  0.00  0.00     0.001 A 
HETATM   11  C   UNK N   1      35.333  12.516  19.524  0.00  0.00     0.002 A 
HETATM   12  H   UNK N   1      34.996  14.516  15.827  0.00  0.00     0.169 HD
ENDROOT
BRANCH   5  13
HETATM   13  C   UNK N   1      34.577   9.732  13.551  0.00  0.00     0.039 A 
HETATM   14  N   UNK N   1      33.684  10.333  12.751  0.00  0.00    -0.359 N 
HETATM   15  C   UNK N   1      33.844   9.788  11.532  0.00  0.00     0.006 A 
HETATM   16  H   UNK N   1      33.039  11.031  13.004  0.00  0.00     0.166 HD
HETATM   17  C   UNK N   1      34.843   8.832  11.535  0.00  0.00     0.033 A 
HETATM   18  C   UNK N   1      33.033  10.188  10.354  0.00  0.00     0.068 C 
HETATM   19  C   UNK N   1      35.304   8.805  12.835  0.00  0.00    -0.033 A 
HETATM   20  C   UNK N   1      36.391   7.925  13.350  0.00  0.00     0.050 C 
ENDBRANCH   5  13
TORSDOF 1
ENDMDL
MODEL 5
REMARK VINA RESULT:      -6.4     21.332     24.495
REMARK  1 active torsions:
REMARK  status: ('A' for Active; 'I' for Inactive)
REMARK    1  A    between atoms: C_5  and  C_8 
ROOT
HETATM    1  O   UNK N   1      37.564  10.967  14.700  0.00  0.00    -0.267 OA
HETATM    2  N   UNK N   1      37.816  11.975  12.702  0.00  0.00    -0.322 N 
HETATM    3  C   UNK N   1      36.174  12.860  14.102  0.00  0.00     0.047 A 
HETATM    4  C   UNK N   1      36.211  13.618  12.860  0.00  0.00     0.006 A 
HETATM    5  C   UNK N   1      35.332  13.117  15.121  0.00  0.00     0.048 C 
HETATM    6  C   UNK N   1      37.190  13.063  12.065  0.00  0.00     0.046 A 
HETATM    7  C   UNK N   1      37.231  11.835  13.910  0.00  0.00     0.257 A 
HETATM    8  C   UNK N   1      35.455  14.709  12.435  0.00  0.00     0.015 A 
HETATM    9  C   UNK N   1      37.475  13.564  10.800  0.00  0.00     0.030 A 
HETATM   10  C   UNK N   1      35.723  15.235  11.159  0.00  0.00     0.001 A 
HETATM   11  C   UNK N   1      36.728  14.666  10.346  0.00  0.00     0.002 A 
HETATM   12  H   UNK N   1      38.543  11.421  12.336  0.00  0.00     0.169 HD
ENDROOT
BRANCH   5  13
HETATM   13  C   UNK N   1      35.252  12.383  16.397  0.00  0.00     0.039 A 
HETATM   14  N   UNK N   1      35.114  11.053  16.504  0.00  0.00    -0.359 N 
HETATM   15  C   UNK N   1      35.079  10.783  17.820  0.00  0.00     0.006 A 
HETATM   16  H   UNK N   1      35.050  10.405  15.767  0.00  0.00     0.166 HD
HETATM   17  C   UNK N   1      35.195  11.936  18.575  0.00  0.00     0.033 A 
HETATM   18  C   UNK N   1      34.933   9.407  18.361  0.00  0.00     0.068 C 
HETATM   19  C   UNK N   1      35.305  12.954  17.651  0.00  0.00    -0.033 A 
HETATM   20  C   UNK N   1      35.452  14.402  17.970  0.00  0.00     0.050 C 
ENDBRANCH   5  13
TORSDOF 1
ENDMDL
MODEL 6
REMARK VINA RESULT:      -6.4     10.396     11.656
REMARK  1 active torsions:
REMARK  status: ('A' for Active; 'I' for Inactive)
REMARK    1  A    between atoms: C_5  and  C_8 
ROOT
HETATM    1  O   UNK N   1      23.998  21.129   3.000  0.00  0.00    -0.267 OA
HETATM    2  N   UNK N   1      21.904  20.479   2.489  0.00  0.00    -0.322 N 
HETATM    3  C   UNK N   1      23.136  19.020   3.826  0.00  0.00     0.047 A 
HETATM    4  C   UNK N   1      21.814  18.459   3.589  0.00  0.00     0.006 A 
HETATM    5  C   UNK N   1      24.092  18.420   4.561  0.00  0.00     0.048 C 
HETATM    6  C   UNK N   1      21.123  19.349   2.797  0.00  0.00     0.046 A 
HETATM    7  C   UNK N   1      23.101  20.307   3.087  0.00  0.00     0.257 A 
HETATM    8  C   UNK N   1      21.240  17.264   4.019  0.00  0.00     0.015 A 
HETATM    9  C   UNK N   1      19.817  19.103   2.389  0.00  0.00     0.030 A 
HETATM   10  C   UNK N   1      19.920  16.990   3.620  0.00  0.00     0.001 A 
HETATM   11  C   UNK N   1      19.213  17.905   2.809  0.00  0.00     0.002 A 
HETATM   12  H   UNK N   1      21.628  21.250   1.941  0.00  0.00     0.169 HD
ENDROOT
BRANCH   5  13
HETATM   13  C   UNK N   1      25.444  18.942   4.831  0.00  0.00     0.039 A 
HETATM   14  N   UNK N   1      25.707  20.039   5.556  0.00  0.00    -0.359 N 
HETATM   15  C   UNK N   1      27.045  20.174   5.563  0.00  0.00     0.006 A 
HETATM   16  H   UNK N   1      25.053  20.629   5.993  0.00  0.00     0.166 HD
HETATM   17  C   UNK N   1      27.657  19.164   4.844  0.00  0.00     0.033 A 
HETATM   18  C   UNK N   1      27.743  21.281   6.264  0.00  0.00     0.068 C 
HETATM   19  C   UNK N   1      26.621  18.381   4.380  0.00  0.00    -0.033 A 
HETATM   20  C   UNK N   1      26.767  17.157   3.543  0.00  0.00     0.050 C 
ENDBRANCH   5  13
TORSDOF 1
ENDMDL
MODEL 7
REMARK VINA RESULT:      -6.3     22.425     25.163
REMARK  1 active torsions:
REMARK  status: ('A' for Active; 'I' for Inactive)
REMARK    1  A    between atoms: C_5  and  C_8 
ROOT
HETATM    1  O   UNK N   1      35.126   9.099  15.045  0.00  0.00    -0.267 OA
HETATM    2  N   UNK N   1      35.301   9.778  17.185  0.00  0.00    -0.322 N 
HETATM    3  C   UNK N   1      34.991  11.455  15.596  0.00  0.00     0.047 A 
HETATM    4  C   UNK N   1      35.084  12.055  16.919  0.00  0.00     0.006 A 
HETATM    5  C   UNK N   1      34.812  12.156  14.459  0.00  0.00     0.048 C 
HETATM    6  C   UNK N   1      35.268  11.033  17.824  0.00  0.00     0.046 A 
HETATM    7  C   UNK N   1      35.140  10.003  15.865  0.00  0.00     0.257 A 
HETATM    8  C   UNK N   1      35.019  13.386  17.324  0.00  0.00     0.015 A 
HETATM    9  C   UNK N   1      35.396  11.277  19.187  0.00  0.00     0.030 A 
HETATM   10  C   UNK N   1      35.146  13.661  18.696  0.00  0.00     0.001 A 
HETATM   11  C   UNK N   1      35.333  12.612  19.623  0.00  0.00     0.002 A 
HETATM   12  H   UNK N   1      35.420   8.903  17.620  0.00  0.00     0.169 HD
ENDROOT
BRANCH   5  13
HETATM   13  C   UNK N   1      34.711  11.601  13.097  0.00  0.00     0.039 A 
HETATM   14  N   UNK N   1      33.777  10.726  12.696  0.00  0.00    -0.359 N 
HETATM   15  C   UNK N   1      34.031  10.470  11.402  0.00  0.00     0.006 A 
HETATM   16  H   UNK N   1      33.052  10.346  13.241  0.00  0.00     0.166 HD
HETATM   17  C   UNK N   1      35.131  11.179  10.954  0.00  0.00     0.033 A 
HETATM   18  C   UNK N   1      33.213   9.538  10.585  0.00  0.00     0.068 C 
HETATM   19  C   UNK N   1      35.559  11.899  12.050  0.00  0.00    -0.033 A 
HETATM   20  C   UNK N   1      36.726  12.825  12.077  0.00  0.00     0.050 C 
ENDBRANCH   5  13
TORSDOF 1
ENDMDL
MODEL 8
REMARK VINA RESULT:      -6.3      3.445      6.335
REMARK  1 active torsions:
REMARK  status: ('A' for Active; 'I' for Inactive)
REMARK    1  A    between atoms: C_5  and  C_8 
ROOT
HETATM    1  O   UNK N   1      26.757  25.994  -3.768  0.00  0.00    -0.267 OA
HETATM    2  N   UNK N   1      26.156  24.062  -4.757  0.00  0.00    -0.322 N 
HETATM    3  C   UNK N   1      26.346  25.918  -6.155  0.00  0.00     0.047 A 
HETATM    4  C   UNK N   1      25.954  24.758  -6.942  0.00  0.00     0.006 A 
HETATM    5  C   UNK N   1      26.538  27.149  -6.666  0.00  0.00     0.048 C 
HETATM    6  C   UNK N   1      25.853  23.688  -6.081  0.00  0.00     0.046 A 
HETATM    7  C   UNK N   1      26.451  25.378  -4.777  0.00  0.00     0.257 A 
HETATM    8  C   UNK N   1      25.698  24.625  -8.305  0.00  0.00     0.015 A 
HETATM    9  C   UNK N   1      25.492  22.422  -6.527  0.00  0.00     0.030 A 
HETATM   10  C   UNK N   1      25.331  23.355  -8.783  0.00  0.00     0.001 A 
HETATM   11  C   UNK N   1      25.229  22.259  -7.898  0.00  0.00     0.002 A 
HETATM   12  H   UNK N   1      26.154  23.474  -3.967  0.00  0.00     0.169 HD
ENDROOT
BRANCH   5  13
HETATM   13  C   UNK N   1      26.934  28.356  -5.917  0.00  0.00     0.039 A 
HETATM   14  N   UNK N   1      26.337  28.786  -4.795  0.00  0.00    -0.359 N 
HETATM   15  C   UNK N   1      26.985  29.906  -4.431  0.00  0.00     0.006 A 
HETATM   16  H   UNK N   1      25.577  28.367  -4.333  0.00  0.00     0.166 HD
HETATM   17  C   UNK N   1      28.006  30.208  -5.313  0.00  0.00     0.033 A 
HETATM   18  C   UNK N   1      26.622  30.695  -3.226  0.00  0.00     0.068 C 
HETATM   19  C   UNK N   1      27.962  29.207  -6.261  0.00  0.00    -0.033 A 
HETATM   20  C   UNK N   1      28.870  29.087  -7.436  0.00  0.00     0.050 C 
ENDBRANCH   5  13
TORSDOF 1
ENDMDL
MODEL 9
REMARK VINA RESULT:      -6.1      1.793      6.535
REMARK  1 active torsions:
REMARK  status: ('A' for Active; 'I' for Inactive)
REMARK    1  A    between atoms: C_5  and  C_8 
ROOT
HETATM    1  O   UNK N   1      29.190  24.515  -4.372  0.00  0.00    -0.267 OA
HETATM    2  N   UNK N   1      30.098  22.568  -5.049  0.00  0.00    -0.322 N 
HETATM    3  C   UNK N   1      28.144  23.227  -6.138  0.00  0.00     0.047 A 
HETATM    4  C   UNK N   1      28.600  21.958  -6.688  0.00  0.00     0.006 A 
HETATM    5  C   UNK N   1      27.040  23.877  -6.552  0.00  0.00     0.048 C 
HETATM    6  C   UNK N   1      29.751  21.607  -6.018  0.00  0.00     0.046 A 
HETATM    7  C   UNK N   1      29.160  23.537  -5.101  0.00  0.00     0.257 A 
HETATM    8  C   UNK N   1      28.066  21.155  -7.693  0.00  0.00     0.015 A 
HETATM    9  C   UNK N   1      30.439  20.435  -6.310  0.00  0.00     0.030 A 
HETATM   10  C   UNK N   1      28.741  19.964  -8.009  0.00  0.00     0.001 A 
HETATM   11  C   UNK N   1      29.922  19.606  -7.322  0.00  0.00     0.002 A 
HETATM   12  H   UNK N   1      30.876  22.539  -4.447  0.00  0.00     0.169 HD
ENDROOT
BRANCH   5  13
HETATM   13  C   UNK N   1      26.533  25.160  -6.031  0.00  0.00     0.039 A 
HETATM   14  N   UNK N   1      26.525  25.507  -4.735  0.00  0.00    -0.359 N 
HETATM   15  C   UNK N   1      25.986  26.737  -4.679  0.00  0.00     0.006 A 
HETATM   16  H   UNK N   1      26.848  24.969  -3.978  0.00  0.00     0.166 HD
HETATM   17  C   UNK N   1      25.642  27.196  -5.937  0.00  0.00     0.033 A 
HETATM   18  C   UNK N   1      25.798  27.481  -3.407  0.00  0.00     0.068 C 
HETATM   19  C   UNK N   1      25.997  26.175  -6.795  0.00  0.00    -0.033 A 
HETATM   20  C   UNK N   1      25.824  26.187  -8.275  0.00  0.00     0.050 C 
ENDBRANCH   5  13
TORSDOF 1
ENDMDL
