MODEL 1
REMARK VINA RESULT:      -6.5      0.000      0.000
REMARK  11 active torsions:
REMARK  status: ('A' for Active; 'I' for Inactive)
REMARK    1  A    between atoms: C_6  and  C_8 
REMARK    2  A    between atoms: C_8  and  C_9 
REMARK    3  A    between atoms: C_8  and  O_29 
REMARK    4  A    between atoms: C_9  and  N_10 
REMARK    5  A    between atoms: N_10  and  C_11 
REMARK    6  A    between atoms: C_11  and  C_12 
REMARK    7  A    between atoms: C_12  and  N_13 
REMARK    8  A    between atoms: N_13  and  C_14 
REMARK    9  A    between atoms: C_18  and  C_20 
REMARK   10  A    between atoms: C_24  and  C_26 
REMARK   11  A    between atoms: C_26  and  O_28 
ROOT
HETATM    1  N   UNK N   1      26.213  28.046  -2.883  0.00  0.00    -0.388 N 
HETATM    2  H   UNK N   1      25.764  27.853  -2.027  0.00  0.00     0.159 HD
ENDROOT
BRANCH   1   3
HETATM    3  C   UNK N   1      26.875  29.322  -3.064  0.00  0.00     0.139 C 
BRANCH   3   4
HETATM    4  C   UNK N   1      27.965  29.551  -2.027  0.00  0.00     0.133 C 
BRANCH   4   5
HETATM    5  N   UNK N   1      29.111  30.193  -2.659  0.00  0.00    -0.417 N 
HETATM    6  H   UNK N   1      29.488  31.101  -2.390  0.00  0.00     0.153 HD
BRANCH   5   7
HETATM    7  C   UNK N   1      29.646  29.351  -3.734  0.00  0.00     0.150 C 
BRANCH   7   8
HETATM    8  C   UNK N   1      30.279  28.045  -3.219  0.00  0.00     0.168 C 
BRANCH   8   9
HETATM    9  C   UNK N   1      30.657  27.139  -4.372  0.00  0.00    -0.026 A 
HETATM   10  C   UNK N   1      30.060  27.296  -5.633  0.00  0.00     0.010 A 
HETATM   11  C   UNK N   1      30.406  26.443  -6.690  0.00  0.00     0.002 A 
HETATM   12  C   UNK N   1      31.347  25.427  -6.494  0.00  0.00     0.024 A 
HETATM   13  C   UNK N   1      31.945  25.263  -5.242  0.00  0.00     0.034 A 
HETATM   14 Cl   UNK N   1      33.119  23.989  -4.987  0.00  0.00    -0.084 Cl
HETATM   15  C   UNK N   1      31.602  26.113  -4.189  0.00  0.00     0.033 A 
ENDBRANCH   8   9
BRANCH   8  16
HETATM   16  O   UNK N   1      31.411  28.331  -2.447  0.00  0.00    -0.389 OA
HETATM   17  H   UNK N   1      31.593  29.241  -2.163  0.00  0.00     0.210 HD
ENDBRANCH   8  16
ENDBRANCH   7   8
ENDBRANCH   5   7
ENDBRANCH   4   5
ENDBRANCH   3   4
ENDBRANCH   1   3
BRANCH   1  18
HETATM   18  C   UNK N   1      26.199  27.066  -3.913  0.00  0.00     0.028 A 
HETATM   19  C   UNK N   1      25.258  27.144  -4.948  0.00  0.00     0.029 A 
HETATM   20  C   UNK N   1      25.279  26.205  -5.990  0.00  0.00     0.003 A 
HETATM   21  C   UNK N   1      26.236  25.181  -5.997  0.00  0.00     0.012 A 
HETATM   22  C   UNK N   1      27.173  25.089  -4.958  0.00  0.00    -0.024 A 
HETATM   23  C   UNK N   1      27.145  26.039  -3.928  0.00  0.00     0.041 A 
BRANCH  22  24
HETATM   24  C   UNK N   1      28.185  24.009  -4.913  0.00  0.00    -0.025 A 
HETATM   25  C   UNK N   1      28.424  23.175  -6.018  0.00  0.00     0.012 A 
HETATM   26  C   UNK N   1      29.384  22.159  -5.935  0.00  0.00     0.002 A 
HETATM   27  C   UNK N   1      30.103  21.963  -4.749  0.00  0.00     0.018 A 
HETATM   28  C   UNK N   1      29.868  22.788  -3.641  0.00  0.00     0.038 A 
HETATM   29  C   UNK N   1      28.915  23.804  -3.734  0.00  0.00     0.030 A 
BRANCH  28  30
HETATM   30  C   UNK N   1      30.598  22.599  -2.373  0.00  0.00     0.176 C 
HETATM   31  O   UNK N   1      30.192  23.121  -1.344  0.00  0.00    -0.646 OA
BRANCH  30  32
HETATM   32  O   UNK N   1      31.719  21.855  -2.341  0.00  0.00    -0.773 OA
HETATM   33  H   UNK N   1      32.385  21.982  -2.989  0.00  0.00     0.167 HD
ENDBRANCH  30  32
ENDBRANCH  28  30
ENDBRANCH  22  24
ENDBRANCH   1  18
TORSDOF 11
ENDMDL
MODEL 2
REMARK VINA RESULT:      -6.2      2.492      4.143
REMARK  11 active torsions:
REMARK  status: ('A' for Active; 'I' for Inactive)
REMARK    1  A    between atoms: C_6  and  C_8 
REMARK    2  A    between atoms: C_8  and  C_9 
REMARK    3  A    between atoms: C_8  and  O_29 
REMARK    4  A    between atoms: C_9  and  N_10 
REMARK    5  A    between atoms: N_10  and  C_11 
REMARK    6  A    between atoms: C_11  and  C_12 
REMARK    7  A    between atoms: C_12  and  N_13 
REMARK    8  A    between atoms: N_13  and  C_14 
REMARK    9  A    between atoms: C_18  and  C_20 
REMARK   10  A    between atoms: C_24  and  C_26 
REMARK   11  A    between atoms: C_26  and  O_28 
ROOT
HETATM    1  N   UNK N   1      28.714  28.530  -5.138  0.00  0.00    -0.388 N 
HETATM    2  H   UNK N   1      29.491  29.008  -4.766  0.00  0.00     0.159 HD
ENDROOT
BRANCH   1   3
HETATM    3  C   UNK N   1      27.378  28.954  -4.772  0.00  0.00     0.139 C 
BRANCH   3   4
HETATM    4  C   UNK N   1      27.103  28.756  -3.289  0.00  0.00     0.133 C 
BRANCH   4   5
HETATM    5  N   UNK N   1      25.918  27.925  -3.120  0.00  0.00    -0.417 N 
HETATM    6  H   UNK N   1      25.388  27.840  -2.253  0.00  0.00     0.153 HD
BRANCH   5   7
HETATM    7  C   UNK N   1      25.593  27.229  -4.370  0.00  0.00     0.150 C 
BRANCH   7   8
HETATM    8  C   UNK N   1      25.587  25.697  -4.224  0.00  0.00     0.168 C 
BRANCH   8   9
HETATM    9  C   UNK N   1      25.727  25.026  -5.574  0.00  0.00    -0.026 A 
HETATM   10  C   UNK N   1      25.954  23.644  -5.667  0.00  0.00     0.010 A 
HETATM   11  C   UNK N   1      26.097  23.034  -6.921  0.00  0.00     0.002 A 
HETATM   12  C   UNK N   1      26.018  23.801  -8.088  0.00  0.00     0.024 A 
HETATM   13  C   UNK N   1      25.794  25.177  -8.004  0.00  0.00     0.034 A 
HETATM   14 Cl   UNK N   1      25.701  26.145  -9.460  0.00  0.00    -0.084 Cl
HETATM   15  C   UNK N   1      25.651  25.785  -6.755  0.00  0.00     0.033 A 
ENDBRANCH   8   9
BRANCH   8  16
HETATM   16  O   UNK N   1      26.626  25.290  -3.379  0.00  0.00    -0.389 OA
HETATM   17  H   UNK N   1      27.425  25.832  -3.290  0.00  0.00     0.210 HD
ENDBRANCH   8  16
ENDBRANCH   7   8
ENDBRANCH   5   7
ENDBRANCH   4   5
ENDBRANCH   3   4
ENDBRANCH   1   3
BRANCH   1  18
HETATM   18  C   UNK N   1      28.928  27.439  -6.025  0.00  0.00     0.028 A 
HETATM   19  C   UNK N   1      28.889  27.637  -7.411  0.00  0.00     0.029 A 
HETATM   20  C   UNK N   1      29.151  26.569  -8.282  0.00  0.00     0.003 A 
HETATM   21  C   UNK N   1      29.445  25.298  -7.771  0.00  0.00     0.012 A 
HETATM   22  C   UNK N   1      29.474  25.088  -6.384  0.00  0.00    -0.024 A 
HETATM   23  C   UNK N   1      29.218  26.167  -5.526  0.00  0.00     0.041 A 
BRANCH  22  24
HETATM   24  C   UNK N   1      29.755  23.756  -5.802  0.00  0.00    -0.025 A 
HETATM   25  C   UNK N   1      29.513  22.572  -6.517  0.00  0.00     0.012 A 
HETATM   26  C   UNK N   1      29.785  21.330  -5.929  0.00  0.00     0.002 A 
HETATM   27  C   UNK N   1      30.291  21.263  -4.626  0.00  0.00     0.018 A 
HETATM   28  C   UNK N   1      30.531  22.439  -3.904  0.00  0.00     0.038 A 
HETATM   29  C   UNK N   1      30.265  23.673  -4.499  0.00  0.00     0.030 A 
BRANCH  28  30
HETATM   30  C   UNK N   1      31.051  22.402  -2.523  0.00  0.00     0.176 C 
HETATM   31  O   UNK N   1      30.576  23.134  -1.666  0.00  0.00    -0.646 OA
BRANCH  30  32
HETATM   32  O   UNK N   1      32.055  21.566  -2.199  0.00  0.00    -0.773 OA
HETATM   33  H   UNK N   1      32.414  20.991  -2.847  0.00  0.00     0.167 HD
ENDBRANCH  30  32
ENDBRANCH  28  30
ENDBRANCH  22  24
ENDBRANCH   1  18
TORSDOF 11
ENDMDL
MODEL 3
REMARK VINA RESULT:      -6.2     18.998     22.079
REMARK  11 active torsions:
REMARK  status: ('A' for Active; 'I' for Inactive)
REMARK    1  A    between atoms: C_6  and  C_8 
REMARK    2  A    between atoms: C_8  and  C_9 
REMARK    3  A    between atoms: C_8  and  O_29 
REMARK    4  A    between atoms: C_9  and  N_10 
REMARK    5  A    between atoms: N_10  and  C_11 
REMARK    6  A    between atoms: C_11  and  C_12 
REMARK    7  A    between atoms: C_12  and  N_13 
REMARK    8  A    between atoms: N_13  and  C_14 
REMARK    9  A    between atoms: C_18  and  C_20 
REMARK   10  A    between atoms: C_24  and  C_26 
REMARK   11  A    between atoms: C_26  and  O_28 
ROOT
HETATM    1  N   UNK N   1      35.529  13.750  11.914  0.00  0.00    -0.388 N 
HETATM    2  H   UNK N   1      36.444  13.680  11.556  0.00  0.00     0.159 HD
ENDROOT
BRANCH   1   3
HETATM    3  C   UNK N   1      34.678  14.837  11.473  0.00  0.00     0.139 C 
BRANCH   3   4
HETATM    4  C   UNK N   1      35.477  16.087  11.134  0.00  0.00     0.133 C 
BRANCH   4   5
HETATM    5  N   UNK N   1      34.688  16.947  10.261  0.00  0.00    -0.417 N 
HETATM    6  H   UNK N   1      34.059  17.680  10.586  0.00  0.00     0.153 HD
BRANCH   5   7
HETATM    7  C   UNK N   1      34.927  16.612   8.854  0.00  0.00     0.150 C 
BRANCH   7   8
HETATM    8  C   UNK N   1      34.437  17.701   7.883  0.00  0.00     0.168 C 
BRANCH   8   9
HETATM    9  C   UNK N   1      32.938  17.615   7.687  0.00  0.00    -0.026 A 
HETATM   10  C   UNK N   1      32.399  17.075   6.508  0.00  0.00     0.010 A 
HETATM   11  C   UNK N   1      31.010  17.012   6.330  0.00  0.00     0.002 A 
HETATM   12  C   UNK N   1      30.151  17.491   7.327  0.00  0.00     0.024 A 
HETATM   13  C   UNK N   1      30.680  18.030   8.501  0.00  0.00     0.034 A 
HETATM   14 Cl   UNK N   1      29.612  18.637   9.750  0.00  0.00    -0.084 Cl
HETATM   15  C   UNK N   1      32.063  18.092   8.680  0.00  0.00     0.033 A 
ENDBRANCH   8   9
BRANCH   8  16
HETATM   16  O   UNK N   1      34.782  18.968   8.367  0.00  0.00    -0.389 OA
HETATM   17  H   UNK N   1      34.216  19.414   9.017  0.00  0.00     0.210 HD
ENDBRANCH   8  16
ENDBRANCH   7   8
ENDBRANCH   5   7
ENDBRANCH   4   5
ENDBRANCH   3   4
ENDBRANCH   1   3
BRANCH   1  18
HETATM   18  C   UNK N   1      35.071  12.783  12.850  0.00  0.00     0.028 A 
HETATM   19  C   UNK N   1      34.497  11.585  12.404  0.00  0.00     0.029 A 
HETATM   20  C   UNK N   1      34.092  10.612  13.329  0.00  0.00     0.003 A 
HETATM   21  C   UNK N   1      34.254  10.835  14.703  0.00  0.00     0.012 A 
HETATM   22  C   UNK N   1      34.817  12.037  15.158  0.00  0.00    -0.024 A 
HETATM   23  C   UNK N   1      35.223  12.997  14.221  0.00  0.00     0.041 A 
BRANCH  22  24
HETATM   24  C   UNK N   1      34.982  12.324  16.602  0.00  0.00    -0.025 A 
HETATM   25  C   UNK N   1      35.000  13.638  17.096  0.00  0.00     0.012 A 
HETATM   26  C   UNK N   1      35.167  13.869  18.468  0.00  0.00     0.002 A 
HETATM   27  C   UNK N   1      35.324  12.793  19.349  0.00  0.00     0.018 A 
HETATM   28  C   UNK N   1      35.311  11.479  18.864  0.00  0.00     0.038 A 
HETATM   29  C   UNK N   1      35.137  11.256  17.497  0.00  0.00     0.030 A 
BRANCH  28  30
HETATM   30  C   UNK N   1      35.489  10.324  19.765  0.00  0.00     0.176 C 
HETATM   31  O   UNK N   1      35.290   9.188  19.358  0.00  0.00    -0.646 OA
BRANCH  30  32
HETATM   32  O   UNK N   1      35.866  10.514  21.044  0.00  0.00    -0.773 OA
HETATM   33  H   UNK N   1      35.551  11.258  21.520  0.00  0.00     0.167 HD
ENDBRANCH  30  32
ENDBRANCH  28  30
ENDBRANCH  22  24
ENDBRANCH   1  18
TORSDOF 11
ENDMDL
MODEL 4
REMARK VINA RESULT:      -6.1     18.633     21.790
REMARK  11 active torsions:
REMARK  status: ('A' for Active; 'I' for Inactive)
REMARK    1  A    between atoms: C_6  and  C_8 
REMARK    2  A    between atoms: C_8  and  C_9 
REMARK    3  A    between atoms: C_8  and  O_29 
REMARK    4  A    between atoms: C_9  and  N_10 
REMARK    5  A    between atoms: N_10  and  C_11 
REMARK    6  A    between atoms: C_11  and  C_12 
REMARK    7  A    between atoms: C_12  and  N_13 
REMARK    8  A    between atoms: N_13  and  C_14 
REMARK    9  A    between atoms: C_18  and  C_20 
REMARK   10  A    between atoms: C_24  and  C_26 
REMARK   11  A    between atoms: C_26  and  O_28 
ROOT
HETATM    1  N   UNK N   1      36.682  14.408  12.302  0.00  0.00    -0.388 N 
HETATM    2  H   UNK N   1      37.547  14.874  12.377  0.00  0.00     0.159 HD
ENDROOT
BRANCH   1   3
HETATM    3  C   UNK N   1      35.561  15.091  11.689  0.00  0.00     0.139 C 
BRANCH   3   4
HETATM    4  C   UNK N   1      36.004  16.038  10.583  0.00  0.00     0.133 C 
BRANCH   4   5
HETATM    5  N   UNK N   1      35.102  17.182  10.532  0.00  0.00    -0.417 N 
HETATM    6  H   UNK N   1      35.161  17.994  11.145  0.00  0.00     0.153 HD
BRANCH   5   7
HETATM    7  C   UNK N   1      34.101  17.002   9.476  0.00  0.00     0.150 C 
BRANCH   7   8
HETATM    8  C   UNK N   1      34.512  17.643   8.138  0.00  0.00     0.168 C 
BRANCH   8   9
HETATM    9  C   UNK N   1      33.415  17.488   7.106  0.00  0.00    -0.026 A 
HETATM   10  C   UNK N   1      33.714  17.503   5.734  0.00  0.00     0.010 A 
HETATM   11  C   UNK N   1      32.690  17.373   4.786  0.00  0.00     0.002 A 
HETATM   12  C   UNK N   1      31.362  17.230   5.202  0.00  0.00     0.024 A 
HETATM   13  C   UNK N   1      31.056  17.216   6.564  0.00  0.00     0.034 A 
HETATM   14 Cl   UNK N   1      29.395  17.046   7.092  0.00  0.00    -0.084 Cl
HETATM   15  C   UNK N   1      32.075  17.345   7.509  0.00  0.00     0.033 A 
ENDBRANCH   8   9
BRANCH   8  16
HETATM   16  O   UNK N   1      34.802  19.000   8.324  0.00  0.00    -0.389 OA
HETATM   17  H   UNK N   1      34.398  19.491   9.057  0.00  0.00     0.210 HD
ENDBRANCH   8  16
ENDBRANCH   7   8
ENDBRANCH   5   7
ENDBRANCH   4   5
ENDBRANCH   3   4
ENDBRANCH   1   3
BRANCH   1  18
HETATM   18  C   UNK N   1      36.562  13.081  12.795  0.00  0.00     0.028 A 
HETATM   19  C   UNK N   1      36.731  11.989  11.933  0.00  0.00     0.029 A 
HETATM   20  C   UNK N   1      36.661  10.680  12.434  0.00  0.00     0.003 A 
HETATM   21  C   UNK N   1      36.415  10.458  13.795  0.00  0.00     0.012 A 
HETATM   22  C   UNK N   1      36.232  11.546  14.662  0.00  0.00    -0.024 A 
HETATM   23  C   UNK N   1      36.312  12.847  14.149  0.00  0.00     0.041 A 
BRANCH  22  24
HETATM   24  C   UNK N   1      35.945  11.355  16.102  0.00  0.00    -0.025 A 
HETATM   25  C   UNK N   1      35.919  10.080  16.688  0.00  0.00     0.012 A 
HETATM   26  C   UNK N   1      35.636   9.939  18.053  0.00  0.00     0.002 A 
HETATM   27  C   UNK N   1      35.369  11.068  18.836  0.00  0.00     0.018 A 
HETATM   28  C   UNK N   1      35.388  12.344  18.259  0.00  0.00     0.038 A 
HETATM   29  C   UNK N   1      35.679  12.477  16.900  0.00  0.00     0.030 A 
BRANCH  28  30
HETATM   30  C   UNK N   1      35.096  13.553  19.055  0.00  0.00     0.176 C 
HETATM   31  O   UNK N   1      35.293  14.664  18.583  0.00  0.00    -0.646 OA
BRANCH  30  32
HETATM   32  O   UNK N   1      34.618  13.440  20.308  0.00  0.00    -0.773 OA
HETATM   33  H   UNK N   1      35.131  13.737  21.035  0.00  0.00     0.167 HD
ENDBRANCH  30  32
ENDBRANCH  28  30
ENDBRANCH  22  24
ENDBRANCH   1  18
TORSDOF 11
ENDMDL
MODEL 5
REMARK VINA RESULT:      -6.1     18.151     21.293
REMARK  11 active torsions:
REMARK  status: ('A' for Active; 'I' for Inactive)
REMARK    1  A    between atoms: C_6  and  C_8 
REMARK    2  A    between atoms: C_8  and  C_9 
REMARK    3  A    between atoms: C_8  and  O_29 
REMARK    4  A    between atoms: C_9  and  N_10 
REMARK    5  A    between atoms: N_10  and  C_11 
REMARK    6  A    between atoms: C_11  and  C_12 
REMARK    7  A    between atoms: C_12  and  N_13 
REMARK    8  A    between atoms: N_13  and  C_14 
REMARK    9  A    between atoms: C_18  and  C_20 
REMARK   10  A    between atoms: C_24  and  C_26 
REMARK   11  A    between atoms: C_26  and  O_28 
ROOT
HETATM    1  N   UNK N   1      35.872  13.791  11.518  0.00  0.00    -0.388 N 
HETATM    2  H   UNK N   1      36.851  13.826  11.418  0.00  0.00     0.159 HD
ENDROOT
BRANCH   1   3
HETATM    3  C   UNK N   1      35.059  14.828  10.917  0.00  0.00     0.139 C 
BRANCH   3   4
HETATM    4  C   UNK N   1      35.586  16.221  11.233  0.00  0.00     0.133 C 
BRANCH   4   5
HETATM    5  N   UNK N   1      34.931  17.196  10.371  0.00  0.00    -0.417 N 
HETATM    6  H   UNK N   1      34.771  18.173  10.618  0.00  0.00     0.153 HD
BRANCH   5   7
HETATM    7  C   UNK N   1      34.535  16.580   9.101  0.00  0.00     0.150 C 
BRANCH   7   8
HETATM    8  C   UNK N   1      34.580  17.558   7.914  0.00  0.00     0.168 C 
BRANCH   8   9
HETATM    9  C   UNK N   1      33.333  17.434   7.064  0.00  0.00    -0.026 A 
HETATM   10  C   UNK N   1      32.067  17.323   7.662  0.00  0.00     0.010 A 
HETATM   11  C   UNK N   1      30.920  17.193   6.867  0.00  0.00     0.002 A 
HETATM   12  C   UNK N   1      31.030  17.171   5.472  0.00  0.00     0.024 A 
HETATM   13  C   UNK N   1      32.285  17.279   4.871  0.00  0.00     0.034 A 
HETATM   14 Cl   UNK N   1      32.432  17.244   3.126  0.00  0.00    -0.084 Cl
HETATM   15  C   UNK N   1      33.429  17.409   5.662  0.00  0.00     0.033 A 
ENDBRANCH   8   9
BRANCH   8  16
HETATM   16  O   UNK N   1      34.710  18.872   8.379  0.00  0.00    -0.389 OA
HETATM   17  H   UNK N   1      33.932  19.362   8.688  0.00  0.00     0.210 HD
ENDBRANCH   8  16
ENDBRANCH   7   8
ENDBRANCH   5   7
ENDBRANCH   4   5
ENDBRANCH   3   4
ENDBRANCH   1   3
BRANCH   1  18
HETATM   18  C   UNK N   1      35.285  12.722  12.249  0.00  0.00     0.028 A 
HETATM   19  C   UNK N   1      34.618  11.689  11.577  0.00  0.00     0.029 A 
HETATM   20  C   UNK N   1      34.085  10.610  12.298  0.00  0.00     0.003 A 
HETATM   21  C   UNK N   1      34.210  10.563  13.693  0.00  0.00     0.012 A 
HETATM   22  C   UNK N   1      34.866  11.599  14.374  0.00  0.00    -0.024 A 
HETATM   23  C   UNK N   1      35.400  12.667  13.640  0.00  0.00     0.041 A 
BRANCH  22  24
HETATM   24  C   UNK N   1      34.998  11.601  15.849  0.00  0.00    -0.025 A 
HETATM   25  C   UNK N   1      35.001  10.410  16.592  0.00  0.00     0.012 A 
HETATM   26  C   UNK N   1      35.121  10.453  17.987  0.00  0.00     0.002 A 
HETATM   27  C   UNK N   1      35.228  11.683  18.647  0.00  0.00     0.018 A 
HETATM   28  C   UNK N   1      35.221  12.877  17.914  0.00  0.00     0.038 A 
HETATM   29  C   UNK N   1      35.110  12.825  16.523  0.00  0.00     0.030 A 
BRANCH  28  30
HETATM   30  C   UNK N   1      35.318  14.190  18.581  0.00  0.00     0.176 C 
HETATM   31  O   UNK N   1      34.638  14.432  19.567  0.00  0.00    -0.646 OA
BRANCH  30  32
HETATM   32  O   UNK N   1      36.153  15.133  18.103  0.00  0.00    -0.773 OA
HETATM   33  H   UNK N   1      36.975  14.884  17.726  0.00  0.00     0.167 HD
ENDBRANCH  30  32
ENDBRANCH  28  30
ENDBRANCH  22  24
ENDBRANCH   1  18
TORSDOF 11
ENDMDL
MODEL 6
REMARK VINA RESULT:      -6.1     16.977     20.264
REMARK  11 active torsions:
REMARK  status: ('A' for Active; 'I' for Inactive)
REMARK    1  A    between atoms: C_6  and  C_8 
REMARK    2  A    between atoms: C_8  and  C_9 
REMARK    3  A    between atoms: C_8  and  O_29 
REMARK    4  A    between atoms: C_9  and  N_10 
REMARK    5  A    between atoms: N_10  and  C_11 
REMARK    6  A    between atoms: C_11  and  C_12 
REMARK    7  A    between atoms: C_12  and  N_13 
REMARK    8  A    between atoms: N_13  and  C_14 
REMARK    9  A    between atoms: C_18  and  C_20 
REMARK   10  A    between atoms: C_24  and  C_26 
REMARK   11  A    between atoms: C_26  and  O_28 
ROOT
HETATM    1  N   UNK N   1      34.615  16.890  10.406  0.00  0.00    -0.388 N 
HETATM    2  H   UNK N   1      34.083  17.511  10.956  0.00  0.00     0.159 HD
ENDROOT
BRANCH   1   3
HETATM    3  C   UNK N   1      35.788  16.263  10.980  0.00  0.00     0.139 C 
BRANCH   3   4
HETATM    4  C   UNK N   1      35.425  15.105  11.897  0.00  0.00     0.133 C 
BRANCH   4   5
HETATM    5  N   UNK N   1      36.641  14.530  12.459  0.00  0.00    -0.417 N 
HETATM    6  H   UNK N   1      37.587  14.784  12.176  0.00  0.00     0.153 HD
BRANCH   5   7
HETATM    7  C   UNK N   1      36.314  13.538  13.489  0.00  0.00     0.150 C 
BRANCH   7   8
HETATM    8  C   UNK N   1      36.291  14.129  14.910  0.00  0.00     0.168 C 
BRANCH   8   9
HETATM    9  C   UNK N   1      35.914  13.072  15.927  0.00  0.00    -0.026 A 
HETATM   10  C   UNK N   1      35.852  11.717  15.563  0.00  0.00     0.010 A 
HETATM   11  C   UNK N   1      35.489  10.748  16.507  0.00  0.00     0.002 A 
HETATM   12  C   UNK N   1      35.181  11.125  17.819  0.00  0.00     0.024 A 
HETATM   13  C   UNK N   1      35.239  12.470  18.189  0.00  0.00     0.034 A 
HETATM   14 Cl   UNK N   1      34.850  12.952  19.827  0.00  0.00    -0.084 Cl
HETATM   15  C   UNK N   1      35.603  13.437  17.249  0.00  0.00     0.033 A 
ENDBRANCH   8   9
BRANCH   8  16
HETATM   16  O   UNK N   1      37.543  14.669  15.227  0.00  0.00    -0.389 OA
HETATM   17  H   UNK N   1      37.744  15.595  15.019  0.00  0.00     0.210 HD
ENDBRANCH   8  16
ENDBRANCH   7   8
ENDBRANCH   5   7
ENDBRANCH   4   5
ENDBRANCH   3   4
ENDBRANCH   1   3
BRANCH   1  18
HETATM   18  C   UNK N   1      34.215  16.627   9.067  0.00  0.00     0.028 A 
HETATM   19  C   UNK N   1      35.076  15.953   8.192  0.00  0.00     0.029 A 
HETATM   20  C   UNK N   1      34.658  15.651   6.888  0.00  0.00     0.003 A 
HETATM   21  C   UNK N   1      33.381  16.027   6.451  0.00  0.00     0.012 A 
HETATM   22  C   UNK N   1      32.517  16.714   7.318  0.00  0.00    -0.024 A 
HETATM   23  C   UNK N   1      32.946  17.002   8.620  0.00  0.00     0.041 A 
BRANCH  22  24
HETATM   24  C   UNK N   1      31.169  17.152   6.889  0.00  0.00    -0.025 A 
HETATM   25  C   UNK N   1      30.823  17.257   5.532  0.00  0.00     0.012 A 
HETATM   26  C   UNK N   1      29.540  17.683   5.166  0.00  0.00     0.002 A 
HETATM   27  C   UNK N   1      28.601  18.014   6.149  0.00  0.00     0.018 A 
HETATM   28  C   UNK N   1      28.938  17.916   7.505  0.00  0.00     0.038 A 
HETATM   29  C   UNK N   1      30.216  17.484   7.862  0.00  0.00     0.030 A 
BRANCH  28  30
HETATM   30  C   UNK N   1      27.975  18.272   8.565  0.00  0.00     0.176 C 
HETATM   31  O   UNK N   1      27.803  17.524   9.518  0.00  0.00    -0.646 OA
BRANCH  30  32
HETATM   32  O   UNK N   1      27.275  19.419   8.488  0.00  0.00    -0.773 OA
HETATM   33  H   UNK N   1      27.129  19.933   9.259  0.00  0.00     0.167 HD
ENDBRANCH  30  32
ENDBRANCH  28  30
ENDBRANCH  22  24
ENDBRANCH   1  18
TORSDOF 11
ENDMDL
MODEL 7
REMARK VINA RESULT:      -6.0      2.085      3.592
REMARK  11 active torsions:
REMARK  status: ('A' for Active; 'I' for Inactive)
REMARK    1  A    between atoms: C_6  and  C_8 
REMARK    2  A    between atoms: C_8  and  C_9 
REMARK    3  A    between atoms: C_8  and  O_29 
REMARK    4  A    between atoms: C_9  and  N_10 
REMARK    5  A    between atoms: N_10  and  C_11 
REMARK    6  A    between atoms: C_11  and  C_12 
REMARK    7  A    between atoms: C_12  and  N_13 
REMARK    8  A    between atoms: N_13  and  C_14 
REMARK    9  A    between atoms: C_18  and  C_20 
REMARK   10  A    between atoms: C_24  and  C_26 
REMARK   11  A    between atoms: C_26  and  O_28 
ROOT
HETATM    1  N   UNK N   1      30.058  28.789  -5.573  0.00  0.00    -0.388 N 
HETATM    2  H   UNK N   1      30.538  28.697  -4.718  0.00  0.00     0.159 HD
ENDROOT
BRANCH   1   3
HETATM    3  C   UNK N   1      30.011  30.082  -6.224  0.00  0.00     0.139 C 
BRANCH   3   4
HETATM    4  C   UNK N   1      28.764  30.868  -5.843  0.00  0.00     0.133 C 
BRANCH   4   5
HETATM    5  N   UNK N   1      28.558  30.786  -4.403  0.00  0.00    -0.417 N 
HETATM    6  H   UNK N   1      29.264  31.011  -3.703  0.00  0.00     0.153 HD
BRANCH   5   7
HETATM    7  C   UNK N   1      27.195  30.336  -4.101  0.00  0.00     0.150 C 
BRANCH   7   8
HETATM    8  C   UNK N   1      27.156  29.079  -3.214  0.00  0.00     0.168 C 
BRANCH   8   9
HETATM    9  C   UNK N   1      26.496  27.926  -3.942  0.00  0.00    -0.026 A 
HETATM   10  C   UNK N   1      25.574  28.164  -4.973  0.00  0.00     0.010 A 
HETATM   11  C   UNK N   1      24.957  27.091  -5.631  0.00  0.00     0.002 A 
HETATM   12  C   UNK N   1      25.256  25.775  -5.261  0.00  0.00     0.024 A 
HETATM   13  C   UNK N   1      26.171  25.530  -4.235  0.00  0.00     0.034 A 
HETATM   14 Cl   UNK N   1      26.544  23.886  -3.761  0.00  0.00    -0.084 Cl
HETATM   15  C   UNK N   1      26.786  26.599  -3.580  0.00  0.00     0.033 A 
ENDBRANCH   8   9
BRANCH   8  16
HETATM   16  O   UNK N   1      28.454  28.720  -2.832  0.00  0.00    -0.389 OA
HETATM   17  H   UNK N   1      28.686  27.787  -2.703  0.00  0.00     0.210 HD
ENDBRANCH   8  16
ENDBRANCH   7   8
ENDBRANCH   5   7
ENDBRANCH   4   5
ENDBRANCH   3   4
ENDBRANCH   1   3
BRANCH   1  18
HETATM   18  C   UNK N   1      29.427  27.649  -6.143  0.00  0.00     0.028 A 
HETATM   19  C   UNK N   1      28.501  27.801  -7.183  0.00  0.00     0.029 A 
HETATM   20  C   UNK N   1      27.918  26.672  -7.777  0.00  0.00     0.003 A 
HETATM   21  C   UNK N   1      28.255  25.387  -7.329  0.00  0.00     0.012 A 
HETATM   22  C   UNK N   1      29.172  25.227  -6.279  0.00  0.00    -0.024 A 
HETATM   23  C   UNK N   1      29.751  26.365  -5.701  0.00  0.00     0.041 A 
BRANCH  22  24
HETATM   24  C   UNK N   1      29.535  23.890  -5.758  0.00  0.00    -0.025 A 
HETATM   25  C   UNK N   1      29.357  22.726  -6.523  0.00  0.00     0.012 A 
HETATM   26  C   UNK N   1      29.706  21.477  -5.993  0.00  0.00     0.002 A 
HETATM   27  C   UNK N   1      30.225  21.383  -4.696  0.00  0.00     0.018 A 
HETATM   28  C   UNK N   1      30.403  22.538  -3.925  0.00  0.00     0.038 A 
HETATM   29  C   UNK N   1      30.060  23.780  -4.463  0.00  0.00     0.030 A 
BRANCH  28  30
HETATM   30  C   UNK N   1      30.934  22.471  -2.550  0.00  0.00     0.176 C 
HETATM   31  O   UNK N   1      30.448  23.163  -1.666  0.00  0.00    -0.646 OA
BRANCH  30  32
HETATM   32  O   UNK N   1      31.963  21.653  -2.260  0.00  0.00    -0.773 OA
HETATM   33  H   UNK N   1      31.867  20.995  -1.599  0.00  0.00     0.167 HD
ENDBRANCH  30  32
ENDBRANCH  28  30
ENDBRANCH  22  24
ENDBRANCH   1  18
TORSDOF 11
ENDMDL
MODEL 8
REMARK VINA RESULT:      -6.0     11.380     13.778
REMARK  11 active torsions:
REMARK  status: ('A' for Active; 'I' for Inactive)
REMARK    1  A    between atoms: C_6  and  C_8 
REMARK    2  A    between atoms: C_8  and  C_9 
REMARK    3  A    between atoms: C_8  and  O_29 
REMARK    4  A    between atoms: C_9  and  N_10 
REMARK    5  A    between atoms: N_10  and  C_11 
REMARK    6  A    between atoms: C_11  and  C_12 
REMARK    7  A    between atoms: C_12  and  N_13 
REMARK    8  A    between atoms: N_13  and  C_14 
REMARK    9  A    between atoms: C_18  and  C_20 
REMARK   10  A    between atoms: C_24  and  C_26 
REMARK   11  A    between atoms: C_26  and  O_28 
ROOT
HETATM    1  N   UNK N   1      26.573  18.100   5.875  0.00  0.00    -0.388 N 
HETATM    2  H   UNK N   1      26.172  17.223   6.076  0.00  0.00     0.159 HD
ENDROOT
BRANCH   1   3
HETATM    3  C   UNK N   1      27.747  18.526   6.610  0.00  0.00     0.139 C 
BRANCH   3   4
HETATM    4  C   UNK N   1      27.914  17.759   7.914  0.00  0.00     0.133 C 
BRANCH   4   5
HETATM    5  N   UNK N   1      28.339  18.674   8.966  0.00  0.00    -0.417 N 
HETATM    6  H   UNK N   1      27.719  19.310   9.466  0.00  0.00     0.153 HD
BRANCH   5   7
HETATM    7  C   UNK N   1      29.780  18.550   9.206  0.00  0.00     0.150 C 
BRANCH   7   8
HETATM    8  C   UNK N   1      30.345  17.178   8.796  0.00  0.00     0.168 C 
BRANCH   8   9
HETATM    9  C   UNK N   1      31.566  17.339   7.916  0.00  0.00    -0.026 A 
HETATM   10  C   UNK N   1      32.802  17.715   8.466  0.00  0.00     0.010 A 
HETATM   11  C   UNK N   1      33.924  17.875   7.642  0.00  0.00     0.002 A 
HETATM   12  C   UNK N   1      33.817  17.666   6.262  0.00  0.00     0.024 A 
HETATM   13  C   UNK N   1      32.591  17.294   5.707  0.00  0.00     0.034 A 
HETATM   14 Cl   UNK N   1      32.448  17.036   3.980  0.00  0.00    -0.084 Cl
HETATM   15  C   UNK N   1      31.474  17.132   6.528  0.00  0.00     0.033 A 
ENDBRANCH   8   9
BRANCH   8  16
HETATM   16  O   UNK N   1      30.674  16.434   9.935  0.00  0.00    -0.389 OA
HETATM   17  H   UNK N   1      30.364  15.519  10.028  0.00  0.00     0.210 HD
ENDBRANCH   8  16
ENDBRANCH   7   8
ENDBRANCH   5   7
ENDBRANCH   4   5
ENDBRANCH   3   4
ENDBRANCH   1   3
BRANCH   1  18
HETATM   18  C   UNK N   1      25.991  18.920   4.870  0.00  0.00     0.028 A 
HETATM   19  C   UNK N   1      26.782  19.823   4.148  0.00  0.00     0.029 A 
HETATM   20  C   UNK N   1      26.214  20.593   3.124  0.00  0.00     0.003 A 
HETATM   21  C   UNK N   1      24.852  20.468   2.820  0.00  0.00     0.012 A 
HETATM   22  C   UNK N   1      24.049  19.576   3.547  0.00  0.00    -0.024 A 
HETATM   23  C   UNK N   1      24.633  18.807   4.563  0.00  0.00     0.041 A 
BRANCH  22  24
HETATM   24  C   UNK N   1      22.601  19.432   3.277  0.00  0.00    -0.025 A 
HETATM   25  C   UNK N   1      21.838  20.491   2.758  0.00  0.00     0.012 A 
HETATM   26  C   UNK N   1      20.468  20.319   2.522  0.00  0.00     0.002 A 
HETATM   27  C   UNK N   1      19.852  19.095   2.812  0.00  0.00     0.018 A 
HETATM   28  C   UNK N   1      20.604  18.036   3.334  0.00  0.00     0.038 A 
HETATM   29  C   UNK N   1      21.971  18.212   3.558  0.00  0.00     0.030 A 
BRANCH  28  30
HETATM   30  C   UNK N   1      19.982  16.739   3.663  0.00  0.00     0.176 C 
HETATM   31  O   UNK N   1      20.511  15.694   3.311  0.00  0.00    -0.646 OA
BRANCH  30  32
HETATM   32  O   UNK N   1      18.823  16.697   4.347  0.00  0.00    -0.773 OA
HETATM   33  H   UNK N   1      18.108  17.247   4.092  0.00  0.00     0.167 HD
ENDBRANCH  30  32
ENDBRANCH  28  30
ENDBRANCH  22  24
ENDBRANCH   1  18
TORSDOF 11
ENDMDL
MODEL 9
REMARK VINA RESULT:      -5.9      3.494      5.673
REMARK  11 active torsions:
REMARK  status: ('A' for Active; 'I' for Inactive)
REMARK    1  A    between atoms: C_6  and  C_8 
REMARK    2  A    between atoms: C_8  and  C_9 
REMARK    3  A    between atoms: C_8  and  O_29 
REMARK    4  A    between atoms: C_9  and  N_10 
REMARK    5  A    between atoms: N_10  and  C_11 
REMARK    6  A    between atoms: C_11  and  C_12 
REMARK    7  A    between atoms: C_12  and  N_13 
REMARK    8  A    between atoms: N_13  and  C_14 
REMARK    9  A    between atoms: C_18  and  C_20 
REMARK   10  A    between atoms: C_24  and  C_26 
REMARK   11  A    between atoms: C_26  and  O_28 
ROOT
HETATM    1  N   UNK N   1      28.134  26.505  -9.495  0.00  0.00    -0.388 N 
HETATM    2  H   UNK N   1      28.720  26.849 -10.208  0.00  0.00     0.159 HD
ENDROOT
BRANCH   1   3
HETATM    3  C   UNK N   1      26.781  26.103  -9.822  0.00  0.00     0.139 C 
BRANCH   3   4
HETATM    4  C   UNK N   1      26.752  24.863 -10.704  0.00  0.00     0.133 C 
BRANCH   4   5
HETATM    5  N   UNK N   1      25.998  23.809 -10.038  0.00  0.00    -0.417 N 
HETATM    6  H   UNK N   1      25.894  22.858 -10.392  0.00  0.00     0.153 HD
BRANCH   5   7
HETATM    7  C   UNK N   1      25.413  24.304  -8.788  0.00  0.00     0.150 C 
BRANCH   7   8
HETATM    8  C   UNK N   1      25.633  23.352  -7.599  0.00  0.00     0.168 C 
BRANCH   8   9
HETATM    9  C   UNK N   1      25.868  24.130  -6.321  0.00  0.00    -0.026 A 
HETATM   10  C   UNK N   1      26.340  23.487  -5.167  0.00  0.00     0.010 A 
HETATM   11  C   UNK N   1      26.541  24.213  -3.985  0.00  0.00     0.002 A 
HETATM   12  C   UNK N   1      26.268  25.585  -3.948  0.00  0.00     0.024 A 
HETATM   13  C   UNK N   1      25.797  26.232  -5.092  0.00  0.00     0.034 A 
HETATM   14 Cl   UNK N   1      25.447  27.947  -5.052  0.00  0.00    -0.084 Cl
HETATM   15  C   UNK N   1      25.598  25.510  -6.270  0.00  0.00     0.033 A 
ENDBRANCH   8   9
BRANCH   8  16
HETATM   16  O   UNK N   1      24.526  22.509  -7.446  0.00  0.00    -0.389 OA
HETATM   17  H   UNK N   1      24.235  22.239  -6.561  0.00  0.00     0.210 HD
ENDBRANCH   8  16
ENDBRANCH   7   8
ENDBRANCH   5   7
ENDBRANCH   4   5
ENDBRANCH   3   4
ENDBRANCH   1   3
BRANCH   1  18
HETATM   18  C   UNK N   1      28.633  26.413  -8.167  0.00  0.00     0.028 A 
HETATM   19  C   UNK N   1      28.763  27.565  -7.380  0.00  0.00     0.029 A 
HETATM   20  C   UNK N   1      29.208  27.465  -6.054  0.00  0.00     0.003 A 
HETATM   21  C   UNK N   1      29.532  26.213  -5.511  0.00  0.00     0.012 A 
HETATM   22  C   UNK N   1      29.417  25.057  -6.297  0.00  0.00    -0.024 A 
HETATM   23  C   UNK N   1      28.964  25.173  -7.618  0.00  0.00     0.041 A 
BRANCH  22  24
HETATM   24  C   UNK N   1      29.773  23.719  -5.772  0.00  0.00    -0.025 A 
HETATM   25  C   UNK N   1      29.603  22.555  -6.539  0.00  0.00     0.012 A 
HETATM   26  C   UNK N   1      29.944  21.306  -6.005  0.00  0.00     0.002 A 
HETATM   27  C   UNK N   1      30.448  21.212  -4.702  0.00  0.00     0.018 A 
HETATM   28  C   UNK N   1      30.618  22.367  -3.929  0.00  0.00     0.038 A 
HETATM   29  C   UNK N   1      30.283  23.609  -4.471  0.00  0.00     0.030 A 
BRANCH  28  30
HETATM   30  C   UNK N   1      31.134  22.299  -2.548  0.00  0.00     0.176 C 
HETATM   31  O   UNK N   1      30.646  23.001  -1.672  0.00  0.00    -0.646 OA
BRANCH  30  32
HETATM   32  O   UNK N   1      32.150  21.470  -2.243  0.00  0.00    -0.773 OA
HETATM   33  H   UNK N   1      32.071  20.551  -2.413  0.00  0.00     0.167 HD
ENDBRANCH  30  32
ENDBRANCH  28  30
ENDBRANCH  22  24
ENDBRANCH   1  18
TORSDOF 11
ENDMDL
