MODEL 1
REMARK VINA RESULT:      -4.9      0.000      0.000
REMARK  0 active torsions:
REMARK  status: ('A' for Active; 'I' for Inactive)
ROOT
HETATM    1  C   UNK N   1      22.340  12.877  10.214  0.00  0.00     0.046 A 
HETATM    2  C   UNK N   1      20.978  12.948  10.140  0.00  0.00     0.274 A 
HETATM    3  N   UNK N   1      20.440  12.375  11.245  0.00  0.00    -0.225 N 
HETATM    4  O   UNK N   1      21.445  11.967  11.973  0.00  0.00    -0.237 OA
HETATM    5  C   UNK N   1      22.590  12.251  11.386  0.00  0.00     0.105 A 
HETATM    6  O   UNK N   1      20.330  13.442   9.235  0.00  0.00    -0.266 OA
HETATM    7  C   UNK N   1      23.945  11.947  11.901  0.00  0.00     0.182 A 
HETATM    8  N   UNK N   1      25.050  12.384  11.025  0.00  0.00    -0.415 N 
HETATM    9  C   UNK N   1      24.805  13.074   9.734  0.00  0.00     0.119 A 
HETATM   10  C   UNK N   1      23.366  13.353   9.269  0.00  0.00     0.066 A 
HETATM   11  H   UNK N   1      19.482  12.286  11.457  0.00  0.00     0.198 HD
HETATM   12  H   UNK N   1      26.011  12.208  11.316  0.00  0.00     0.153 HD
ENDROOT
TORSDOF 0
ENDMDL
MODEL 2
REMARK VINA RESULT:      -4.8      1.333      2.330
REMARK  0 active torsions:
REMARK  status: ('A' for Active; 'I' for Inactive)
ROOT
HETATM    1  C   UNK N   1      22.209  12.879  10.421  0.00  0.00     0.046 A 
HETATM    2  C   UNK N   1      21.019  13.274   9.879  0.00  0.00     0.274 A 
HETATM    3  N   UNK N   1      21.252  13.911   8.704  0.00  0.00    -0.225 N 
HETATM    4  O   UNK N   1      22.547  13.903   8.534  0.00  0.00    -0.237 OA
HETATM    5  C   UNK N   1      23.146  13.296   9.540  0.00  0.00     0.105 A 
HETATM    6  O   UNK N   1      19.914  13.094  10.358  0.00  0.00    -0.266 OA
HETATM    7  C   UNK N   1      24.602  13.090   9.706  0.00  0.00     0.182 A 
HETATM    8  N   UNK N   1      24.987  12.373  10.937  0.00  0.00    -0.415 N 
HETATM    9  C   UNK N   1      23.981  11.904  11.922  0.00  0.00     0.119 A 
HETATM   10  C   UNK N   1      22.484  12.158  11.676  0.00  0.00     0.066 A 
HETATM   11  H   UNK N   1      20.580  14.300   8.100  0.00  0.00     0.198 HD
HETATM   12  H   UNK N   1      25.975  12.195  11.118  0.00  0.00     0.153 HD
ENDROOT
TORSDOF 0
ENDMDL
MODEL 3
REMARK VINA RESULT:      -4.8     11.169     12.658
REMARK  0 active torsions:
REMARK  status: ('A' for Active; 'I' for Inactive)
ROOT
HETATM    1  C   UNK N   1      34.403  17.116   9.229  0.00  0.00     0.046 A 
HETATM    2  C   UNK N   1      34.482  18.190   8.389  0.00  0.00     0.274 A 
HETATM    3  N   UNK N   1      33.506  18.100   7.453  0.00  0.00    -0.225 N 
HETATM    4  O   UNK N   1      32.848  17.002   7.714  0.00  0.00    -0.237 OA
HETATM    5  C   UNK N   1      33.358  16.393   8.766  0.00  0.00     0.105 A 
HETATM    6  O   UNK N   1      35.294  19.097   8.453  0.00  0.00    -0.266 OA
HETATM    7  C   UNK N   1      32.886  15.124   9.367  0.00  0.00     0.182 A 
HETATM    8  N   UNK N   1      33.653  14.678  10.546  0.00  0.00    -0.415 N 
HETATM    9  C   UNK N   1      34.803  15.452  11.076  0.00  0.00     0.119 A 
HETATM   10  C   UNK N   1      35.231  16.762  10.395  0.00  0.00     0.066 A 
HETATM   11  H   UNK N   1      33.327  18.735   6.722  0.00  0.00     0.198 HD
HETATM   12  H   UNK N   1      33.384  13.812  11.012  0.00  0.00     0.153 HD
ENDROOT
TORSDOF 0
ENDMDL
MODEL 4
REMARK VINA RESULT:      -4.7     10.064     11.168
REMARK  0 active torsions:
REMARK  status: ('A' for Active; 'I' for Inactive)
ROOT
HETATM    1  C   UNK N   1      20.553  19.169   1.644  0.00  0.00     0.046 A 
HETATM    2  C   UNK N   1      20.904  20.436   1.274  0.00  0.00     0.274 A 
HETATM    3  N   UNK N   1      20.988  21.219   2.378  0.00  0.00    -0.225 N 
HETATM    4  O   UNK N   1      20.697  20.451   3.394  0.00  0.00    -0.237 OA
HETATM    5  C   UNK N   1      20.433  19.224   2.990  0.00  0.00     0.105 A 
HETATM    6  O   UNK N   1      21.112  20.823   0.137  0.00  0.00    -0.266 OA
HETATM    7  C   UNK N   1      20.063  18.074   3.846  0.00  0.00     0.182 A 
HETATM    8  N   UNK N   1      19.823  16.814   3.115  0.00  0.00    -0.415 N 
HETATM    9  C   UNK N   1      19.948  16.725   1.638  0.00  0.00     0.119 A 
HETATM   10  C   UNK N   1      20.337  17.968   0.820  0.00  0.00     0.066 A 
HETATM   11  H   UNK N   1      21.222  22.175   2.408  0.00  0.00     0.198 HD
HETATM   12  H   UNK N   1      19.564  15.979   3.640  0.00  0.00     0.153 HD
ENDROOT
TORSDOF 0
ENDMDL
MODEL 5
REMARK VINA RESULT:      -4.6      1.737      2.774
REMARK  0 active torsions:
REMARK  status: ('A' for Active; 'I' for Inactive)
ROOT
HETATM    1  C   UNK N   1      23.399  12.318  10.753  0.00  0.00     0.046 A 
HETATM    2  C   UNK N   1      23.090  12.005  12.046  0.00  0.00     0.274 A 
HETATM    3  N   UNK N   1      21.756  11.779  12.146  0.00  0.00    -0.225 N 
HETATM    4  O   UNK N   1      21.265  11.950  10.947  0.00  0.00    -0.237 OA
HETATM    5  C   UNK N   1      22.218  12.271  10.095  0.00  0.00     0.105 A 
HETATM    6  O   UNK N   1      23.873  11.933  12.977  0.00  0.00    -0.266 OA
HETATM    7  C   UNK N   1      22.054  12.543   8.649  0.00  0.00     0.182 A 
HETATM    8  N   UNK N   1      23.304  12.881   7.940  0.00  0.00    -0.415 N 
HETATM    9  C   UNK N   1      24.613  12.939   8.636  0.00  0.00     0.119 A 
HETATM   10  C   UNK N   1      24.700  12.643  10.142  0.00  0.00     0.066 A 
HETATM   11  H   UNK N   1      21.257  11.536  12.959  0.00  0.00     0.198 HD
HETATM   12  H   UNK N   1      23.267  13.081   6.940  0.00  0.00     0.153 HD
ENDROOT
TORSDOF 0
ENDMDL
MODEL 6
REMARK VINA RESULT:      -4.5     22.548     23.668
REMARK  0 active torsions:
REMARK  status: ('A' for Active; 'I' for Inactive)
ROOT
HETATM    1  C   UNK N   1      42.836  21.754   3.282  0.00  0.00     0.046 A 
HETATM    2  C   UNK N   1      43.674  22.586   3.969  0.00  0.00     0.274 A 
HETATM    3  N   UNK N   1      43.555  23.845   3.481  0.00  0.00    -0.225 N 
HETATM    4  O   UNK N   1      42.669  23.784   2.522  0.00  0.00    -0.237 OA
HETATM    5  C   UNK N   1      42.222  22.553   2.379  0.00  0.00     0.105 A 
HETATM    6  O   UNK N   1      44.419  22.267   4.879  0.00  0.00    -0.266 OA
HETATM    7  C   UNK N   1      41.213  22.088   1.400  0.00  0.00     0.182 A 
HETATM    8  N   UNK N   1      40.905  20.647   1.469  0.00  0.00    -0.415 N 
HETATM    9  C   UNK N   1      41.563  19.747   2.449  0.00  0.00     0.119 A 
HETATM   10  C   UNK N   1      42.602  20.308   3.434  0.00  0.00     0.066 A 
HETATM   11  H   UNK N   1      44.040  24.646   3.787  0.00  0.00     0.198 HD
HETATM   12  H   UNK N   1      40.218  20.256   0.824  0.00  0.00     0.153 HD
ENDROOT
TORSDOF 0
ENDMDL
MODEL 7
REMARK VINA RESULT:      -4.5      2.080      3.545
REMARK  0 active torsions:
REMARK  status: ('A' for Active; 'I' for Inactive)
ROOT
HETATM    1  C   UNK N   1      22.788  12.655  10.611  0.00  0.00     0.046 A 
HETATM    2  C   UNK N   1      23.448  12.155  11.697  0.00  0.00     0.274 A 
HETATM    3  N   UNK N   1      24.781  12.145  11.446  0.00  0.00    -0.225 N 
HETATM    4  O   UNK N   1      24.929  12.626  10.240  0.00  0.00    -0.237 OA
HETATM    5  C   UNK N   1      23.761  12.939   9.716  0.00  0.00     0.105 A 
HETATM    6  O   UNK N   1      22.940  11.773  12.737  0.00  0.00    -0.266 OA
HETATM    7  C   UNK N   1      23.521  13.509   8.371  0.00  0.00     0.182 A 
HETATM    8  N   UNK N   1      22.102  13.759   8.052  0.00  0.00    -0.415 N 
HETATM    9  C   UNK N   1      21.013  13.457   9.015  0.00  0.00     0.119 A 
HETATM   10  C   UNK N   1      21.346  12.865  10.394  0.00  0.00     0.066 A 
HETATM   11  H   UNK N   1      25.494  11.838  12.051  0.00  0.00     0.198 HD
HETATM   12  H   UNK N   1      21.861  14.151   7.141  0.00  0.00     0.153 HD
ENDROOT
TORSDOF 0
ENDMDL
MODEL 8
REMARK VINA RESULT:      -4.5     11.402     12.608
REMARK  0 active torsions:
REMARK  status: ('A' for Active; 'I' for Inactive)
ROOT
HETATM    1  C   UNK N   1      33.881  17.269   7.527  0.00  0.00     0.046 A 
HETATM    2  C   UNK N   1      34.518  18.008   8.483  0.00  0.00     0.274 A 
HETATM    3  N   UNK N   1      34.484  17.340   9.663  0.00  0.00    -0.225 N 
HETATM    4  O   UNK N   1      33.844  16.224   9.433  0.00  0.00    -0.237 OA
HETATM    5  C   UNK N   1      33.472  16.152   8.170  0.00  0.00     0.105 A 
HETATM    6  O   UNK N   1      35.040  19.097   8.322  0.00  0.00    -0.266 OA
HETATM    7  C   UNK N   1      32.728  15.043   7.532  0.00  0.00     0.182 A 
HETATM    8  N   UNK N   1      32.447  15.235   6.096  0.00  0.00    -0.415 N 
HETATM    9  C   UNK N   1      32.884  16.451   5.364  0.00  0.00     0.119 A 
HETATM   10  C   UNK N   1      33.654  17.559   6.101  0.00  0.00     0.066 A 
HETATM   11  H   UNK N   1      34.865  17.636  10.521  0.00  0.00     0.198 HD
HETATM   12  H   UNK N   1      31.938  14.511   5.590  0.00  0.00     0.153 HD
ENDROOT
TORSDOF 0
ENDMDL
MODEL 9
REMARK VINA RESULT:      -4.4      9.325     10.376
REMARK  0 active torsions:
REMARK  status: ('A' for Active; 'I' for Inactive)
ROOT
HETATM    1  C   UNK N   1      21.853  19.368   3.260  0.00  0.00     0.046 A 
HETATM    2  C   UNK N   1      20.697  20.003   2.905  0.00  0.00     0.274 A 
HETATM    3  N   UNK N   1      20.983  21.272   2.521  0.00  0.00    -0.225 N 
HETATM    4  O   UNK N   1      22.277  21.407   2.639  0.00  0.00    -0.237 OA
HETATM    5  C   UNK N   1      22.824  20.291   3.077  0.00  0.00     0.105 A 
HETATM    6  O   UNK N   1      19.577  19.525   2.922  0.00  0.00    -0.266 OA
HETATM    7  C   UNK N   1      24.263  20.055   3.336  0.00  0.00     0.182 A 
HETATM    8  N   UNK N   1      24.588  18.701   3.825  0.00  0.00    -0.415 N 
HETATM    9  C   UNK N   1      23.542  17.668   4.035  0.00  0.00     0.119 A 
HETATM   10  C   UNK N   1      22.068  17.993   3.742  0.00  0.00     0.066 A 
HETATM   11  H   UNK N   1      20.344  21.955   2.215  0.00  0.00     0.198 HD
HETATM   12  H   UNK N   1      25.560  18.467   4.025  0.00  0.00     0.153 HD
ENDROOT
TORSDOF 0
ENDMDL
