REMARK  8 active torsions:
REMARK  status: ('A' for Active; 'I' for Inactive)
REMARK    1  A    between atoms: O_2  and  C_3 
REMARK    2  A    between atoms: C_3  and  C_4 
REMARK    3  A    between atoms: C_3  and  C_19 
REMARK    4  A    between atoms: C_3  and  C_25 
REMARK    5  A    between atoms: C_4  and  O_5 
REMARK    6  A    between atoms: C_4  and  C_16 
REMARK    7  A    between atoms: O_5  and  C_6 
REMARK    8  A    between atoms: C_16  and  O_18 
ROOT
HETATM    1  C   UNK N   1       1.130  -2.107   0.035  0.00  0.00     0.273 C 
ENDROOT
BRANCH   1   2
HETATM    2  C   UNK N   1       0.355  -0.845   0.572  0.00  0.00     0.151 C 
BRANCH   2   3
HETATM    3  O   UNK N   1       0.078  -0.925   1.973  0.00  0.00    -0.372 OA
HETATM    4  C   UNK N   1      -0.671  -2.056   2.324  0.00  0.00     0.203 C 
ENDBRANCH   2   3
BRANCH   2   5
HETATM    5  C   UNK N   1      -0.945  -0.505  -0.200  0.00  0.00    -0.016 A 
HETATM    6  C   UNK N   1      -2.064  -1.355  -0.133  0.00  0.00     0.011 A 
HETATM    7  C   UNK N   1      -3.271  -1.003  -0.746  0.00  0.00     0.001 A 
HETATM    8  C   UNK N   1      -3.380   0.201  -1.444  0.00  0.00     0.000 A 
HETATM    9  C   UNK N   1      -2.280   1.053  -1.535  0.00  0.00     0.001 A 
HETATM   10  C   UNK N   1      -1.080   0.707  -0.912  0.00  0.00     0.011 A 
ENDBRANCH   2   5
BRANCH   2  11
HETATM   11  C   UNK N   1       1.341   0.319   0.402  0.00  0.00    -0.016 A 
HETATM   12  C   UNK N   1       1.660   1.154   1.488  0.00  0.00     0.011 A 
HETATM   13  C   UNK N   1       2.516   2.244   1.319  0.00  0.00     0.001 A 
HETATM   14  C   UNK N   1       3.071   2.510   0.066  0.00  0.00     0.000 A 
HETATM   15  C   UNK N   1       2.774   1.683  -1.020  0.00  0.00     0.001 A 
HETATM   16  C   UNK N   1       1.909   0.598  -0.857  0.00  0.00     0.011 A 
ENDBRANCH   2  11
ENDBRANCH   1   2
BRANCH   1  17
HETATM   17  O   UNK N   1       2.190  -2.393   0.871  0.00  0.00    -0.302 OA
BRANCH  17  18
HETATM   18  C   UNK N   1       3.455  -2.494   0.424  0.00  0.00     0.225 A 
HETATM   19  N   UNK N   1       4.345  -1.495   0.677  0.00  0.00    -0.326 N 
HETATM   20  C   UNK N   1       5.635  -1.590   0.268  0.00  0.00     0.010 A 
ATOM     21  HN  UNK N   1       4.037  -0.663   1.180  1.00  0.00     0.169 HD
HETATM   22  C   UNK N   1       6.586  -0.480   0.541  0.00  0.00     0.068 C 
HETATM   23  C   UNK N   1       6.072  -2.732  -0.400  0.00  0.00     0.049 A 
HETATM   24  C   UNK N   1       5.152  -3.751  -0.643  0.00  0.00     0.010 A 
HETATM   25  C   UNK N   1       5.588  -4.994  -1.334  0.00  0.00     0.068 C 
HETATM   26  N   UNK N   1       3.864  -3.615  -0.234  0.00  0.00    -0.326 N 
ATOM     27  HN  UNK N   1       3.194  -4.361  -0.423  1.00  0.00     0.169 HD
ENDBRANCH  17  18
ENDBRANCH   1  17
BRANCH   1  28
HETATM   28  C   UNK N   1       0.371  -3.366  -0.303  0.00  0.00     0.174 C 
HETATM   29  O   UNK N   1       0.279  -3.709  -1.470  0.00  0.00    -0.648 OA
BRANCH  28  30
HETATM   30  O   UNK N   1      -0.127  -4.163   0.661  0.00  0.00    -0.774 OA
HETATM   31  H   UNK N   1      -0.781  -4.140   1.332  0.00  0.00     0.167 HD
ENDBRANCH  28  30
ENDBRANCH   1  28
TORSDOF 8
