MODEL 1
REMARK VINA RESULT:      -7.0      0.000      0.000
REMARK  5 active torsions:
REMARK  status: ('A' for Active; 'I' for Inactive)
REMARK    1  A    between atoms: C_24  and  C_3 
REMARK    2  A    between atoms: C_11  and  C_4 
REMARK    3  A    between atoms: C_18  and  C_7 
REMARK    4  A    between atoms: N_10  and  C_18 
REMARK    5  A    between atoms: C_29  and  C_24 
ROOT
HETATM    1  C   UNK N   1      27.683  19.416   6.856  0.00  0.00     0.137 A 
HETATM    2  N   UNK N   1      27.547  20.150   5.755  0.00  0.00    -0.234 N 
HETATM    3  C   UNK N   1      28.434  18.246   6.864  0.00  0.00     0.012 A 
HETATM    4  N   UNK N   1      27.017  19.960   7.892  0.00  0.00    -0.329 N 
ATOM      5  HN  UNK N   1      26.943  19.621   8.851  1.00  0.00     0.168 HD
HETATM    6  C   UNK N   1      29.047  17.883   5.622  0.00  0.00     0.038 A 
HETATM    7  N   UNK N   1      26.790  21.194   6.031  0.00  0.00    -0.280 N 
ATOM      8  HN  UNK N   1      26.507  21.937   5.394  1.00  0.00     0.189 HD
HETATM    9  N   UNK N   1      28.866  18.685   4.522  0.00  0.00    -0.352 N 
ATOM     10  HN  UNK N   1      29.304  18.423   3.639  1.00  0.00     0.166 HD
HETATM   11  C   UNK N   1      28.117  19.822   4.579  0.00  0.00     0.209 A 
HETATM   12  C   UNK N   1      26.470  21.071   7.340  0.00  0.00     0.093 A 
HETATM   13  C   UNK N   1      25.623  22.033   8.089  0.00  0.00     0.090 C 
ENDROOT
BRANCH   6  14
HETATM   14  C   UNK N   1      29.883  16.634   5.517  0.00  0.00     0.187 C 
BRANCH  14  15
HETATM   15  N   UNK N   1      31.040  16.623   4.607  0.00  0.00    -0.334 N 
HETATM   16  C   UNK N   1      32.334  16.673   4.994  0.00  0.00     0.138 A 
HETATM   17  N   UNK N   1      33.170  16.648   3.937  0.00  0.00    -0.349 N 
HETATM   18  C   UNK N   1      32.376  16.581   2.848  0.00  0.00     0.107 A 
ATOM     19  HN  UNK N   1      34.189  16.675   3.957  1.00  0.00     0.167 HD
HETATM   20  C   UNK N   1      31.056  16.565   3.262  0.00  0.00     0.110 A 
BRANCH  16  21
HETATM   21  C   UNK N   1      32.796  16.746   6.407  0.00  0.00     0.116 A 
HETATM   22  N   UNK N   1      33.348  17.903   6.875  0.00  0.00    -0.360 N 
HETATM   23  C   UNK N   1      33.788  18.035   8.152  0.00  0.00     0.088 A 
ATOM     24  HN  UNK N   1      33.433  18.696   6.241  1.00  0.00     0.165 HD
HETATM   25  C   UNK N   1      33.684  16.966   9.039  0.00  0.00     0.020 A 
HETATM   26  C   UNK N   1      33.125  15.768   8.598  0.00  0.00     0.046 A 
HETATM   27  C   UNK N   1      32.677  15.647   7.281  0.00  0.00     0.146 A 
HETATM   28  F   UNK N   1      32.136  14.473   6.872  0.00  0.00    -0.204 F 
ENDBRANCH  16  21
ENDBRANCH  14  15
ENDBRANCH   6  14
BRANCH   3  29
HETATM   29  C   UNK N   1      28.510  17.503   8.182  0.00  0.00     0.044 C 
BRANCH  29  30
HETATM   30  C   UNK N   1      29.828  17.401   8.919  0.00  0.00     0.000 C 
HETATM   31  C   UNK N   1      30.292  18.805   9.251  0.00  0.00     0.005 C 
ENDBRANCH  29  30
ENDBRANCH   3  29
TORSDOF 5
ENDMDL
MODEL 2
REMARK VINA RESULT:      -6.9      1.930      4.112
REMARK  5 active torsions:
REMARK  status: ('A' for Active; 'I' for Inactive)
REMARK    1  A    between atoms: C_24  and  C_3 
REMARK    2  A    between atoms: C_11  and  C_4 
REMARK    3  A    between atoms: C_18  and  C_7 
REMARK    4  A    between atoms: N_10  and  C_18 
REMARK    5  A    between atoms: C_29  and  C_24 
ROOT
HETATM    1  C   UNK N   1      28.162  18.663   4.967  0.00  0.00     0.137 A 
HETATM    2  N   UNK N   1      27.610  19.428   5.905  0.00  0.00    -0.234 N 
HETATM    3  C   UNK N   1      29.144  17.729   5.273  0.00  0.00     0.012 A 
HETATM    4  N   UNK N   1      27.645  18.928   3.753  0.00  0.00    -0.329 N 
ATOM      5  HN  UNK N   1      27.873  18.502   2.856  1.00  0.00     0.168 HD
HETATM    6  C   UNK N   1      29.523  17.641   6.651  0.00  0.00     0.038 A 
HETATM    7  N   UNK N   1      26.717  20.216   5.340  0.00  0.00    -0.280 N 
ATOM      8  HN  UNK N   1      26.130  20.913   5.798  1.00  0.00     0.189 HD
HETATM    9  N   UNK N   1      28.913  18.460   7.570  0.00  0.00    -0.352 N 
ATOM     10  HN  UNK N   1      29.185  18.395   8.551  1.00  0.00     0.166 HD
HETATM   11  C   UNK N   1      27.955  19.358   7.206  0.00  0.00     0.209 A 
HETATM   12  C   UNK N   1      26.743  19.904   4.023  0.00  0.00     0.093 A 
HETATM   13  C   UNK N   1      25.891  20.550   2.993  0.00  0.00     0.090 C 
ENDROOT
BRANCH   6  14
HETATM   14  C   UNK N   1      30.578  16.662   7.095  0.00  0.00     0.187 C 
BRANCH  14  15
HETATM   15  N   UNK N   1      31.934  17.156   7.385  0.00  0.00    -0.334 N 
HETATM   16  C   UNK N   1      33.024  16.935   6.615  0.00  0.00     0.138 A 
HETATM   17  N   UNK N   1      34.125  17.512   7.136  0.00  0.00    -0.349 N 
HETATM   18  C   UNK N   1      33.716  18.117   8.271  0.00  0.00     0.107 A 
ATOM     19  HN  UNK N   1      35.070  17.495   6.752  1.00  0.00     0.167 HD
HETATM   20  C   UNK N   1      32.359  17.897   8.426  0.00  0.00     0.110 A 
BRANCH  16  21
HETATM   21  C   UNK N   1      33.024  16.154   5.348  0.00  0.00     0.116 A 
HETATM   22  N   UNK N   1      32.966  14.792   5.399  0.00  0.00    -0.360 N 
HETATM   23  C   UNK N   1      32.962  14.021   4.281  0.00  0.00     0.088 A 
ATOM     24  HN  UNK N   1      32.924  14.336   6.310  1.00  0.00     0.165 HD
HETATM   25  C   UNK N   1      33.019  14.618   3.024  0.00  0.00     0.020 A 
HETATM   26  C   UNK N   1      33.079  16.007   2.931  0.00  0.00     0.046 A 
HETATM   27  C   UNK N   1      33.082  16.786   4.090  0.00  0.00     0.146 A 
HETATM   28  F   UNK N   1      33.140  18.136   3.979  0.00  0.00    -0.204 F 
ENDBRANCH  16  21
ENDBRANCH  14  15
ENDBRANCH   6  14
BRANCH   3  29
HETATM   29  C   UNK N   1      29.692  16.921   4.114  0.00  0.00     0.044 C 
BRANCH  29  30
HETATM   30  C   UNK N   1      29.239  15.491   3.906  0.00  0.00     0.000 C 
HETATM   31  C   UNK N   1      29.200  15.221   2.415  0.00  0.00     0.005 C 
ENDBRANCH  29  30
ENDBRANCH   3  29
TORSDOF 5
ENDMDL
MODEL 3
REMARK VINA RESULT:      -6.9      3.336      7.935
REMARK  5 active torsions:
REMARK  status: ('A' for Active; 'I' for Inactive)
REMARK    1  A    between atoms: C_24  and  C_3 
REMARK    2  A    between atoms: C_11  and  C_4 
REMARK    3  A    between atoms: C_18  and  C_7 
REMARK    4  A    between atoms: N_10  and  C_18 
REMARK    5  A    between atoms: C_29  and  C_24 
ROOT
HETATM    1  C   UNK N   1      35.817  14.860   9.450  0.00  0.00     0.137 A 
HETATM    2  N   UNK N   1      35.949  15.513  10.601  0.00  0.00    -0.234 N 
HETATM    3  C   UNK N   1      35.113  15.400   8.381  0.00  0.00     0.012 A 
HETATM    4  N   UNK N   1      36.440  13.667   9.492  0.00  0.00    -0.329 N 
ATOM      5  HN  UNK N   1      36.507  12.957   8.763  1.00  0.00     0.168 HD
HETATM    6  C   UNK N   1      34.542  16.695   8.593  0.00  0.00     0.038 A 
HETATM    7  N   UNK N   1      36.658  14.774  11.432  0.00  0.00    -0.280 N 
ATOM      8  HN  UNK N   1      36.926  15.004  12.388  1.00  0.00     0.189 HD
HETATM    9  N   UNK N   1      34.715  17.317   9.807  0.00  0.00    -0.352 N 
ATOM     10  HN  UNK N   1      34.306  18.240   9.954  1.00  0.00     0.166 HD
HETATM   11  C   UNK N   1      35.417  16.733  10.818  0.00  0.00     0.209 A 
HETATM   12  C   UNK N   1      36.954  13.646  10.746  0.00  0.00     0.093 A 
HETATM   13  C   UNK N   1      37.748  12.517  11.295  0.00  0.00     0.090 C 
ENDROOT
BRANCH   6  14
HETATM   14  C   UNK N   1      33.758  17.375   7.501  0.00  0.00     0.187 C 
BRANCH  14  15
HETATM   15  N   UNK N   1      32.290  17.254   7.494  0.00  0.00    -0.334 N 
HETATM   16  C   UNK N   1      31.564  16.655   6.523  0.00  0.00     0.138 A 
HETATM   17  N   UNK N   1      30.244  16.698   6.791  0.00  0.00    -0.349 N 
HETATM   18  C   UNK N   1      30.135  17.346   7.970  0.00  0.00     0.107 A 
ATOM     19  HN  UNK N   1      29.487  16.321   6.222  1.00  0.00     0.167 HD
HETATM   20  C   UNK N   1      31.402  17.691   8.406  0.00  0.00     0.110 A 
BRANCH  16  21
HETATM   21  C   UNK N   1      32.137  16.021   5.303  0.00  0.00     0.116 A 
HETATM   22  N   UNK N   1      32.090  14.665   5.166  0.00  0.00    -0.360 N 
HETATM   23  C   UNK N   1      32.594  14.026   4.079  0.00  0.00     0.088 A 
ATOM     24  HN  UNK N   1      31.661  14.112   5.907  1.00  0.00     0.165 HD
HETATM   25  C   UNK N   1      33.185  14.758   3.053  0.00  0.00     0.020 A 
HETATM   26  C   UNK N   1      33.252  16.146   3.157  0.00  0.00     0.046 A 
HETATM   27  C   UNK N   1      32.729  16.789   4.281  0.00  0.00     0.146 A 
HETATM   28  F   UNK N   1      32.804  18.140   4.364  0.00  0.00    -0.204 F 
ENDBRANCH  16  21
ENDBRANCH  14  15
ENDBRANCH   6  14
BRANCH   3  29
HETATM   29  C   UNK N   1      35.038  14.554   7.126  0.00  0.00     0.044 C 
BRANCH  29  30
HETATM   30  C   UNK N   1      35.858  14.927   5.910  0.00  0.00     0.000 C 
HETATM   31  C   UNK N   1      36.163  13.659   5.139  0.00  0.00     0.005 C 
ENDBRANCH  29  30
ENDBRANCH   3  29
TORSDOF 5
ENDMDL
MODEL 4
REMARK VINA RESULT:      -6.7      5.031      7.994
REMARK  5 active torsions:
REMARK  status: ('A' for Active; 'I' for Inactive)
REMARK    1  A    between atoms: C_24  and  C_3 
REMARK    2  A    between atoms: C_11  and  C_4 
REMARK    3  A    between atoms: C_18  and  C_7 
REMARK    4  A    between atoms: N_10  and  C_18 
REMARK    5  A    between atoms: C_29  and  C_24 
ROOT
HETATM    1  C   UNK N   1      33.351  16.106   8.025  0.00  0.00     0.137 A 
HETATM    2  N   UNK N   1      33.795  17.354   7.907  0.00  0.00    -0.234 N 
HETATM    3  C   UNK N   1      33.737  15.293   9.084  0.00  0.00     0.012 A 
HETATM    4  N   UNK N   1      32.522  15.784   7.015  0.00  0.00    -0.329 N 
ATOM      5  HN  UNK N   1      32.035  14.905   6.845  1.00  0.00     0.168 HD
HETATM    6  C   UNK N   1      34.635  15.878  10.033  0.00  0.00     0.038 A 
HETATM    7  N   UNK N   1      33.274  17.890   6.820  0.00  0.00    -0.280 N 
ATOM      8  HN  UNK N   1      33.424  18.833   6.463  1.00  0.00     0.189 HD
HETATM    9  N   UNK N   1      35.055  17.173   9.852  0.00  0.00    -0.352 N 
ATOM     10  HN  UNK N   1      35.695  17.587  10.531  1.00  0.00     0.166 HD
HETATM   11  C   UNK N   1      34.640  17.920   8.791  0.00  0.00     0.209 A 
HETATM   12  C   UNK N   1      32.496  16.924   6.280  0.00  0.00     0.093 A 
HETATM   13  C   UNK N   1      31.706  17.084   5.032  0.00  0.00     0.090 C 
ENDROOT
BRANCH   6  14
HETATM   14  C   UNK N   1      35.118  15.086  11.220  0.00  0.00     0.187 C 
BRANCH  14  15
HETATM   15  N   UNK N   1      36.349  14.287  11.093  0.00  0.00    -0.334 N 
HETATM   16  C   UNK N   1      36.881  13.519  12.070  0.00  0.00     0.138 A 
HETATM   17  N   UNK N   1      38.010  12.907  11.661  0.00  0.00    -0.349 N 
HETATM   18  C   UNK N   1      38.195  13.304  10.384  0.00  0.00     0.107 A 
ATOM     19  HN  UNK N   1      38.601  12.277  12.203  1.00  0.00     0.167 HD
HETATM   20  C   UNK N   1      37.167  14.159  10.032  0.00  0.00     0.110 A 
BRANCH  16  21
HETATM   21  C   UNK N   1      36.304  13.357  13.433  0.00  0.00     0.116 A 
HETATM   22  N   UNK N   1      36.882  14.002  14.487  0.00  0.00    -0.360 N 
HETATM   23  C   UNK N   1      36.406  13.897  15.754  0.00  0.00     0.088 A 
ATOM     24  HN  UNK N   1      37.702  14.583  14.317  1.00  0.00     0.165 HD
HETATM   25  C   UNK N   1      35.287  13.109  16.015  0.00  0.00     0.020 A 
HETATM   26  C   UNK N   1      34.669  12.435  14.962  0.00  0.00     0.046 A 
HETATM   27  C   UNK N   1      35.171  12.553  13.665  0.00  0.00     0.146 A 
HETATM   28  F   UNK N   1      34.555  11.889  12.656  0.00  0.00    -0.204 F 
ENDBRANCH  16  21
ENDBRANCH  14  15
ENDBRANCH   6  14
BRANCH   3  29
HETATM   29  C   UNK N   1      33.161  13.891   9.102  0.00  0.00     0.044 C 
BRANCH  29  30
HETATM   30  C   UNK N   1      33.962  12.735   8.544  0.00  0.00     0.000 C 
HETATM   31  C   UNK N   1      33.789  11.550   9.473  0.00  0.00     0.005 C 
ENDBRANCH  29  30
ENDBRANCH   3  29
TORSDOF 5
ENDMDL
MODEL 5
REMARK VINA RESULT:      -6.7      2.621      4.932
REMARK  5 active torsions:
REMARK  status: ('A' for Active; 'I' for Inactive)
REMARK    1  A    between atoms: C_24  and  C_3 
REMARK    2  A    between atoms: C_11  and  C_4 
REMARK    3  A    between atoms: C_18  and  C_7 
REMARK    4  A    between atoms: N_10  and  C_18 
REMARK    5  A    between atoms: C_29  and  C_24 
ROOT
HETATM    1  C   UNK N   1      30.039  17.020   6.872  0.00  0.00     0.137 A 
HETATM    2  N   UNK N   1      29.450  17.393   8.005  0.00  0.00    -0.234 N 
HETATM    3  C   UNK N   1      31.419  17.072   6.717  0.00  0.00     0.012 A 
HETATM    4  N   UNK N   1      29.135  16.610   5.963  0.00  0.00    -0.329 N 
ATOM      5  HN  UNK N   1      29.293  16.271   5.015  1.00  0.00     0.168 HD
HETATM    6  C   UNK N   1      32.162  17.549   7.843  0.00  0.00     0.038 A 
HETATM    7  N   UNK N   1      28.146  17.242   7.877  0.00  0.00    -0.280 N 
ATOM      8  HN  UNK N   1      27.429  17.443   8.573  1.00  0.00     0.189 HD
HETATM    9  N   UNK N   1      31.492  17.919   8.984  0.00  0.00    -0.352 N 
ATOM     10  HN  UNK N   1      32.025  18.259   9.785  1.00  0.00     0.166 HD
HETATM   11  C   UNK N   1      30.134  17.845   9.074  0.00  0.00     0.209 A 
HETATM   12  C   UNK N   1      27.961  16.763   6.625  0.00  0.00     0.093 A 
HETATM   13  C   UNK N   1      26.635  16.440   6.040  0.00  0.00     0.090 C 
ENDROOT
BRANCH   6  14
HETATM   14  C   UNK N   1      33.665  17.647   7.784  0.00  0.00     0.187 C 
BRANCH  14  15
HETATM   15  N   UNK N   1      34.471  16.795   8.674  0.00  0.00    -0.334 N 
HETATM   16  C   UNK N   1      34.852  15.527   8.402  0.00  0.00     0.138 A 
HETATM   17  N   UNK N   1      35.583  15.002   9.405  0.00  0.00    -0.349 N 
HETATM   18  C   UNK N   1      35.665  15.971  10.340  0.00  0.00     0.107 A 
ATOM     19  HN  UNK N   1      35.988  14.067   9.448  1.00  0.00     0.167 HD
HETATM   20  C   UNK N   1      34.977  17.083   9.888  0.00  0.00     0.110 A 
BRANCH  16  21
HETATM   21  C   UNK N   1      34.514  14.788   7.155  0.00  0.00     0.116 A 
HETATM   22  N   UNK N   1      35.232  15.024   6.019  0.00  0.00    -0.360 N 
HETATM   23  C   UNK N   1      34.975  14.385   4.849  0.00  0.00     0.088 A 
ATOM     24  HN  UNK N   1      35.989  15.706   6.050  1.00  0.00     0.165 HD
HETATM   25  C   UNK N   1      33.946  13.449   4.779  0.00  0.00     0.020 A 
HETATM   26  C   UNK N   1      33.190  13.180   5.919  0.00  0.00     0.046 A 
HETATM   27  C   UNK N   1      33.467  13.846   7.114  0.00  0.00     0.146 A 
HETATM   28  F   UNK N   1      32.720  13.571   8.212  0.00  0.00    -0.204 F 
ENDBRANCH  16  21
ENDBRANCH  14  15
ENDBRANCH   6  14
BRANCH   3  29
HETATM   29  C   UNK N   1      31.964  16.618   5.378  0.00  0.00     0.044 C 
BRANCH  29  30
HETATM   30  C   UNK N   1      32.287  17.638   4.306  0.00  0.00     0.000 C 
HETATM   31  C   UNK N   1      32.639  16.891   3.036  0.00  0.00     0.005 C 
ENDBRANCH  29  30
ENDBRANCH   3  29
TORSDOF 5
ENDMDL
MODEL 6
REMARK VINA RESULT:      -6.6      2.888      6.664
REMARK  5 active torsions:
REMARK  status: ('A' for Active; 'I' for Inactive)
REMARK    1  A    between atoms: C_24  and  C_3 
REMARK    2  A    between atoms: C_11  and  C_4 
REMARK    3  A    between atoms: C_18  and  C_7 
REMARK    4  A    between atoms: N_10  and  C_18 
REMARK    5  A    between atoms: C_29  and  C_24 
ROOT
HETATM    1  C   UNK N   1      31.534  17.119   6.866  0.00  0.00     0.137 A 
HETATM    2  N   UNK N   1      31.066  17.586   8.020  0.00  0.00    -0.234 N 
HETATM    3  C   UNK N   1      30.693  16.558   5.912  0.00  0.00     0.012 A 
HETATM    4  N   UNK N   1      32.869  17.272   6.782  0.00  0.00    -0.329 N 
ATOM      5  HN  UNK N   1      33.494  17.010   6.021  1.00  0.00     0.168 HD
HETATM    6  C   UNK N   1      29.302  16.514   6.247  0.00  0.00     0.038 A 
HETATM    7  N   UNK N   1      32.074  18.057   8.729  0.00  0.00    -0.280 N 
ATOM      8  HN  UNK N   1      32.033  18.480   9.656  1.00  0.00     0.189 HD
HETATM    9  N   UNK N   1      28.884  17.013   7.457  0.00  0.00    -0.352 N 
ATOM     10  HN  UNK N   1      27.892  16.979   7.692  1.00  0.00     0.166 HD
HETATM   11  C   UNK N   1      29.760  17.552   8.351  0.00  0.00     0.209 A 
HETATM   12  C   UNK N   1      33.173  17.862   7.965  0.00  0.00     0.093 A 
HETATM   13  C   UNK N   1      34.551  18.245   8.366  0.00  0.00     0.090 C 
ENDROOT
BRANCH   6  14
HETATM   14  C   UNK N   1      28.301  15.926   5.286  0.00  0.00     0.187 C 
BRANCH  14  15
HETATM   15  N   UNK N   1      26.912  15.731   5.732  0.00  0.00    -0.334 N 
HETATM   16  C   UNK N   1      25.933  16.661   5.657  0.00  0.00     0.138 A 
HETATM   17  N   UNK N   1      24.766  16.194   6.143  0.00  0.00    -0.349 N 
HETATM   18  C   UNK N   1      25.018  14.928   6.538  0.00  0.00     0.107 A 
ATOM     19  HN  UNK N   1      23.878  16.693   6.200  1.00  0.00     0.167 HD
HETATM   20  C   UNK N   1      26.347  14.641   6.284  0.00  0.00     0.110 A 
BRANCH  16  21
HETATM   21  C   UNK N   1      26.107  18.034   5.108  0.00  0.00     0.116 A 
HETATM   22  N   UNK N   1      26.435  19.057   5.949  0.00  0.00    -0.360 N 
HETATM   23  C   UNK N   1      26.608  20.331   5.512  0.00  0.00     0.088 A 
ATOM     24  HN  UNK N   1      26.555  18.856   6.941  1.00  0.00     0.165 HD
HETATM   25  C   UNK N   1      26.450  20.632   4.162  0.00  0.00     0.020 A 
HETATM   26  C   UNK N   1      26.114  19.613   3.272  0.00  0.00     0.046 A 
HETATM   27  C   UNK N   1      25.940  18.308   3.736  0.00  0.00     0.146 A 
HETATM   28  F   UNK N   1      25.614  17.331   2.854  0.00  0.00    -0.204 F 
ENDBRANCH  16  21
ENDBRANCH  14  15
ENDBRANCH   6  14
BRANCH   3  29
HETATM   29  C   UNK N   1      31.352  16.065   4.640  0.00  0.00     0.044 C 
BRANCH  29  30
HETATM   30  C   UNK N   1      31.866  17.056   3.619  0.00  0.00     0.000 C 
HETATM   31  C   UNK N   1      33.095  16.461   2.961  0.00  0.00     0.005 C 
ENDBRANCH  29  30
ENDBRANCH   3  29
TORSDOF 5
ENDMDL
MODEL 7
REMARK VINA RESULT:      -6.5      7.108     10.704
REMARK  5 active torsions:
REMARK  status: ('A' for Active; 'I' for Inactive)
REMARK    1  A    between atoms: C_24  and  C_3 
REMARK    2  A    between atoms: C_11  and  C_4 
REMARK    3  A    between atoms: C_18  and  C_7 
REMARK    4  A    between atoms: N_10  and  C_18 
REMARK    5  A    between atoms: C_29  and  C_24 
ROOT
HETATM    1  C   UNK N   1      35.364  13.033  15.624  0.00  0.00     0.137 A 
HETATM    2  N   UNK N   1      36.180  14.039  15.927  0.00  0.00    -0.234 N 
HETATM    3  C   UNK N   1      35.160  12.631  14.310  0.00  0.00     0.012 A 
HETATM    4  N   UNK N   1      34.808  12.505  16.730  0.00  0.00    -0.329 N 
ATOM      5  HN  UNK N   1      34.149  11.731  16.805  1.00  0.00     0.168 HD
HETATM    6  C   UNK N   1      35.876  13.362  13.308  0.00  0.00     0.038 A 
HETATM    7  N   UNK N   1      36.186  14.204  17.235  0.00  0.00    -0.280 N 
ATOM      8  HN  UNK N   1      36.713  14.894  17.769  1.00  0.00     0.189 HD
HETATM    9  N   UNK N   1      36.703  14.391  13.688  0.00  0.00    -0.352 N 
ATOM     10  HN  UNK N   1      37.212  14.909  12.972  1.00  0.00     0.166 HD
HETATM   11  C   UNK N   1      36.862  14.737  14.997  0.00  0.00     0.209 A 
HETATM   12  C   UNK N   1      35.344  13.262  17.720  0.00  0.00     0.093 A 
HETATM   13  C   UNK N   1      35.039  13.073  19.161  0.00  0.00     0.090 C 
ENDROOT
BRANCH   6  14
HETATM   14  C   UNK N   1      35.728  13.011  11.851  0.00  0.00     0.187 C 
BRANCH  14  15
HETATM   15  N   UNK N   1      36.880  13.191  10.952  0.00  0.00    -0.334 N 
HETATM   16  C   UNK N   1      36.903  14.001   9.870  0.00  0.00     0.138 A 
HETATM   17  N   UNK N   1      38.096  13.959   9.243  0.00  0.00    -0.349 N 
HETATM   18  C   UNK N   1      38.849  13.094   9.954  0.00  0.00     0.107 A 
ATOM     19  HN  UNK N   1      38.371  14.473   8.406  1.00  0.00     0.167 HD
HETATM   20  C   UNK N   1      38.097  12.618  11.013  0.00  0.00     0.110 A 
BRANCH  16  21
HETATM   21  C   UNK N   1      35.762  14.841   9.414  0.00  0.00     0.116 A 
HETATM   22  N   UNK N   1      34.964  14.398   8.400  0.00  0.00    -0.360 N 
HETATM   23  C   UNK N   1      33.908  15.115   7.938  0.00  0.00     0.088 A 
ATOM     24  HN  UNK N   1      35.169  13.494   7.975  1.00  0.00     0.165 HD
HETATM   25  C   UNK N   1      33.606  16.352   8.501  0.00  0.00     0.020 A 
HETATM   26  C   UNK N   1      34.399  16.839   9.539  0.00  0.00     0.046 A 
HETATM   27  C   UNK N   1      35.482  16.090  10.004  0.00  0.00     0.146 A 
HETATM   28  F   UNK N   1      36.240  16.582  11.014  0.00  0.00    -0.204 F 
ENDBRANCH  16  21
ENDBRANCH  14  15
ENDBRANCH   6  14
BRANCH   3  29
HETATM   29  C   UNK N   1      34.206  11.472  14.099  0.00  0.00     0.044 C 
BRANCH  29  30
HETATM   30  C   UNK N   1      34.667  10.055  14.362  0.00  0.00     0.000 C 
HETATM   31  C   UNK N   1      35.435   9.576  13.146  0.00  0.00     0.005 C 
ENDBRANCH  29  30
ENDBRANCH   3  29
TORSDOF 5
ENDMDL
MODEL 8
REMARK VINA RESULT:      -6.5      2.993      6.385
REMARK  5 active torsions:
REMARK  status: ('A' for Active; 'I' for Inactive)
REMARK    1  A    between atoms: C_24  and  C_3 
REMARK    2  A    between atoms: C_11  and  C_4 
REMARK    3  A    between atoms: C_18  and  C_7 
REMARK    4  A    between atoms: N_10  and  C_18 
REMARK    5  A    between atoms: C_29  and  C_24 
ROOT
HETATM    1  C   UNK N   1      31.667  17.364   6.481  0.00  0.00     0.137 A 
HETATM    2  N   UNK N   1      32.610  17.507   5.554  0.00  0.00    -0.234 N 
HETATM    3  C   UNK N   1      30.323  17.264   6.144  0.00  0.00     0.012 A 
HETATM    4  N   UNK N   1      32.198  17.336   7.718  0.00  0.00    -0.329 N 
ATOM      5  HN  UNK N   1      31.721  17.238   8.614  1.00  0.00     0.168 HD
HETATM    6  C   UNK N   1      30.017  17.322   4.746  0.00  0.00     0.038 A 
HETATM    7  N   UNK N   1      33.785  17.576   6.149  0.00  0.00    -0.280 N 
ATOM      8  HN  UNK N   1      34.696  17.686   5.706  1.00  0.00     0.189 HD
HETATM    9  N   UNK N   1      31.039  17.470   3.840  0.00  0.00    -0.352 N 
ATOM     10  HN  UNK N   1      30.818  17.511   2.845  1.00  0.00     0.166 HD
HETATM   11  C   UNK N   1      32.340  17.563   4.235  0.00  0.00     0.209 A 
HETATM   12  C   UNK N   1      33.524  17.471   7.472  0.00  0.00     0.093 A 
HETATM   13  C   UNK N   1      34.562  17.500   8.535  0.00  0.00     0.090 C 
ENDROOT
BRANCH   6  14
HETATM   14  C   UNK N   1      28.592  17.222   4.269  0.00  0.00     0.187 C 
BRANCH  14  15
HETATM   15  N   UNK N   1      27.642  18.288   4.629  0.00  0.00    -0.334 N 
HETATM   16  C   UNK N   1      26.400  18.088   5.125  0.00  0.00     0.138 A 
HETATM   17  N   UNK N   1      25.765  19.254   5.358  0.00  0.00    -0.349 N 
HETATM   18  C   UNK N   1      26.635  20.220   4.997  0.00  0.00     0.107 A 
ATOM     19  HN  UNK N   1      24.824  19.379   5.730  1.00  0.00     0.167 HD
HETATM   20  C   UNK N   1      27.798  19.623   4.545  0.00  0.00     0.110 A 
BRANCH  16  21
HETATM   21  C   UNK N   1      25.796  16.753   5.387  0.00  0.00     0.116 A 
HETATM   22  N   UNK N   1      25.934  16.183   6.618  0.00  0.00    -0.360 N 
HETATM   23  C   UNK N   1      25.408  14.969   6.922  0.00  0.00     0.088 A 
ATOM     24  HN  UNK N   1      26.453  16.687   7.337  1.00  0.00     0.165 HD
HETATM   25  C   UNK N   1      24.695  14.259   5.959  0.00  0.00     0.020 A 
HETATM   26  C   UNK N   1      24.532  14.809   4.689  0.00  0.00     0.046 A 
HETATM   27  C   UNK N   1      25.080  16.058   4.392  0.00  0.00     0.146 A 
HETATM   28  F   UNK N   1      24.910  16.576   3.150  0.00  0.00    -0.204 F 
ENDBRANCH  16  21
ENDBRANCH  14  15
ENDBRANCH   6  14
BRANCH   3  29
HETATM   29  C   UNK N   1      29.349  17.105   7.294  0.00  0.00     0.044 C 
BRANCH  29  30
HETATM   30  C   UNK N   1      28.777  18.328   7.977  0.00  0.00     0.000 C 
HETATM   31  C   UNK N   1      29.093  18.234   9.456  0.00  0.00     0.005 C 
ENDBRANCH  29  30
ENDBRANCH   3  29
TORSDOF 5
ENDMDL
MODEL 9
REMARK VINA RESULT:      -6.5      8.658     10.792
REMARK  5 active torsions:
REMARK  status: ('A' for Active; 'I' for Inactive)
REMARK    1  A    between atoms: C_24  and  C_3 
REMARK    2  A    between atoms: C_11  and  C_4 
REMARK    3  A    between atoms: C_18  and  C_7 
REMARK    4  A    between atoms: N_10  and  C_18 
REMARK    5  A    between atoms: C_29  and  C_24 
ROOT
HETATM    1  C   UNK N   1      21.937  15.383   7.288  0.00  0.00     0.137 A 
HETATM    2  N   UNK N   1      21.029  16.094   7.951  0.00  0.00    -0.234 N 
HETATM    3  C   UNK N   1      22.461  15.817   6.077  0.00  0.00     0.012 A 
HETATM    4  N   UNK N   1      22.242  14.247   7.944  0.00  0.00    -0.329 N 
ATOM      5  HN  UNK N   1      22.899  13.514   7.678  1.00  0.00     0.168 HD
HETATM    6  C   UNK N   1      21.967  17.070   5.590  0.00  0.00     0.038 A 
HETATM    7  N   UNK N   1      20.710  15.451   9.058  0.00  0.00    -0.280 N 
ATOM      8  HN  UNK N   1      20.043  15.743   9.771  1.00  0.00     0.189 HD
HETATM    9  N   UNK N   1      21.029  17.754   6.324  0.00  0.00    -0.352 N 
ATOM     10  HN  UNK N   1      20.679  18.646   5.973  1.00  0.00     0.166 HD
HETATM   11  C   UNK N   1      20.553  17.274   7.507  0.00  0.00     0.209 A 
HETATM   12  C   UNK N   1      21.456  14.323   9.046  0.00  0.00     0.093 A 
HETATM   13  C   UNK N   1      21.424  13.287  10.110  0.00  0.00     0.090 C 
ENDROOT
BRANCH   6  14
HETATM   14  C   UNK N   1      22.467  17.636   4.286  0.00  0.00     0.187 C 
BRANCH  14  15
HETATM   15  N   UNK N   1      21.530  18.373   3.421  0.00  0.00    -0.334 N 
HETATM   16  C   UNK N   1      20.649  17.805   2.566  0.00  0.00     0.138 A 
HETATM   17  N   UNK N   1      19.925  18.733   1.910  0.00  0.00    -0.349 N 
HETATM   18  C   UNK N   1      20.363  19.925   2.367  0.00  0.00     0.107 A 
ATOM     19  HN  UNK N   1      19.198  18.568   1.214  1.00  0.00     0.167 HD
HETATM   20  C   UNK N   1      21.357  19.703   3.303  0.00  0.00     0.110 A 
BRANCH  16  21
HETATM   21  C   UNK N   1      20.488  16.339   2.364  0.00  0.00     0.116 A 
HETATM   22  N   UNK N   1      21.111  15.734   1.311  0.00  0.00    -0.360 N 
HETATM   23  C   UNK N   1      21.005  14.402   1.070  0.00  0.00     0.088 A 
ATOM     24  HN  UNK N   1      21.676  16.303   0.683  1.00  0.00     0.165 HD
HETATM   25  C   UNK N   1      20.239  13.601   1.913  0.00  0.00     0.020 A 
HETATM   26  C   UNK N   1      19.587  14.183   3.000  0.00  0.00     0.046 A 
HETATM   27  C   UNK N   1      19.706  15.554   3.234  0.00  0.00     0.146 A 
HETATM   28  F   UNK N   1      19.065  16.101   4.296  0.00  0.00    -0.204 F 
ENDBRANCH  16  21
ENDBRANCH  14  15
ENDBRANCH   6  14
BRANCH   3  29
HETATM   29  C   UNK N   1      23.488  14.915   5.423  0.00  0.00     0.044 C 
BRANCH  29  30
HETATM   30  C   UNK N   1      23.115  14.103   4.201  0.00  0.00     0.000 C 
HETATM   31  C   UNK N   1      22.715  12.716   4.661  0.00  0.00     0.005 C 
ENDBRANCH  29  30
ENDBRANCH   3  29
TORSDOF 5
ENDMDL
