MODEL 1
REMARK VINA RESULT:      -7.3      0.000      0.000
REMARK  4 active torsions:
REMARK  status: ('A' for Active; 'I' for Inactive)
REMARK    1  A    between atoms: C_5  and  O_9 
REMARK    2  A    between atoms: O_9  and  C_10 
REMARK    3  A    between atoms: C_15  and  C_16 
REMARK    4  A    between atoms: C_19  and  N_22 
ROOT
HETATM    1  C   UNK N   1      28.754  18.313   7.720  0.00  0.00     0.053 A 
HETATM    2  C   UNK N   1      28.009  18.017   8.883  0.00  0.00     0.083 A 
HETATM    3  S   UNK N   1      29.094  17.297   9.911  0.00  0.00    -0.063 SA
HETATM    4  C   UNK N   1      30.422  17.351   8.926  0.00  0.00     0.164 A 
HETATM    5  N   UNK N   1      30.084  17.945   7.762  0.00  0.00    -0.335 N 
ATOM      6  HN  UNK N   1      30.740  18.105   6.997  1.00  0.00     0.168 HD
ENDROOT
BRANCH   1   7
HETATM    7  C   UNK N   1      28.158  18.980   6.533  0.00  0.00     0.025 A 
HETATM    8  C   UNK N   1      27.579  20.250   6.678  0.00  0.00     0.016 A 
HETATM    9  C   UNK N   1      27.019  20.908   5.583  0.00  0.00     0.001 A 
HETATM   10  C   UNK N   1      27.032  20.304   4.326  0.00  0.00     0.003 A 
HETATM   11  C   UNK N   1      27.608  19.043   4.164  0.00  0.00     0.038 A 
HETATM   12  C   UNK N   1      28.176  18.364   5.256  0.00  0.00     0.088 A 
BRANCH  12  13
HETATM   13  O   UNK N   1      28.764  17.143   5.119  0.00  0.00    -0.309 OA
BRANCH  13  14
HETATM   14  C   UNK N   1      29.942  16.781   4.544  0.00  0.00     0.082 A 
HETATM   15  C   UNK N   1      31.053  17.639   4.501  0.00  0.00     0.038 A 
HETATM   16  C   UNK N   1      32.249  17.220   3.914  0.00  0.00     0.009 A 
HETATM   17  C   UNK N   1      32.347  15.940   3.365  0.00  0.00    -0.061 A 
HETATM   18  C   UNK N   1      33.622  15.490   2.749  0.00  0.00     0.048 C 
HETATM   19  C   UNK N   1      31.249  15.080   3.398  0.00  0.00     0.016 A 
HETATM   20  C   UNK N   1      30.050  15.494   3.982  0.00  0.00    -0.028 A 
HETATM   21  C   UNK N   1      28.897  14.551   4.010  0.00  0.00     0.051 C 
ENDBRANCH  13  14
ENDBRANCH  12  13
ENDBRANCH   1   7
BRANCH   4  22
HETATM   22  N   UNK N   1      31.748  16.912   9.202  0.00  0.00    -0.170 N 
HETATM   23  C   UNK N   1      32.374  15.963   8.589  0.00  0.00     0.675 C 
HETATM   24  N   UNK N   1      31.797  15.284   7.481  0.00  0.00    -0.226 N 
HETATM   25  N   UNK N   1      33.686  15.620   9.005  0.00  0.00    -0.226 N 
HETATM   26  C   UNK N   1      32.520  14.268   6.746  0.00  0.00     0.139 C 
HETATM   27  H   UNK N   1      30.879  15.512   7.205  0.00  0.00     0.177 HD
HETATM   28  C   UNK N   1      34.031  14.412   6.920  0.00  0.00     0.040 C 
HETATM   29  C   UNK N   1      34.376  14.503   8.401  0.00  0.00     0.139 C 
HETATM   30  H   UNK N   1      34.129  16.147   9.708  0.00  0.00     0.177 HD
ATOM     31  HN  UNK N   1      32.248  17.389   9.951  1.00  0.00     0.186 HD
ENDBRANCH   4  22
TORSDOF 4
ENDMDL
MODEL 2
REMARK VINA RESULT:      -7.3      4.478      6.415
REMARK  4 active torsions:
REMARK  status: ('A' for Active; 'I' for Inactive)
REMARK    1  A    between atoms: C_5  and  O_9 
REMARK    2  A    between atoms: O_9  and  C_10 
REMARK    3  A    between atoms: C_15  and  C_16 
REMARK    4  A    between atoms: C_19  and  N_22 
ROOT
HETATM    1  C   UNK N   1      26.198  16.029   5.538  0.00  0.00     0.053 A 
HETATM    2  C   UNK N   1      26.166  14.957   4.620  0.00  0.00     0.083 A 
HETATM    3  S   UNK N   1      25.751  13.632   5.527  0.00  0.00    -0.063 SA
HETATM    4  C   UNK N   1      25.635  14.381   6.997  0.00  0.00     0.164 A 
HETATM    5  N   UNK N   1      25.897  15.696   6.844  0.00  0.00    -0.335 N 
ATOM      6  HN  UNK N   1      25.875  16.370   7.609  1.00  0.00     0.168 HD
ENDROOT
BRANCH   1   7
HETATM    7  C   UNK N   1      26.525  17.422   5.136  0.00  0.00     0.025 A 
HETATM    8  C   UNK N   1      25.801  18.023   4.095  0.00  0.00     0.016 A 
HETATM    9  C   UNK N   1      26.076  19.332   3.698  0.00  0.00     0.001 A 
HETATM   10  C   UNK N   1      27.079  20.058   4.339  0.00  0.00     0.003 A 
HETATM   11  C   UNK N   1      27.805  19.476   5.379  0.00  0.00     0.038 A 
HETATM   12  C   UNK N   1      27.544  18.158   5.791  0.00  0.00     0.088 A 
BRANCH  12  13
HETATM   13  O   UNK N   1      28.223  17.576   6.818  0.00  0.00    -0.309 OA
BRANCH  13  14
HETATM   14  C   UNK N   1      29.551  17.563   7.114  0.00  0.00     0.082 A 
HETATM   15  C   UNK N   1      30.522  17.132   6.195  0.00  0.00     0.038 A 
HETATM   16  C   UNK N   1      31.876  17.149   6.536  0.00  0.00     0.009 A 
HETATM   17  C   UNK N   1      32.274  17.599   7.797  0.00  0.00    -0.061 A 
HETATM   18  C   UNK N   1      33.716  17.626   8.156  0.00  0.00     0.048 C 
HETATM   19  C   UNK N   1      31.319  18.024   8.719  0.00  0.00     0.016 A 
HETATM   20  C   UNK N   1      29.963  18.007   8.385  0.00  0.00    -0.028 A 
HETATM   21  C   UNK N   1      28.966  18.476   9.388  0.00  0.00     0.051 C 
ENDBRANCH  13  14
ENDBRANCH  12  13
ENDBRANCH   1   7
BRANCH   4  22
HETATM   22  N   UNK N   1      25.275  13.815   8.253  0.00  0.00    -0.170 N 
HETATM   23  C   UNK N   1      24.070  13.630   8.682  0.00  0.00     0.675 C 
HETATM   24  N   UNK N   1      22.938  13.920   7.873  0.00  0.00    -0.226 N 
HETATM   25  N   UNK N   1      23.875  13.083   9.976  0.00  0.00    -0.226 N 
HETATM   26  C   UNK N   1      21.589  13.650   8.321  0.00  0.00     0.139 C 
HETATM   27  H   UNK N   1      23.076  14.316   6.981  0.00  0.00     0.177 HD
HETATM   28  C   UNK N   1      21.560  12.585   9.416  0.00  0.00     0.040 C 
HETATM   29  C   UNK N   1      22.544  12.950  10.520  0.00  0.00     0.139 C 
HETATM   30  H   UNK N   1      24.652  12.791  10.506  0.00  0.00     0.177 HD
ATOM     31  HN  UNK N   1      26.036  13.532   8.869  1.00  0.00     0.186 HD
ENDBRANCH   4  22
TORSDOF 4
ENDMDL
MODEL 3
REMARK VINA RESULT:      -7.3      2.006      5.097
REMARK  4 active torsions:
REMARK  status: ('A' for Active; 'I' for Inactive)
REMARK    1  A    between atoms: C_5  and  O_9 
REMARK    2  A    between atoms: O_9  and  C_10 
REMARK    3  A    between atoms: C_15  and  C_16 
REMARK    4  A    between atoms: C_19  and  N_22 
ROOT
HETATM    1  C   UNK N   1      31.582  15.941   5.633  0.00  0.00     0.053 A 
HETATM    2  C   UNK N   1      32.483  16.519   4.711  0.00  0.00     0.083 A 
HETATM    3  S   UNK N   1      33.615  17.288   5.648  0.00  0.00    -0.063 SA
HETATM    4  C   UNK N   1      32.984  16.917   7.131  0.00  0.00     0.164 A 
HETATM    5  N   UNK N   1      31.877  16.165   6.964  0.00  0.00    -0.335 N 
ATOM      6  HN  UNK N   1      31.317  15.802   7.736  1.00  0.00     0.168 HD
ENDROOT
BRANCH   1   7
HETATM    7  C   UNK N   1      30.403  15.142   5.211  0.00  0.00     0.025 A 
HETATM    8  C   UNK N   1      30.581  14.081   4.310  0.00  0.00     0.016 A 
HETATM    9  C   UNK N   1      29.497  13.305   3.899  0.00  0.00     0.001 A 
HETATM   10  C   UNK N   1      28.219  13.578   4.387  0.00  0.00     0.003 A 
HETATM   11  C   UNK N   1      28.026  14.627   5.288  0.00  0.00     0.038 A 
HETATM   12  C   UNK N   1      29.106  15.420   5.711  0.00  0.00     0.088 A 
BRANCH  12  13
HETATM   13  O   UNK N   1      28.947  16.435   6.607  0.00  0.00    -0.309 OA
BRANCH  13  14
HETATM   14  C   UNK N   1      28.515  17.713   6.437  0.00  0.00     0.082 A 
HETATM   15  C   UNK N   1      28.409  18.310   5.170  0.00  0.00     0.038 A 
HETATM   16  C   UNK N   1      27.945  19.621   5.041  0.00  0.00     0.009 A 
HETATM   17  C   UNK N   1      27.581  20.348   6.176  0.00  0.00    -0.061 A 
HETATM   18  C   UNK N   1      27.079  21.740   6.038  0.00  0.00     0.048 C 
HETATM   19  C   UNK N   1      27.686  19.768   7.440  0.00  0.00     0.016 A 
HETATM   20  C   UNK N   1      28.152  18.459   7.576  0.00  0.00    -0.028 A 
HETATM   21  C   UNK N   1      28.245  17.862   8.938  0.00  0.00     0.051 C 
ENDBRANCH  13  14
ENDBRANCH  12  13
ENDBRANCH   1   7
BRANCH   4  22
HETATM   22  N   UNK N   1      33.492  17.253   8.419  0.00  0.00    -0.170 N 
HETATM   23  C   UNK N   1      34.282  16.523   9.135  0.00  0.00     0.675 C 
HETATM   24  N   UNK N   1      34.800  15.291   8.651  0.00  0.00    -0.226 N 
HETATM   25  N   UNK N   1      34.674  16.985  10.417  0.00  0.00    -0.226 N 
HETATM   26  C   UNK N   1      35.739  14.503   9.420  0.00  0.00     0.139 C 
HETATM   27  H   UNK N   1      34.511  14.964   7.768  0.00  0.00     0.177 HD
HETATM   28  C   UNK N   1      36.480  15.353  10.451  0.00  0.00     0.040 C 
HETATM   29  C   UNK N   1      35.480  16.152  11.278  0.00  0.00     0.139 C 
HETATM   30  H   UNK N   1      34.397  17.879  10.721  0.00  0.00     0.177 HD
ATOM     31  HN  UNK N   1      33.205  18.150   8.810  1.00  0.00     0.186 HD
ENDBRANCH   4  22
TORSDOF 4
ENDMDL
MODEL 4
REMARK VINA RESULT:      -7.2      5.540     10.503
REMARK  4 active torsions:
REMARK  status: ('A' for Active; 'I' for Inactive)
REMARK    1  A    between atoms: C_5  and  O_9 
REMARK    2  A    between atoms: O_9  and  C_10 
REMARK    3  A    between atoms: C_15  and  C_16 
REMARK    4  A    between atoms: C_19  and  N_22 
ROOT
HETATM    1  C   UNK N   1      35.890  14.050  10.594  0.00  0.00     0.053 A 
HETATM    2  C   UNK N   1      36.506  15.293  10.859  0.00  0.00     0.083 A 
HETATM    3  S   UNK N   1      35.330  16.423  10.559  0.00  0.00    -0.063 SA
HETATM    4  C   UNK N   1      34.120  15.390  10.109  0.00  0.00     0.164 A 
HETATM    5  N   UNK N   1      34.572  14.121  10.188  0.00  0.00    -0.335 N 
ATOM      6  HN  UNK N   1      34.002  13.302   9.971  1.00  0.00     0.168 HD
ENDROOT
BRANCH   1   7
HETATM    7  C   UNK N   1      36.599  12.753  10.746  0.00  0.00     0.025 A 
HETATM    8  C   UNK N   1      37.640  12.433   9.861  0.00  0.00     0.016 A 
HETATM    9  C   UNK N   1      38.332  11.228   9.980  0.00  0.00     0.001 A 
HETATM   10  C   UNK N   1      37.993  10.326  10.988  0.00  0.00     0.003 A 
HETATM   11  C   UNK N   1      36.964  10.631  11.880  0.00  0.00     0.038 A 
HETATM   12  C   UNK N   1      36.254  11.840  11.774  0.00  0.00     0.088 A 
BRANCH  12  13
HETATM   13  O   UNK N   1      35.260  12.170  12.645  0.00  0.00    -0.309 OA
BRANCH  13  14
HETATM   14  C   UNK N   1      35.307  12.525  13.957  0.00  0.00     0.082 A 
HETATM   15  C   UNK N   1      36.134  13.557  14.428  0.00  0.00     0.038 A 
HETATM   16  C   UNK N   1      36.140  13.898  15.783  0.00  0.00     0.009 A 
HETATM   17  C   UNK N   1      35.317  13.213  16.679  0.00  0.00    -0.061 A 
HETATM   18  C   UNK N   1      35.315  13.582  18.118  0.00  0.00     0.048 C 
HETATM   19  C   UNK N   1      34.494  12.183  16.224  0.00  0.00     0.016 A 
HETATM   20  C   UNK N   1      34.487  11.836  14.871  0.00  0.00    -0.028 A 
HETATM   21  C   UNK N   1      33.590  10.737  14.413  0.00  0.00     0.051 C 
ENDBRANCH  13  14
ENDBRANCH  12  13
ENDBRANCH   1   7
BRANCH   4  22
HETATM   22  N   UNK N   1      32.782  15.702   9.736  0.00  0.00    -0.170 N 
HETATM   23  C   UNK N   1      32.419  16.293   8.646  0.00  0.00     0.675 C 
HETATM   24  N   UNK N   1      33.359  16.638   7.637  0.00  0.00    -0.226 N 
HETATM   25  N   UNK N   1      31.043  16.564   8.434  0.00  0.00    -0.226 N 
HETATM   26  C   UNK N   1      32.950  17.236   6.384  0.00  0.00     0.139 C 
HETATM   27  H   UNK N   1      34.315  16.464   7.794  0.00  0.00     0.177 HD
HETATM   28  C   UNK N   1      31.483  16.945   6.071  0.00  0.00     0.040 C 
HETATM   29  C   UNK N   1      30.615  17.305   7.270  0.00  0.00     0.139 C 
HETATM   30  H   UNK N   1      30.376  16.244   9.083  0.00  0.00     0.177 HD
ATOM     31  HN  UNK N   1      32.045  15.436  10.388  1.00  0.00     0.186 HD
ENDBRANCH   4  22
TORSDOF 4
ENDMDL
MODEL 5
REMARK VINA RESULT:      -6.8      5.075      7.097
REMARK  4 active torsions:
REMARK  status: ('A' for Active; 'I' for Inactive)
REMARK    1  A    between atoms: C_5  and  O_9 
REMARK    2  A    between atoms: O_9  and  C_10 
REMARK    3  A    between atoms: C_15  and  C_16 
REMARK    4  A    between atoms: C_19  and  N_22 
ROOT
HETATM    1  C   UNK N   1      24.165  17.279   4.605  0.00  0.00     0.053 A 
HETATM    2  C   UNK N   1      24.018  16.105   3.834  0.00  0.00     0.083 A 
HETATM    3  S   UNK N   1      22.938  15.173   4.679  0.00  0.00    -0.063 SA
HETATM    4  C   UNK N   1      22.687  16.199   5.951  0.00  0.00     0.164 A 
HETATM    5  N   UNK N   1      23.418  17.318   5.766  0.00  0.00    -0.335 N 
ATOM      6  HN  UNK N   1      23.420  18.107   6.414  1.00  0.00     0.168 HD
ENDROOT
BRANCH   1   7
HETATM    7  C   UNK N   1      25.050  18.402   4.200  0.00  0.00     0.025 A 
HETATM    8  C   UNK N   1      24.584  19.340   3.266  0.00  0.00     0.016 A 
HETATM    9  C   UNK N   1      25.386  20.411   2.871  0.00  0.00     0.001 A 
HETATM   10  C   UNK N   1      26.665  20.558   3.406  0.00  0.00     0.003 A 
HETATM   11  C   UNK N   1      27.142  19.636   4.339  0.00  0.00     0.038 A 
HETATM   12  C   UNK N   1      26.349  18.550   4.748  0.00  0.00     0.088 A 
BRANCH  12  13
HETATM   13  O   UNK N   1      26.783  17.649   5.673  0.00  0.00    -0.309 OA
BRANCH  13  14
HETATM   14  C   UNK N   1      27.953  17.572   6.361  0.00  0.00     0.082 A 
HETATM   15  C   UNK N   1      28.175  18.284   7.551  0.00  0.00     0.038 A 
HETATM   16  C   UNK N   1      29.388  18.164   8.233  0.00  0.00     0.009 A 
HETATM   17  C   UNK N   1      30.390  17.329   7.735  0.00  0.00    -0.061 A 
HETATM   18  C   UNK N   1      31.677  17.193   8.466  0.00  0.00     0.048 C 
HETATM   19  C   UNK N   1      30.183  16.620   6.552  0.00  0.00     0.016 A 
HETATM   20  C   UNK N   1      28.974  16.739   5.864  0.00  0.00    -0.028 A 
HETATM   21  C   UNK N   1      28.778  15.962   4.607  0.00  0.00     0.051 C 
ENDBRANCH  13  14
ENDBRANCH  12  13
ENDBRANCH   1   7
BRANCH   4  22
HETATM   22  N   UNK N   1      21.821  16.029   7.069  0.00  0.00    -0.170 N 
HETATM   23  C   UNK N   1      21.842  15.039   7.898  0.00  0.00     0.675 C 
HETATM   24  N   UNK N   1      22.824  14.014   7.811  0.00  0.00    -0.226 N 
HETATM   25  N   UNK N   1      20.888  14.996   8.947  0.00  0.00    -0.226 N 
HETATM   26  C   UNK N   1      22.896  12.940   8.778  0.00  0.00     0.139 C 
HETATM   27  H   UNK N   1      23.474  14.037   7.072  0.00  0.00     0.177 HD
HETATM   28  C   UNK N   1      22.227  13.322  10.098  0.00  0.00     0.040 C 
HETATM   29  C   UNK N   1      20.826  13.858   9.833  0.00  0.00     0.139 C 
HETATM   30  H   UNK N   1      20.265  15.749   9.071  0.00  0.00     0.177 HD
ATOM     31  HN  UNK N   1      21.122  16.753   7.228  1.00  0.00     0.186 HD
ENDBRANCH   4  22
TORSDOF 4
ENDMDL
MODEL 6
REMARK VINA RESULT:      -6.8      6.354     11.461
REMARK  4 active torsions:
REMARK  status: ('A' for Active; 'I' for Inactive)
REMARK    1  A    between atoms: C_5  and  O_9 
REMARK    2  A    between atoms: O_9  and  C_10 
REMARK    3  A    between atoms: C_15  and  C_16 
REMARK    4  A    between atoms: C_19  and  N_22 
ROOT
HETATM    1  C   UNK N   1      37.543  12.265  10.787  0.00  0.00     0.053 A 
HETATM    2  C   UNK N   1      38.652  12.645   9.999  0.00  0.00     0.083 A 
HETATM    3  S   UNK N   1      38.352  14.220   9.572  0.00  0.00    -0.063 SA
HETATM    4  C   UNK N   1      36.894  14.395  10.334  0.00  0.00     0.164 A 
HETATM    5  N   UNK N   1      36.586  13.244  10.966  0.00  0.00    -0.335 N 
ATOM      6  HN  UNK N   1      35.738  13.110  11.518  1.00  0.00     0.168 HD
ENDROOT
BRANCH   1   7
HETATM    7  C   UNK N   1      37.410  10.913  11.388  0.00  0.00     0.025 A 
HETATM    8  C   UNK N   1      38.220   9.869  10.914  0.00  0.00     0.016 A 
HETATM    9  C   UNK N   1      38.128   8.590  11.462  0.00  0.00     0.001 A 
HETATM   10  C   UNK N   1      37.225   8.337  12.493  0.00  0.00     0.003 A 
HETATM   11  C   UNK N   1      36.415   9.365  12.980  0.00  0.00     0.038 A 
HETATM   12  C   UNK N   1      36.493  10.660  12.439  0.00  0.00     0.088 A 
BRANCH  12  13
HETATM   13  O   UNK N   1      35.730  11.685  12.910  0.00  0.00    -0.309 OA
BRANCH  13  14
HETATM   14  C   UNK N   1      35.674  12.261  14.141  0.00  0.00     0.082 A 
HETATM   15  C   UNK N   1      36.612  13.215  14.569  0.00  0.00     0.038 A 
HETATM   16  C   UNK N   1      36.508  13.792  15.837  0.00  0.00     0.009 A 
HETATM   17  C   UNK N   1      35.464  13.423  16.689  0.00  0.00    -0.061 A 
HETATM   18  C   UNK N   1      35.347  14.044  18.033  0.00  0.00     0.048 C 
HETATM   19  C   UNK N   1      34.529  12.473  16.276  0.00  0.00     0.016 A 
HETATM   20  C   UNK N   1      34.630  11.891  15.011  0.00  0.00    -0.028 A 
HETATM   21  C   UNK N   1      33.611  10.886  14.595  0.00  0.00     0.051 C 
ENDBRANCH  13  14
ENDBRANCH  12  13
ENDBRANCH   1   7
BRANCH   4  22
HETATM   22  N   UNK N   1      36.064  15.550  10.402  0.00  0.00    -0.170 N 
HETATM   23  C   UNK N   1      35.166  15.888   9.537  0.00  0.00     0.675 C 
HETATM   24  N   UNK N   1      34.858  15.063   8.420  0.00  0.00    -0.226 N 
HETATM   25  N   UNK N   1      34.440  17.091   9.730  0.00  0.00    -0.226 N 
HETATM   26  C   UNK N   1      33.806  15.402   7.486  0.00  0.00     0.139 C 
HETATM   27  H   UNK N   1      35.375  14.237   8.279  0.00  0.00     0.177 HD
HETATM   28  C   UNK N   1      32.783  16.352   8.108  0.00  0.00     0.040 C 
HETATM   29  C   UNK N   1      33.497  17.544   8.734  0.00  0.00     0.139 C 
HETATM   30  H   UNK N   1      34.580  17.620  10.548  0.00  0.00     0.177 HD
ATOM     31  HN  UNK N   1      36.190  16.165  11.205  1.00  0.00     0.186 HD
ENDBRANCH   4  22
TORSDOF 4
ENDMDL
MODEL 7
REMARK VINA RESULT:      -6.8     12.117     14.560
REMARK  4 active torsions:
REMARK  status: ('A' for Active; 'I' for Inactive)
REMARK    1  A    between atoms: C_5  and  O_9 
REMARK    2  A    between atoms: O_9  and  C_10 
REMARK    3  A    between atoms: C_15  and  C_16 
REMARK    4  A    between atoms: C_19  and  N_22 
ROOT
HETATM    1  C   UNK N   1      27.435  26.999  -4.679  0.00  0.00     0.053 A 
HETATM    2  C   UNK N   1      26.538  27.872  -5.333  0.00  0.00     0.083 A 
HETATM    3  S   UNK N   1      25.350  26.887  -5.939  0.00  0.00    -0.063 SA
HETATM    4  C   UNK N   1      25.953  25.440  -5.410  0.00  0.00     0.164 A 
HETATM    5  N   UNK N   1      27.094  25.662  -4.726  0.00  0.00    -0.335 N 
ATOM      6  HN  UNK N   1      27.646  24.922  -4.290  1.00  0.00     0.168 HD
ENDROOT
BRANCH   1   7
HETATM    7  C   UNK N   1      28.658  27.476  -3.982  0.00  0.00     0.025 A 
HETATM    8  C   UNK N   1      28.680  28.774  -3.449  0.00  0.00     0.016 A 
HETATM    9  C   UNK N   1      29.808  29.251  -2.781  0.00  0.00     0.001 A 
HETATM   10  C   UNK N   1      30.929  28.435  -2.635  0.00  0.00     0.003 A 
HETATM   11  C   UNK N   1      30.921  27.139  -3.155  0.00  0.00     0.038 A 
HETATM   12  C   UNK N   1      29.794  26.642  -3.832  0.00  0.00     0.088 A 
BRANCH  12  13
HETATM   13  O   UNK N   1      29.753  25.375  -4.329  0.00  0.00    -0.309 OA
BRANCH  13  14
HETATM   14  C   UNK N   1      30.586  24.316  -4.139  0.00  0.00     0.082 A 
HETATM   15  C   UNK N   1      31.812  24.193  -4.812  0.00  0.00     0.038 A 
HETATM   16  C   UNK N   1      32.644  23.097  -4.575  0.00  0.00     0.009 A 
HETATM   17  C   UNK N   1      32.259  22.112  -3.663  0.00  0.00    -0.061 A 
HETATM   18  C   UNK N   1      33.148  20.950  -3.404  0.00  0.00     0.048 C 
HETATM   19  C   UNK N   1      31.041  22.220  -2.992  0.00  0.00     0.016 A 
HETATM   20  C   UNK N   1      30.204  23.313  -3.227  0.00  0.00    -0.028 A 
HETATM   21  C   UNK N   1      28.913  23.406  -2.488  0.00  0.00     0.051 C 
ENDBRANCH  13  14
ENDBRANCH  12  13
ENDBRANCH   1   7
BRANCH   4  22
HETATM   22  N   UNK N   1      25.395  24.139  -5.565  0.00  0.00    -0.170 N 
HETATM   23  C   UNK N   1      25.617  23.333  -6.551  0.00  0.00     0.675 C 
HETATM   24  N   UNK N   1      26.538  23.656  -7.585  0.00  0.00    -0.226 N 
HETATM   25  N   UNK N   1      24.958  22.078  -6.577  0.00  0.00    -0.226 N 
HETATM   26  C   UNK N   1      26.843  22.730  -8.654  0.00  0.00     0.139 C 
HETATM   27  H   UNK N   1      26.981  24.536  -7.573  0.00  0.00     0.177 HD
HETATM   28  C   UNK N   1      26.532  21.287  -8.257  0.00  0.00     0.040 C 
HETATM   29  C   UNK N   1      25.113  21.195  -7.710  0.00  0.00     0.139 C 
HETATM   30  H   UNK N   1      24.392  21.807  -5.819  0.00  0.00     0.177 HD
ATOM     31  HN  UNK N   1      24.764  23.815  -4.833  1.00  0.00     0.186 HD
ENDBRANCH   4  22
TORSDOF 4
ENDMDL
MODEL 8
REMARK VINA RESULT:      -6.7      9.107     12.968
REMARK  4 active torsions:
REMARK  status: ('A' for Active; 'I' for Inactive)
REMARK    1  A    between atoms: C_5  and  O_9 
REMARK    2  A    between atoms: O_9  and  C_10 
REMARK    3  A    between atoms: C_15  and  C_16 
REMARK    4  A    between atoms: C_19  and  N_22 
ROOT
HETATM    1  C   UNK N   1      35.606  13.141  15.431  0.00  0.00     0.053 A 
HETATM    2  C   UNK N   1      36.502  14.141  14.991  0.00  0.00     0.083 A 
HETATM    3  S   UNK N   1      36.264  14.234  13.352  0.00  0.00    -0.063 SA
HETATM    4  C   UNK N   1      35.103  13.064  13.216  0.00  0.00     0.164 A 
HETATM    5  N   UNK N   1      34.838  12.562  14.440  0.00  0.00    -0.335 N 
ATOM      6  HN  UNK N   1      34.145  11.833  14.615  1.00  0.00     0.168 HD
ENDROOT
BRANCH   1   7
HETATM    7  C   UNK N   1      35.487  12.739  16.856  0.00  0.00     0.025 A 
HETATM    8  C   UNK N   1      35.239  13.721  17.827  0.00  0.00     0.016 A 
HETATM    9  C   UNK N   1      35.113  13.378  19.173  0.00  0.00     0.001 A 
HETATM   10  C   UNK N   1      35.232  12.046  19.566  0.00  0.00     0.003 A 
HETATM   11  C   UNK N   1      35.475  11.056  18.612  0.00  0.00     0.038 A 
HETATM   12  C   UNK N   1      35.607  11.383  17.252  0.00  0.00     0.088 A 
BRANCH  12  13
HETATM   13  O   UNK N   1      35.822  10.433  16.300  0.00  0.00    -0.309 OA
BRANCH  13  14
HETATM   14  C   UNK N   1      36.973   9.866  15.851  0.00  0.00     0.082 A 
HETATM   15  C   UNK N   1      37.830  10.515  14.948  0.00  0.00     0.038 A 
HETATM   16  C   UNK N   1      39.011   9.902  14.525  0.00  0.00     0.009 A 
HETATM   17  C   UNK N   1      39.349   8.633  15.002  0.00  0.00    -0.061 A 
HETATM   18  C   UNK N   1      40.610   7.984  14.560  0.00  0.00     0.048 C 
HETATM   19  C   UNK N   1      38.504   7.976  15.896  0.00  0.00     0.016 A 
HETATM   20  C   UNK N   1      37.321   8.584  16.320  0.00  0.00    -0.028 A 
HETATM   21  C   UNK N   1      36.443   7.861  17.283  0.00  0.00     0.051 C 
ENDBRANCH  13  14
ENDBRANCH  12  13
ENDBRANCH   1   7
BRANCH   4  22
HETATM   22  N   UNK N   1      34.411  12.634  12.048  0.00  0.00    -0.170 N 
HETATM   23  C   UNK N   1      34.796  11.700  11.242  0.00  0.00     0.675 C 
HETATM   24  N   UNK N   1      35.963  10.929  11.497  0.00  0.00    -0.226 N 
HETATM   25  N   UNK N   1      34.010  11.409  10.098  0.00  0.00    -0.226 N 
HETATM   26  C   UNK N   1      36.361   9.836  10.635  0.00  0.00     0.139 C 
HETATM   27  H   UNK N   1      36.517  11.145  12.283  0.00  0.00     0.177 HD
HETATM   28  C   UNK N   1      35.181   9.292   9.832  0.00  0.00     0.040 C 
HETATM   29  C   UNK N   1      34.460  10.436   9.130  0.00  0.00     0.139 C 
HETATM   30  H   UNK N   1      33.152  11.873   9.963  0.00  0.00     0.177 HD
ATOM     31  HN  UNK N   1      33.535  13.105  11.828  1.00  0.00     0.186 HD
ENDBRANCH   4  22
TORSDOF 4
ENDMDL
MODEL 9
REMARK VINA RESULT:      -6.6      5.129      7.197
REMARK  4 active torsions:
REMARK  status: ('A' for Active; 'I' for Inactive)
REMARK    1  A    between atoms: C_5  and  O_9 
REMARK    2  A    between atoms: O_9  and  C_10 
REMARK    3  A    between atoms: C_15  and  C_16 
REMARK    4  A    between atoms: C_19  and  N_22 
ROOT
HETATM    1  C   UNK N   1      24.580  19.634   3.920  0.00  0.00     0.053 A 
HETATM    2  C   UNK N   1      25.553  20.074   2.995  0.00  0.00     0.083 A 
HETATM    3  S   UNK N   1      26.958  20.174   3.870  0.00  0.00    -0.063 SA
HETATM    4  C   UNK N   1      26.356  19.700   5.336  0.00  0.00     0.164 A 
HETATM    5  N   UNK N   1      25.041  19.427   5.205  0.00  0.00    -0.335 N 
ATOM      6  HN  UNK N   1      24.451  19.103   5.972  1.00  0.00     0.168 HD
ENDROOT
BRANCH   1   7
HETATM    7  C   UNK N   1      23.161  19.403   3.545  0.00  0.00     0.025 A 
HETATM    8  C   UNK N   1      22.463  20.404   2.852  0.00  0.00     0.016 A 
HETATM    9  C   UNK N   1      21.133  20.217   2.477  0.00  0.00     0.001 A 
HETATM   10  C   UNK N   1      20.483  19.023   2.788  0.00  0.00     0.003 A 
HETATM   11  C   UNK N   1      21.165  18.015   3.472  0.00  0.00     0.038 A 
HETATM   12  C   UNK N   1      22.505  18.187   3.860  0.00  0.00     0.088 A 
BRANCH  12  13
HETATM   13  O   UNK N   1      23.198  17.210   4.508  0.00  0.00    -0.309 OA
BRANCH  13  14
HETATM   14  C   UNK N   1      22.771  16.185   5.293  0.00  0.00     0.082 A 
HETATM   15  C   UNK N   1      22.195  16.395   6.557  0.00  0.00     0.038 A 
HETATM   16  C   UNK N   1      21.756  15.313   7.324  0.00  0.00     0.009 A 
HETATM   17  C   UNK N   1      21.885  14.012   6.835  0.00  0.00    -0.061 A 
HETATM   18  C   UNK N   1      21.410  12.861   7.646  0.00  0.00     0.048 C 
HETATM   19  C   UNK N   1      22.460  13.791   5.583  0.00  0.00     0.016 A 
HETATM   20  C   UNK N   1      22.903  14.868   4.813  0.00  0.00    -0.028 A 
HETATM   21  C   UNK N   1      23.505  14.601   3.476  0.00  0.00     0.051 C 
ENDBRANCH  13  14
ENDBRANCH  12  13
ENDBRANCH   1   7
BRANCH   4  22
HETATM   22  N   UNK N   1      27.052  19.533   6.567  0.00  0.00    -0.170 N 
HETATM   23  C   UNK N   1      27.919  18.611   6.827  0.00  0.00     0.675 C 
HETATM   24  N   UNK N   1      28.332  17.676   5.838  0.00  0.00    -0.226 N 
HETATM   25  N   UNK N   1      28.503  18.558   8.118  0.00  0.00    -0.226 N 
HETATM   26  C   UNK N   1      29.353  16.685   6.103  0.00  0.00     0.139 C 
HETATM   27  H   UNK N   1      27.911  17.704   4.948  0.00  0.00     0.177 HD
HETATM   28  C   UNK N   1      30.254  17.099   7.265  0.00  0.00     0.040 C 
HETATM   29  C   UNK N   1      29.404  17.485   8.469  0.00  0.00     0.139 C 
HETATM   30  H   UNK N   1      28.294  19.257   8.778  0.00  0.00     0.177 HD
ATOM     31  HN  UNK N   1      26.847  20.200   7.309  1.00  0.00     0.186 HD
ENDBRANCH   4  22
TORSDOF 4
ENDMDL
