MODEL 1
REMARK VINA RESULT:      -7.6      0.000      0.000
REMARK  7 active torsions:
REMARK  status: ('A' for Active; 'I' for Inactive)
REMARK    1  A    between atoms: C_2  and  C_3 
REMARK    2  A    between atoms: C_2  and  C_17 
REMARK    3  A    between atoms: C_6  and  C_9 
REMARK    4  A    between atoms: C_17  and  C_18 
REMARK    5  A    between atoms: C_17  and  C_26 
REMARK    6  A    between atoms: C_17  and  O_34 
REMARK    7  A    between atoms: C_18  and  N_19 
ROOT
HETATM    1  C   UNK N   1      21.070  13.579   9.343  0.00  0.00    -0.009 A 
HETATM    2  C   UNK N   1      22.476  13.495   9.360  0.00  0.00     0.015 A 
HETATM    3  C   UNK N   1      23.129  12.898  10.421  0.00  0.00     0.023 A 
HETATM    4  C   UNK N   1      22.378  12.381  11.470  0.00  0.00     0.044 A 
HETATM    5  C   UNK N   1      20.981  12.353  11.408  0.00  0.00     0.023 A 
HETATM    6  C   UNK N   1      20.320  12.965  10.341  0.00  0.00     0.015 A 
HETATM    7  C   UNK N   1      23.054  12.006  12.663  0.00  0.00     0.099 C 
HETATM    8  N   UNK N   1      23.669  11.719  13.597  0.00  0.00    -0.191 NA
ENDROOT
BRANCH   1   9
HETATM    9  C   UNK N   1      20.504  14.652   8.546  0.00  0.00     0.049 A 
HETATM   10  N   UNK N   1      20.988  14.739   7.280  0.00  0.00    -0.352 N 
HETATM   11  C   UNK N   1      20.690  15.866   6.658  0.00  0.00     0.058 A 
ATOM     12  HN  UNK N   1      21.537  13.997   6.847  1.00  0.00     0.166 HD
HETATM   13  S   UNK N   1      19.707  16.770   7.639  0.00  0.00    -0.086 SA
HETATM   14  C   UNK N   1      19.734  15.762   8.977  0.00  0.00     0.081 A 
BRANCH  11  15
HETATM   15  C   UNK N   1      21.022  16.041   5.234  0.00  0.00     0.080 C 
HETATM   16  C   UNK N   1      20.733  14.643   4.704  0.00  0.00     0.020 C 
BRANCH  15  17
HETATM   17  C   UNK N   1      22.450  16.739   4.925  0.00  0.00     0.115 C 
BRANCH  17  18
HETATM   18  C   UNK N   1      23.608  15.803   4.456  0.00  0.00     0.193 C 
BRANCH  18  19
HETATM   19  N   UNK N   1      24.446  15.325   5.578  0.00  0.00    -0.284 N 
HETATM   20  C   UNK N   1      24.428  14.106   6.144  0.00  0.00     0.201 A 
HETATM   21  N   UNK N   1      25.358  14.039   7.122  0.00  0.00    -0.346 N 
HETATM   22  C   UNK N   1      25.940  15.259   7.120  0.00  0.00     0.198 A 
ATOM     23  HN  UNK N   1      25.573  13.245   7.726  1.00  0.00     0.167 HD
HETATM   24  N   UNK N   1      25.382  16.044   6.176  0.00  0.00    -0.293 N 
ATOM     25  HN  UNK N   1      25.633  17.010   5.963  1.00  0.00     0.188 HD
ENDBRANCH  18  19
ENDBRANCH  17  18
BRANCH  17  26
HETATM   26  C   UNK N   1      22.217  17.860   3.904  0.00  0.00     0.017 C 
HETATM   27  C   UNK N   1      21.004  17.871   3.197  0.00  0.00     0.016 C 
HETATM   28  C   UNK N   1      20.545  18.999   2.545  0.00  0.00     0.043 C 
HETATM   29  C   UNK N   1      21.326  20.142   2.533  0.00  0.00     0.119 C 
HETATM   30  C   UNK N   1      22.620  20.110   3.076  0.00  0.00     0.085 C 
HETATM   31  F   UNK N   1      20.801  21.290   2.044  0.00  0.00    -0.206 F 
HETATM   32  C   UNK N   1      23.078  18.968   3.753  0.00  0.00     0.128 C 
HETATM   33  F   UNK N   1      24.319  18.973   4.304  0.00  0.00    -0.205 F 
ENDBRANCH  17  26
BRANCH  17  34
HETATM   34  O   UNK N   1      22.853  17.292   6.149  0.00  0.00    -0.382 OA
HETATM   35  H   UNK N   1      23.115  18.038   6.709  0.00  0.00     0.211 HD
ENDBRANCH  17  34
ENDBRANCH  15  17
ENDBRANCH  11  15
ENDBRANCH   1   9
TORSDOF 7
ENDMDL
MODEL 2
REMARK VINA RESULT:      -7.6      5.898      8.380
REMARK  7 active torsions:
REMARK  status: ('A' for Active; 'I' for Inactive)
REMARK    1  A    between atoms: C_2  and  C_3 
REMARK    2  A    between atoms: C_2  and  C_17 
REMARK    3  A    between atoms: C_6  and  C_9 
REMARK    4  A    between atoms: C_17  and  C_18 
REMARK    5  A    between atoms: C_17  and  C_26 
REMARK    6  A    between atoms: C_17  and  O_34 
REMARK    7  A    between atoms: C_18  and  N_19 
ROOT
HETATM    1  C   UNK N   1      31.686  16.925   8.348  0.00  0.00    -0.009 A 
HETATM    2  C   UNK N   1      32.710  17.881   8.196  0.00  0.00     0.015 A 
HETATM    3  C   UNK N   1      33.970  17.645   8.710  0.00  0.00     0.023 A 
HETATM    4  C   UNK N   1      34.213  16.451   9.379  0.00  0.00     0.044 A 
HETATM    5  C   UNK N   1      33.241  15.447   9.432  0.00  0.00     0.023 A 
HETATM    6  C   UNK N   1      31.963  15.688   8.922  0.00  0.00     0.015 A 
HETATM    7  C   UNK N   1      35.419  16.326  10.121  0.00  0.00     0.099 C 
HETATM    8  N   UNK N   1      36.418  16.294  10.698  0.00  0.00    -0.191 NA
ENDROOT
BRANCH   1   9
HETATM    9  C   UNK N   1      30.327  17.432   8.303  0.00  0.00     0.049 A 
HETATM   10  N   UNK N   1      29.611  17.050   7.215  0.00  0.00    -0.352 N 
HETATM   11  C   UNK N   1      28.491  17.728   7.032  0.00  0.00     0.058 A 
ATOM     12  HN  UNK N   1      29.913  16.303   6.589  1.00  0.00     0.166 HD
HETATM   13  S   UNK N   1      28.293  18.777   8.300  0.00  0.00    -0.086 SA
HETATM   14  C   UNK N   1      29.743  18.464   9.080  0.00  0.00     0.081 A 
BRANCH  11  15
HETATM   15  C   UNK N   1      27.542  17.328   5.979  0.00  0.00     0.080 C 
HETATM   16  C   UNK N   1      27.544  15.816   6.159  0.00  0.00     0.020 C 
BRANCH  15  17
HETATM   17  C   UNK N   1      27.807  17.966   4.514  0.00  0.00     0.115 C 
BRANCH  17  18
HETATM   18  C   UNK N   1      28.554  17.068   3.478  0.00  0.00     0.193 C 
BRANCH  18  19
HETATM   19  N   UNK N   1      29.972  16.841   3.836  0.00  0.00    -0.284 N 
HETATM   20  C   UNK N   1      30.571  15.662   4.077  0.00  0.00     0.201 A 
HETATM   21  N   UNK N   1      31.881  15.857   4.344  0.00  0.00    -0.346 N 
HETATM   22  C   UNK N   1      32.050  17.195   4.250  0.00  0.00     0.198 A 
ATOM     23  HN  UNK N   1      32.585  15.153   4.566  1.00  0.00     0.167 HD
HETATM   24  N   UNK N   1      30.883  17.796   3.939  0.00  0.00    -0.293 N 
ATOM     25  HN  UNK N   1      30.730  18.796   3.810  1.00  0.00     0.188 HD
ENDBRANCH  18  19
ENDBRANCH  17  18
BRANCH  17  26
HETATM   26  C   UNK N   1      26.459  18.431   3.951  0.00  0.00     0.017 C 
HETATM   27  C   UNK N   1      25.342  17.601   4.133  0.00  0.00     0.016 C 
HETATM   28  C   UNK N   1      24.049  18.070   3.999  0.00  0.00     0.043 C 
HETATM   29  C   UNK N   1      23.840  19.383   3.614  0.00  0.00     0.119 C 
HETATM   30  C   UNK N   1      24.930  20.188   3.251  0.00  0.00     0.085 C 
HETATM   31  F   UNK N   1      22.582  19.885   3.649  0.00  0.00    -0.206 F 
HETATM   32  C   UNK N   1      26.244  19.715   3.405  0.00  0.00     0.128 C 
HETATM   33  F   UNK N   1      27.285  20.525   3.083  0.00  0.00    -0.205 F 
ENDBRANCH  17  26
BRANCH  17  34
HETATM   34  O   UNK N   1      28.630  19.076   4.748  0.00  0.00    -0.382 OA
HETATM   35  H   UNK N   1      28.855  20.014   4.650  0.00  0.00     0.211 HD
ENDBRANCH  17  34
ENDBRANCH  15  17
ENDBRANCH  11  15
ENDBRANCH   1   9
TORSDOF 7
ENDMDL
MODEL 3
REMARK VINA RESULT:      -7.6      5.451      8.758
REMARK  7 active torsions:
REMARK  status: ('A' for Active; 'I' for Inactive)
REMARK    1  A    between atoms: C_2  and  C_3 
REMARK    2  A    between atoms: C_2  and  C_17 
REMARK    3  A    between atoms: C_6  and  C_9 
REMARK    4  A    between atoms: C_17  and  C_18 
REMARK    5  A    between atoms: C_17  and  C_26 
REMARK    6  A    between atoms: C_17  and  O_34 
REMARK    7  A    between atoms: C_18  and  N_19 
ROOT
HETATM    1  C   UNK N   1      31.525  16.603   5.945  0.00  0.00    -0.009 A 
HETATM    2  C   UNK N   1      32.807  16.796   5.392  0.00  0.00     0.015 A 
HETATM    3  C   UNK N   1      33.814  17.369   6.142  0.00  0.00     0.023 A 
HETATM    4  C   UNK N   1      33.545  17.753   7.452  0.00  0.00     0.044 A 
HETATM    5  C   UNK N   1      32.315  17.458   8.047  0.00  0.00     0.023 A 
HETATM    6  C   UNK N   1      31.292  16.888   7.287  0.00  0.00     0.015 A 
HETATM    7  C   UNK N   1      34.496  18.566   8.125  0.00  0.00     0.099 C 
HETATM    8  N   UNK N   1      35.313  19.222   8.610  0.00  0.00    -0.191 NA
ENDROOT
BRANCH   1   9
HETATM    9  C   UNK N   1      30.425  16.538   5.001  0.00  0.00     0.049 A 
HETATM   10  N   UNK N   1      29.270  16.032   5.505  0.00  0.00    -0.352 N 
HETATM   11  C   UNK N   1      28.369  15.713   4.592  0.00  0.00     0.058 A 
ATOM     12  HN  UNK N   1      29.111  15.909   6.505  1.00  0.00     0.166 HD
HETATM   13  S   UNK N   1      28.946  16.152   3.101  0.00  0.00    -0.086 SA
HETATM   14  C   UNK N   1      30.462  16.672   3.590  0.00  0.00     0.081 A 
BRANCH  11  15
HETATM   15  C   UNK N   1      27.017  15.292   4.995  0.00  0.00     0.080 C 
HETATM   16  C   UNK N   1      26.591  14.500   3.765  0.00  0.00     0.020 C 
BRANCH  15  17
HETATM   17  C   UNK N   1      26.057  16.462   5.570  0.00  0.00     0.115 C 
BRANCH  17  18
HETATM   18  C   UNK N   1      25.763  17.665   4.620  0.00  0.00     0.193 C 
BRANCH  18  19
HETATM   19  N   UNK N   1      26.413  18.918   5.066  0.00  0.00    -0.284 N 
HETATM   20  C   UNK N   1      27.524  19.481   4.563  0.00  0.00     0.201 A 
HETATM   21  N   UNK N   1      27.792  20.635   5.213  0.00  0.00    -0.346 N 
HETATM   22  C   UNK N   1      26.799  20.748   6.123  0.00  0.00     0.198 A 
ATOM     23  HN  UNK N   1      28.569  21.277   5.054  1.00  0.00     0.167 HD
HETATM   24  N   UNK N   1      25.956  19.699   6.033  0.00  0.00    -0.293 N 
ATOM     25  HN  UNK N   1      25.125  19.536   6.601  1.00  0.00     0.188 HD
ENDBRANCH  18  19
ENDBRANCH  17  18
BRANCH  17  26
HETATM   26  C   UNK N   1      24.749  15.813   6.039  0.00  0.00     0.017 C 
HETATM   27  C   UNK N   1      23.556  16.195   5.405  0.00  0.00     0.016 C 
HETATM   28  C   UNK N   1      22.406  15.434   5.486  0.00  0.00     0.043 C 
HETATM   29  C   UNK N   1      22.403  14.288   6.263  0.00  0.00     0.119 C 
HETATM   30  C   UNK N   1      23.522  13.975   7.051  0.00  0.00     0.085 C 
HETATM   31  F   UNK N   1      21.335  13.457   6.205  0.00  0.00    -0.206 F 
HETATM   32  C   UNK N   1      24.696  14.740   6.954  0.00  0.00     0.128 C 
HETATM   33  F   UNK N   1      25.778  14.396   7.697  0.00  0.00    -0.205 F 
ENDBRANCH  17  26
BRANCH  17  34
HETATM   34  O   UNK N   1      26.747  16.983   6.674  0.00  0.00    -0.382 OA
HETATM   35  H   UNK N   1      26.819  17.567   7.445  0.00  0.00     0.211 HD
ENDBRANCH  17  34
ENDBRANCH  15  17
ENDBRANCH  11  15
ENDBRANCH   1   9
TORSDOF 7
ENDMDL
MODEL 4
REMARK VINA RESULT:      -7.6      1.751      2.384
REMARK  7 active torsions:
REMARK  status: ('A' for Active; 'I' for Inactive)
REMARK    1  A    between atoms: C_2  and  C_3 
REMARK    2  A    between atoms: C_2  and  C_17 
REMARK    3  A    between atoms: C_6  and  C_9 
REMARK    4  A    between atoms: C_17  and  C_18 
REMARK    5  A    between atoms: C_17  and  C_26 
REMARK    6  A    between atoms: C_17  and  O_34 
REMARK    7  A    between atoms: C_18  and  N_19 
ROOT
HETATM    1  C   UNK N   1      21.369  13.478   9.226  0.00  0.00    -0.009 A 
HETATM    2  C   UNK N   1      22.768  13.338   9.322  0.00  0.00     0.015 A 
HETATM    3  C   UNK N   1      23.339  12.783  10.450  0.00  0.00     0.023 A 
HETATM    4  C   UNK N   1      22.515  12.364  11.488  0.00  0.00     0.044 A 
HETATM    5  C   UNK N   1      21.123  12.390  11.354  0.00  0.00     0.023 A 
HETATM    6  C   UNK N   1      20.544  12.960  10.218  0.00  0.00     0.015 A 
HETATM    7  C   UNK N   1      23.113  12.037  12.736  0.00  0.00     0.099 C 
HETATM    8  N   UNK N   1      23.667  11.786  13.717  0.00  0.00    -0.191 NA
ENDROOT
BRANCH   1   9
HETATM    9  C   UNK N   1      20.892  14.521   8.336  0.00  0.00     0.049 A 
HETATM   10  N   UNK N   1      21.511  14.568   7.128  0.00  0.00    -0.352 N 
HETATM   11  C   UNK N   1      21.281  15.672   6.439  0.00  0.00     0.058 A 
ATOM     12  HN  UNK N   1      22.104  13.814   6.782  1.00  0.00     0.166 HD
HETATM   13  S   UNK N   1      20.196  16.604   7.277  0.00  0.00    -0.086 SA
HETATM   14  C   UNK N   1      20.079  15.641   8.643  0.00  0.00     0.081 A 
BRANCH  11  15
HETATM   15  C   UNK N   1      21.765  15.800   5.054  0.00  0.00     0.080 C 
HETATM   16  C   UNK N   1      22.517  14.485   4.897  0.00  0.00     0.020 C 
BRANCH  15  17
HETATM   17  C   UNK N   1      22.501  17.197   4.692  0.00  0.00     0.115 C 
BRANCH  17  18
HETATM   18  C   UNK N   1      23.895  17.102   3.998  0.00  0.00     0.193 C 
BRANCH  18  19
HETATM   19  N   UNK N   1      24.754  18.274   4.277  0.00  0.00    -0.284 N 
HETATM   20  C   UNK N   1      24.929  19.357   3.501  0.00  0.00     0.201 A 
HETATM   21  N   UNK N   1      25.767  20.227   4.106  0.00  0.00    -0.346 N 
HETATM   22  C   UNK N   1      26.087  19.631   5.277  0.00  0.00     0.198 A 
ATOM     23  HN  UNK N   1      26.088  21.132   3.759  1.00  0.00     0.167 HD
HETATM   24  N   UNK N   1      25.467  18.438   5.381  0.00  0.00    -0.293 N 
ATOM     25  HN  UNK N   1      25.535  17.784   6.161  1.00  0.00     0.188 HD
ENDBRANCH  18  19
ENDBRANCH  17  18
BRANCH  17  26
HETATM   26  C   UNK N   1      21.534  18.035   3.846  0.00  0.00     0.017 C 
HETATM   27  C   UNK N   1      21.228  19.334   4.281  0.00  0.00     0.016 C 
HETATM   28  C   UNK N   1      20.680  20.280   3.437  0.00  0.00     0.043 C 
HETATM   29  C   UNK N   1      20.365  19.928   2.136  0.00  0.00     0.119 C 
HETATM   30  C   UNK N   1      20.492  18.593   1.721  0.00  0.00     0.085 C 
HETATM   31  F   UNK N   1      19.990  20.897   1.266  0.00  0.00    -0.206 F 
HETATM   32  C   UNK N   1      21.065  17.636   2.576  0.00  0.00     0.128 C 
HETATM   33  F   UNK N   1      21.213  16.359   2.141  0.00  0.00    -0.205 F 
ENDBRANCH  17  26
BRANCH  17  34
HETATM   34  O   UNK N   1      22.711  17.824   5.929  0.00  0.00    -0.382 OA
HETATM   35  H   UNK N   1      22.894  17.805   6.881  0.00  0.00     0.211 HD
ENDBRANCH  17  34
ENDBRANCH  15  17
ENDBRANCH  11  15
ENDBRANCH   1   9
TORSDOF 7
ENDMDL
MODEL 5
REMARK VINA RESULT:      -7.4      3.077      4.259
REMARK  7 active torsions:
REMARK  status: ('A' for Active; 'I' for Inactive)
REMARK    1  A    between atoms: C_2  and  C_3 
REMARK    2  A    between atoms: C_2  and  C_17 
REMARK    3  A    between atoms: C_6  and  C_9 
REMARK    4  A    between atoms: C_17  and  C_18 
REMARK    5  A    between atoms: C_17  and  C_26 
REMARK    6  A    between atoms: C_17  and  O_34 
REMARK    7  A    between atoms: C_18  and  N_19 
ROOT
HETATM    1  C   UNK N   1      23.276  13.007   8.742  0.00  0.00    -0.009 A 
HETATM    2  C   UNK N   1      24.487  12.621   9.350  0.00  0.00     0.015 A 
HETATM    3  C   UNK N   1      24.513  12.235  10.675  0.00  0.00     0.023 A 
HETATM    4  C   UNK N   1      23.328  12.232  11.401  0.00  0.00     0.044 A 
HETATM    5  C   UNK N   1      22.104  12.498  10.778  0.00  0.00     0.023 A 
HETATM    6  C   UNK N   1      22.078  12.899   9.440  0.00  0.00     0.015 A 
HETATM    7  C   UNK N   1      23.400  12.085  12.813  0.00  0.00     0.099 C 
HETATM    8  N   UNK N   1      23.536  11.958  13.952  0.00  0.00    -0.191 NA
ENDROOT
BRANCH   1   9
HETATM    9  C   UNK N   1      23.389  13.895   7.599  0.00  0.00     0.049 A 
HETATM   10  N   UNK N   1      24.643  14.013   7.091  0.00  0.00    -0.352 N 
HETATM   11  C   UNK N   1      24.798  15.018   6.247  0.00  0.00     0.058 A 
ATOM     12  HN  UNK N   1      25.402  13.379   7.340  1.00  0.00     0.166 HD
HETATM   13  S   UNK N   1      23.328  15.749   6.017  0.00  0.00    -0.086 SA
HETATM   14  C   UNK N   1      22.450  14.841   7.118  0.00  0.00     0.081 A 
BRANCH  11  15
HETATM   15  C   UNK N   1      26.060  15.181   5.506  0.00  0.00     0.080 C 
HETATM   16  C   UNK N   1      26.546  13.739   5.457  0.00  0.00     0.020 C 
BRANCH  15  17
HETATM   17  C   UNK N   1      27.048  16.345   6.047  0.00  0.00     0.115 C 
BRANCH  17  18
HETATM   18  C   UNK N   1      28.576  16.029   6.053  0.00  0.00     0.193 C 
BRANCH  18  19
HETATM   19  N   UNK N   1      29.212  16.257   4.737  0.00  0.00    -0.284 N 
HETATM   20  C   UNK N   1      30.089  17.224   4.414  0.00  0.00     0.201 A 
HETATM   21  N   UNK N   1      30.467  17.090   3.124  0.00  0.00    -0.346 N 
HETATM   22  C   UNK N   1      29.790  16.006   2.683  0.00  0.00     0.198 A 
ATOM     23  HN  UNK N   1      31.118  17.676   2.599  1.00  0.00     0.167 HD
HETATM   24  N   UNK N   1      29.024  15.498   3.669  0.00  0.00    -0.293 N 
ATOM     25  HN  UNK N   1      28.414  14.683   3.605  1.00  0.00     0.188 HD
ENDBRANCH  18  19
ENDBRANCH  17  18
BRANCH  17  26
HETATM   26  C   UNK N   1      26.765  17.618   5.239  0.00  0.00     0.017 C 
HETATM   27  C   UNK N   1      26.046  17.495   4.040  0.00  0.00     0.016 C 
HETATM   28  C   UNK N   1      25.433  18.578   3.438  0.00  0.00     0.043 C 
HETATM   29  C   UNK N   1      25.577  19.836   3.996  0.00  0.00     0.119 C 
HETATM   30  C   UNK N   1      26.434  20.022   5.092  0.00  0.00     0.085 C 
HETATM   31  F   UNK N   1      24.839  20.860   3.505  0.00  0.00    -0.206 F 
HETATM   32  C   UNK N   1      27.042  18.918   5.713  0.00  0.00     0.128 C 
HETATM   33  F   UNK N   1      27.837  19.118   6.795  0.00  0.00    -0.205 F 
ENDBRANCH  17  26
BRANCH  17  34
HETATM   34  O   UNK N   1      26.674  16.541   7.384  0.00  0.00    -0.382 OA
HETATM   35  H   UNK N   1      26.157  16.317   8.173  0.00  0.00     0.211 HD
ENDBRANCH  17  34
ENDBRANCH  15  17
ENDBRANCH  11  15
ENDBRANCH   1   9
TORSDOF 7
ENDMDL
MODEL 6
REMARK VINA RESULT:      -7.4      3.296      4.621
REMARK  7 active torsions:
REMARK  status: ('A' for Active; 'I' for Inactive)
REMARK    1  A    between atoms: C_2  and  C_3 
REMARK    2  A    between atoms: C_2  and  C_17 
REMARK    3  A    between atoms: C_6  and  C_9 
REMARK    4  A    between atoms: C_17  and  C_18 
REMARK    5  A    between atoms: C_17  and  C_26 
REMARK    6  A    between atoms: C_17  and  O_34 
REMARK    7  A    between atoms: C_18  and  N_19 
ROOT
HETATM    1  C   UNK N   1      24.256  13.101   8.244  0.00  0.00    -0.009 A 
HETATM    2  C   UNK N   1      25.161  13.306   9.304  0.00  0.00     0.015 A 
HETATM    3  C   UNK N   1      24.878  12.826  10.567  0.00  0.00     0.023 A 
HETATM    4  C   UNK N   1      23.690  12.137  10.777  0.00  0.00     0.044 A 
HETATM    5  C   UNK N   1      22.843  11.825   9.710  0.00  0.00     0.023 A 
HETATM    6  C   UNK N   1      23.122  12.318   8.433  0.00  0.00     0.015 A 
HETATM    7  C   UNK N   1      23.289  11.874  12.116  0.00  0.00     0.099 C 
HETATM    8  N   UNK N   1      23.030  11.693  13.226  0.00  0.00    -0.191 NA
ENDROOT
BRANCH   1   9
HETATM    9  C   UNK N   1      24.321  14.058   7.154  0.00  0.00     0.049 A 
HETATM   10  N   UNK N   1      25.578  14.424   6.791  0.00  0.00    -0.352 N 
HETATM   11  C   UNK N   1      25.632  15.487   6.008  0.00  0.00     0.058 A 
ATOM     12  HN  UNK N   1      26.410  13.921   7.099  1.00  0.00     0.166 HD
HETATM   13  S   UNK N   1      24.085  15.958   5.645  0.00  0.00    -0.086 SA
HETATM   14  C   UNK N   1      23.279  14.849   6.608  0.00  0.00     0.081 A 
BRANCH  11  15
HETATM   15  C   UNK N   1      26.912  15.913   5.417  0.00  0.00     0.080 C 
HETATM   16  C   UNK N   1      27.709  14.619   5.513  0.00  0.00     0.020 C 
BRANCH  15  17
HETATM   17  C   UNK N   1      27.534  17.288   6.004  0.00  0.00     0.115 C 
BRANCH  17  18
HETATM   18  C   UNK N   1      29.091  17.387   6.070  0.00  0.00     0.193 C 
BRANCH  18  19
HETATM   19  N   UNK N   1      29.592  17.610   7.444  0.00  0.00    -0.284 N 
HETATM   20  C   UNK N   1      30.354  16.781   8.177  0.00  0.00     0.201 A 
HETATM   21  N   UNK N   1      30.631  17.345   9.373  0.00  0.00    -0.346 N 
HETATM   22  C   UNK N   1      30.012  18.546   9.332  0.00  0.00     0.198 A 
ATOM     23  HN  UNK N   1      31.184  16.953  10.136  1.00  0.00     0.167 HD
HETATM   24  N   UNK N   1      29.377  18.707   8.153  0.00  0.00    -0.293 N 
ATOM     25  HN  UNK N   1      28.834  19.520   7.862  1.00  0.00     0.188 HD
ENDBRANCH  18  19
ENDBRANCH  17  18
BRANCH  17  26
HETATM   26  C   UNK N   1      26.955  18.453   5.192  0.00  0.00     0.017 C 
HETATM   27  C   UNK N   1      26.503  18.193   3.889  0.00  0.00     0.016 C 
HETATM   28  C   UNK N   1      25.653  19.054   3.222  0.00  0.00     0.043 C 
HETATM   29  C   UNK N   1      25.276  20.240   3.827  0.00  0.00     0.119 C 
HETATM   30  C   UNK N   1      25.849  20.614   5.052  0.00  0.00     0.085 C 
HETATM   31  F   UNK N   1      24.312  20.995   3.246  0.00  0.00    -0.206 F 
HETATM   32  C   UNK N   1      26.700  19.730   5.736  0.00  0.00     0.128 C 
HETATM   33  F   UNK N   1      27.213  20.097   6.938  0.00  0.00    -0.205 F 
ENDBRANCH  17  26
BRANCH  17  34
HETATM   34  O   UNK N   1      27.073  17.357   7.326  0.00  0.00    -0.382 OA
HETATM   35  H   UNK N   1      26.391  17.236   8.005  0.00  0.00     0.211 HD
ENDBRANCH  17  34
ENDBRANCH  15  17
ENDBRANCH  11  15
ENDBRANCH   1   9
TORSDOF 7
ENDMDL
MODEL 7
REMARK VINA RESULT:      -7.4     12.429     14.128
REMARK  7 active torsions:
REMARK  status: ('A' for Active; 'I' for Inactive)
REMARK    1  A    between atoms: C_2  and  C_3 
REMARK    2  A    between atoms: C_2  and  C_17 
REMARK    3  A    between atoms: C_6  and  C_9 
REMARK    4  A    between atoms: C_17  and  C_18 
REMARK    5  A    between atoms: C_17  and  C_26 
REMARK    6  A    between atoms: C_17  and  O_34 
REMARK    7  A    between atoms: C_18  and  N_19 
ROOT
HETATM    1  C   UNK N   1      34.132   9.834  12.876  0.00  0.00    -0.009 A 
HETATM    2  C   UNK N   1      35.165   8.928  13.188  0.00  0.00     0.015 A 
HETATM    3  C   UNK N   1      35.731   8.919  14.448  0.00  0.00     0.023 A 
HETATM    4  C   UNK N   1      35.267   9.817  15.402  0.00  0.00     0.044 A 
HETATM    5  C   UNK N   1      34.166  10.637  15.140  0.00  0.00     0.023 A 
HETATM    6  C   UNK N   1      33.599  10.654  13.864  0.00  0.00     0.015 A 
HETATM    7  C   UNK N   1      36.018   9.978  16.599  0.00  0.00     0.099 C 
HETATM    8  N   UNK N   1      36.675  10.055  17.544  0.00  0.00    -0.191 NA
ENDROOT
BRANCH   1   9
HETATM    9  C   UNK N   1      33.983  10.173  11.472  0.00  0.00     0.049 A 
HETATM   10  N   UNK N   1      34.738  11.223  11.056  0.00  0.00    -0.352 N 
HETATM   11  C   UNK N   1      34.398  11.704   9.873  0.00  0.00     0.058 A 
ATOM     12  HN  UNK N   1      35.503  11.608  11.610  1.00  0.00     0.166 HD
HETATM   13  S   UNK N   1      33.192  10.759   9.242  0.00  0.00    -0.086 SA
HETATM   14  C   UNK N   1      32.985   9.747  10.561  0.00  0.00     0.081 A 
BRANCH  11  15
HETATM   15  C   UNK N   1      35.218  12.745   9.229  0.00  0.00     0.080 C 
HETATM   16  C   UNK N   1      36.412  11.918   8.771  0.00  0.00     0.020 C 
BRANCH  15  17
HETATM   17  C   UNK N   1      35.455  14.091  10.097  0.00  0.00     0.115 C 
BRANCH  17  18
HETATM   18  C   UNK N   1      36.831  14.230  10.822  0.00  0.00     0.193 C 
BRANCH  18  19
HETATM   19  N   UNK N   1      36.754  13.896  12.262  0.00  0.00    -0.284 N 
HETATM   20  C   UNK N   1      37.047  12.719  12.840  0.00  0.00     0.201 A 
HETATM   21  N   UNK N   1      36.882  12.809  14.178  0.00  0.00    -0.346 N 
HETATM   22  C   UNK N   1      36.484  14.084  14.385  0.00  0.00     0.198 A 
ATOM     23  HN  UNK N   1      37.026  12.079  14.877  1.00  0.00     0.167 HD
HETATM   24  N   UNK N   1      36.406  14.748  13.213  0.00  0.00    -0.293 N 
ATOM     25  HN  UNK N   1      36.131  15.722  13.084  1.00  0.00     0.188 HD
ENDBRANCH  18  19
ENDBRANCH  17  18
BRANCH  17  26
HETATM   26  C   UNK N   1      35.206  15.295   9.180  0.00  0.00     0.017 C 
HETATM   27  C   UNK N   1      35.115  15.067   7.798  0.00  0.00     0.016 C 
HETATM   28  C   UNK N   1      34.544  15.987   6.939  0.00  0.00     0.043 C 
HETATM   29  C   UNK N   1      34.099  17.198   7.440  0.00  0.00     0.119 C 
HETATM   30  C   UNK N   1      34.336  17.530   8.783  0.00  0.00     0.085 C 
HETATM   31  F   UNK N   1      33.389  18.022   6.632  0.00  0.00    -0.206 F 
HETATM   32  C   UNK N   1      34.901  16.587   9.658  0.00  0.00     0.128 C 
HETATM   33  F   UNK N   1      35.086  16.916  10.962  0.00  0.00    -0.205 F 
ENDBRANCH  17  26
BRANCH  17  34
HETATM   34  O   UNK N   1      34.477  14.050  11.100  0.00  0.00    -0.382 OA
HETATM   35  H   UNK N   1      34.185  13.880  12.009  0.00  0.00     0.211 HD
ENDBRANCH  17  34
ENDBRANCH  15  17
ENDBRANCH  11  15
ENDBRANCH   1   9
TORSDOF 7
ENDMDL
MODEL 8
REMARK VINA RESULT:      -7.3     12.319     15.483
REMARK  7 active torsions:
REMARK  status: ('A' for Active; 'I' for Inactive)
REMARK    1  A    between atoms: C_2  and  C_3 
REMARK    2  A    between atoms: C_2  and  C_17 
REMARK    3  A    between atoms: C_6  and  C_9 
REMARK    4  A    between atoms: C_17  and  C_18 
REMARK    5  A    between atoms: C_17  and  C_26 
REMARK    6  A    between atoms: C_17  and  O_34 
REMARK    7  A    between atoms: C_18  and  N_19 
ROOT
HETATM    1  C   UNK N   1      34.136  15.528   7.539  0.00  0.00    -0.009 A 
HETATM    2  C   UNK N   1      33.877  16.629   6.698  0.00  0.00     0.015 A 
HETATM    3  C   UNK N   1      33.703  16.447   5.341  0.00  0.00     0.023 A 
HETATM    4  C   UNK N   1      33.786  15.162   4.816  0.00  0.00     0.044 A 
HETATM    5  C   UNK N   1      33.924  14.052   5.655  0.00  0.00     0.023 A 
HETATM    6  C   UNK N   1      34.110  14.235   7.027  0.00  0.00     0.015 A 
HETATM    7  C   UNK N   1      33.863  15.013   3.405  0.00  0.00     0.099 C 
HETATM    8  N   UNK N   1      33.918  14.968   2.252  0.00  0.00    -0.191 NA
ENDROOT
BRANCH   1   9
HETATM    9  C   UNK N   1      34.837  15.821   8.776  0.00  0.00     0.049 A 
HETATM   10  N   UNK N   1      35.318  14.732   9.430  0.00  0.00    -0.352 N 
HETATM   11  C   UNK N   1      35.700  14.966  10.673  0.00  0.00     0.058 A 
ATOM     12  HN  UNK N   1      35.379  13.810   8.998  1.00  0.00     0.166 HD
HETATM   13  S   UNK N   1      35.548  16.588  10.978  0.00  0.00    -0.086 SA
HETATM   14  C   UNK N   1      34.856  17.029   9.517  0.00  0.00     0.081 A 
BRANCH  11  15
HETATM   15  C   UNK N   1      36.376  13.917  11.455  0.00  0.00     0.080 C 
HETATM   16  C   UNK N   1      37.470  13.503  10.481  0.00  0.00     0.020 C 
BRANCH  15  17
HETATM   17  C   UNK N   1      35.410  12.793  12.107  0.00  0.00     0.115 C 
BRANCH  17  18
HETATM   18  C   UNK N   1      35.544  11.340  11.555  0.00  0.00     0.193 C 
BRANCH  18  19
HETATM   19  N   UNK N   1      34.519  11.018  10.537  0.00  0.00    -0.284 N 
HETATM   20  C   UNK N   1      34.648  11.091   9.202  0.00  0.00     0.201 A 
HETATM   21  N   UNK N   1      33.504  10.690   8.605  0.00  0.00    -0.346 N 
HETATM   22  C   UNK N   1      32.683  10.368   9.630  0.00  0.00     0.198 A 
ATOM     23  HN  UNK N   1      33.304  10.640   7.606  1.00  0.00     0.167 HD
HETATM   24  N   UNK N   1      33.304  10.569  10.811  0.00  0.00    -0.293 N 
ATOM     25  HN  UNK N   1      32.913  10.407  11.738  1.00  0.00     0.188 HD
ENDBRANCH  18  19
ENDBRANCH  17  18
BRANCH  17  26
HETATM   26  C   UNK N   1      35.621  12.813  13.627  0.00  0.00     0.017 C 
HETATM   27  C   UNK N   1      36.660  13.604  14.141  0.00  0.00     0.016 C 
HETATM   28  C   UNK N   1      36.708  13.977  15.471  0.00  0.00     0.043 C 
HETATM   29  C   UNK N   1      35.738  13.513  16.342  0.00  0.00     0.119 C 
HETATM   30  C   UNK N   1      34.789  12.578  15.900  0.00  0.00     0.085 C 
HETATM   31  F   UNK N   1      35.690  14.016  17.599  0.00  0.00    -0.206 F 
HETATM   32  C   UNK N   1      34.732  12.213  14.544  0.00  0.00     0.128 C 
HETATM   33  F   UNK N   1      33.781  11.337  14.131  0.00  0.00    -0.205 F 
ENDBRANCH  17  26
BRANCH  17  34
HETATM   34  O   UNK N   1      34.109  13.217  11.805  0.00  0.00    -0.382 OA
HETATM   35  H   UNK N   1      33.333  13.264  11.225  0.00  0.00     0.211 HD
ENDBRANCH  17  34
ENDBRANCH  15  17
ENDBRANCH  11  15
ENDBRANCH   1   9
TORSDOF 7
ENDMDL
MODEL 9
REMARK VINA RESULT:      -7.2      3.552      8.400
REMARK  7 active torsions:
REMARK  status: ('A' for Active; 'I' for Inactive)
REMARK    1  A    between atoms: C_2  and  C_3 
REMARK    2  A    between atoms: C_2  and  C_17 
REMARK    3  A    between atoms: C_6  and  C_9 
REMARK    4  A    between atoms: C_17  and  C_18 
REMARK    5  A    between atoms: C_17  and  C_26 
REMARK    6  A    between atoms: C_17  and  O_34 
REMARK    7  A    between atoms: C_18  and  N_19 
ROOT
HETATM    1  C   UNK N   1      23.157  18.303   4.511  0.00  0.00    -0.009 A 
HETATM    2  C   UNK N   1      23.823  19.348   3.840  0.00  0.00     0.015 A 
HETATM    3  C   UNK N   1      23.129  20.192   2.996  0.00  0.00     0.023 A 
HETATM    4  C   UNK N   1      21.764  19.997   2.819  0.00  0.00     0.044 A 
HETATM    5  C   UNK N   1      21.073  19.041   3.569  0.00  0.00     0.023 A 
HETATM    6  C   UNK N   1      21.775  18.180   4.415  0.00  0.00     0.015 A 
HETATM    7  C   UNK N   1      21.113  20.695   1.766  0.00  0.00     0.099 C 
HETATM    8  N   UNK N   1      20.652  21.297   0.895  0.00  0.00    -0.191 NA
ENDROOT
BRANCH   1   9
HETATM    9  C   UNK N   1      23.977  17.171   4.902  0.00  0.00     0.049 A 
HETATM   10  N   UNK N   1      23.282  16.056   5.249  0.00  0.00    -0.352 N 
HETATM   11  C   UNK N   1      24.001  15.135   5.865  0.00  0.00     0.058 A 
ATOM     12  HN  UNK N   1      22.288  15.942   5.051  1.00  0.00     0.166 HD
HETATM   13  S   UNK N   1      25.580  15.635   5.910  0.00  0.00    -0.086 SA
HETATM   14  C   UNK N   1      25.357  17.147   5.224  0.00  0.00     0.081 A 
BRANCH  11  15
HETATM   15  C   UNK N   1      23.419  13.816   6.169  0.00  0.00     0.080 C 
HETATM   16  C   UNK N   1      23.328  13.220   4.771  0.00  0.00     0.020 C 
BRANCH  15  17
HETATM   17  C   UNK N   1      22.113  13.829   7.126  0.00  0.00     0.115 C 
BRANCH  17  18
HETATM   18  C   UNK N   1      20.774  13.323   6.502  0.00  0.00     0.193 C 
BRANCH  18  19
HETATM   19  N   UNK N   1      20.098  14.357   5.687  0.00  0.00    -0.284 N 
HETATM   20  C   UNK N   1      20.015  14.411   4.347  0.00  0.00     0.201 A 
HETATM   21  N   UNK N   1      19.292  15.490   3.973  0.00  0.00    -0.346 N 
HETATM   22  C   UNK N   1      18.940  16.081   5.136  0.00  0.00     0.198 A 
ATOM     23  HN  UNK N   1      19.064  15.792   3.025  1.00  0.00     0.167 HD
HETATM   24  N   UNK N   1      19.432  15.388   6.183  0.00  0.00    -0.293 N 
ATOM     25  HN  UNK N   1      19.315  15.616   7.171  1.00  0.00     0.188 HD
ENDBRANCH  18  19
ENDBRANCH  17  18
BRANCH  17  26
HETATM   26  C   UNK N   1      22.449  13.033   8.395  0.00  0.00     0.017 C 
HETATM   27  C   UNK N   1      23.665  12.334   8.435  0.00  0.00     0.016 C 
HETATM   28  C   UNK N   1      24.223  11.901   9.623  0.00  0.00     0.043 C 
HETATM   29  C   UNK N   1      23.540  12.108  10.809  0.00  0.00     0.119 C 
HETATM   30  C   UNK N   1      22.243  12.643  10.786  0.00  0.00     0.085 C 
HETATM   31  F   UNK N   1      24.164  11.838  11.981  0.00  0.00    -0.206 F 
HETATM   32  C   UNK N   1      21.684  13.097   9.579  0.00  0.00     0.128 C 
HETATM   33  F   UNK N   1      20.443  13.647   9.585  0.00  0.00    -0.205 F 
ENDBRANCH  17  26
BRANCH  17  34
HETATM   34  O   UNK N   1      21.918  15.178   7.453  0.00  0.00    -0.382 OA
HETATM   35  H   UNK N   1      21.639  16.082   7.239  0.00  0.00     0.211 HD
ENDBRANCH  17  34
ENDBRANCH  15  17
ENDBRANCH  11  15
ENDBRANCH   1   9
TORSDOF 7
ENDMDL
