MODEL 1
REMARK VINA RESULT:      -8.2      0.000      0.000
REMARK  5 active torsions:
REMARK  status: ('A' for Active; 'I' for Inactive)
REMARK    1  A    between atoms: C_3  and  C_25 
REMARK    2  A    between atoms: C_24  and  C_3 
REMARK    3  A    between atoms: N_22  and  C_7 
REMARK    4  A    between atoms: C_7  and  C_11 
REMARK    5  A    between atoms: C_11  and  C_24 
ROOT
HETATM    1  C   UNK N   1      35.300   9.207  15.744  0.00  0.00     0.143 A 
HETATM    2  C   UNK N   1      35.433  10.825  18.183  0.00  0.00     0.057 A 
HETATM    3  C   UNK N   1      35.824  11.255  13.442  0.00  0.00     0.056 C 
HETATM    4  C   UNK N   1      35.056  12.700  16.726  0.00  0.00    -0.021 A 
HETATM    5  C   UNK N   1      35.432  11.693  19.296  0.00  0.00     0.031 A 
HETATM    6  C   UNK N   1      36.088  13.838  14.840  0.00  0.00     0.283 C 
HETATM    7  C   UNK N   1      35.258  11.379  16.940  0.00  0.00     0.064 A 
HETATM    8  N   UNK N   1      35.591   9.416  18.295  0.00  0.00    -0.382 N 
HETATM    9  C   UNK N   1      36.922  12.295  13.214  0.00  0.00     0.274 C 
HETATM   10  C   UNK N   1      34.914  11.500  14.653  0.00  0.00     0.096 C 
HETATM   11  C   UNK N   1      35.764   8.806  19.589  0.00  0.00     0.150 C 
HETATM   12  N   UNK N   1      36.452  13.663  13.441  0.00  0.00     0.089 N 
HETATM   13  C   UNK N   1      35.251  13.081  19.099  0.00  0.00     0.003 A 
HETATM   14  N   UNK N   1      35.238  10.652  15.775  0.00  0.00    -0.371 N 
HETATM   15  C   UNK N   1      35.058  13.597  17.800  0.00  0.00     0.010 A 
HETATM   16  C   UNK N   1      34.899  12.971  15.254  0.00  0.00     0.072 C 
HETATM   17  C   UNK N   1      35.572   8.543  17.123  0.00  0.00     0.142 A 
ENDROOT
BRANCH  12  18
HETATM   18  C   UNK N   1      35.492  14.263  12.490  0.00  0.00     0.273 C 
BRANCH  18  19
HETATM   19  C   UNK N   1      36.067  15.244  11.461  0.00  0.00     0.038 C 
BRANCH  19  20
HETATM   20  C   UNK N   1      35.184  15.273  10.218  0.00  0.00     0.085 C 
BRANCH  20  21
HETATM   21  C   UNK N   1      34.969  16.651   9.670  0.00  0.00     0.159 C 
HETATM   22  O   UNK N   1      35.503  17.593  10.234  0.00  0.00    -0.292 OA
BRANCH  21  23
HETATM   23  C   UNK N   1      34.082  16.894   8.507  0.00  0.00     0.010 A 
HETATM   24  C   UNK N   1      32.761  17.331   8.689  0.00  0.00     0.018 A 
HETATM   25  C   UNK N   1      31.931  17.554   7.589  0.00  0.00     0.043 A 
HETATM   26  C   UNK N   1      32.417  17.353   6.296  0.00  0.00     0.116 A 
HETATM   27  F   UNK N   1      31.613  17.573   5.229  0.00  0.00    -0.206 F 
HETATM   28  C   UNK N   1      33.735  16.926   6.103  0.00  0.00     0.043 A 
HETATM   29  C   UNK N   1      34.563  16.694   7.205  0.00  0.00     0.018 A 
ENDBRANCH  21  23
ENDBRANCH  20  21
ENDBRANCH  19  20
ENDBRANCH  18  19
ENDBRANCH  12  18
TORSDOF 5
ENDMDL
MODEL 2
REMARK VINA RESULT:      -8.0      2.294      4.650
REMARK  5 active torsions:
REMARK  status: ('A' for Active; 'I' for Inactive)
REMARK    1  A    between atoms: C_3  and  C_25 
REMARK    2  A    between atoms: C_24  and  C_3 
REMARK    3  A    between atoms: N_22  and  C_7 
REMARK    4  A    between atoms: C_7  and  C_11 
REMARK    5  A    between atoms: C_11  and  C_24 
ROOT
HETATM    1  C   UNK N   1      36.492  14.383  13.916  0.00  0.00     0.143 A 
HETATM    2  C   UNK N   1      34.842  11.967  14.075  0.00  0.00     0.057 A 
HETATM    3  C   UNK N   1      36.141  15.352  10.964  0.00  0.00     0.056 C 
HETATM    4  C   UNK N   1      34.997  11.939  11.676  0.00  0.00    -0.021 A 
HETATM    5  C   UNK N   1      34.091  10.773  14.038  0.00  0.00     0.031 A 
HETATM    6  C   UNK N   1      34.406  13.301   9.749  0.00  0.00     0.283 C 
HETATM    7  C   UNK N   1      35.249  12.504  12.880  0.00  0.00     0.064 A 
HETATM    8  N   UNK N   1      35.202  12.623  15.285  0.00  0.00    -0.382 N 
HETATM    9  C   UNK N   1      34.905  15.613  10.102  0.00  0.00     0.274 C 
HETATM   10  C   UNK N   1      36.358  13.895  11.397  0.00  0.00     0.096 C 
HETATM   11  C   UNK N   1      34.799  12.076  16.555  0.00  0.00     0.150 C 
HETATM   12  N   UNK N   1      34.695  14.569   9.096  0.00  0.00     0.089 N 
HETATM   13  C   UNK N   1      33.790  10.176  12.793  0.00  0.00     0.003 A 
HETATM   14  N   UNK N   1      35.983  13.660  12.771  0.00  0.00    -0.371 N 
HETATM   15  C   UNK N   1      34.247  10.760  11.594  0.00  0.00     0.010 A 
HETATM   16  C   UNK N   1      35.582  12.778  10.573  0.00  0.00     0.072 C 
HETATM   17  C   UNK N   1      35.994  13.851  15.289  0.00  0.00     0.142 A 
ENDROOT
BRANCH  12  18
HETATM   18  C   UNK N   1      35.636  14.462   7.961  0.00  0.00     0.273 C 
BRANCH  18  19
HETATM   19  C   UNK N   1      35.330  15.325   6.732  0.00  0.00     0.038 C 
BRANCH  19  20
HETATM   20  C   UNK N   1      33.822  15.485   6.568  0.00  0.00     0.085 C 
BRANCH  20  21
HETATM   21  C   UNK N   1      33.366  16.912   6.581  0.00  0.00     0.159 C 
HETATM   22  O   UNK N   1      34.134  17.772   6.178  0.00  0.00    -0.292 OA
BRANCH  21  23
HETATM   23  C   UNK N   1      32.042  17.299   7.122  0.00  0.00     0.010 A 
HETATM   24  C   UNK N   1      30.870  17.086   6.380  0.00  0.00     0.018 A 
HETATM   25  C   UNK N   1      29.627  17.457   6.896  0.00  0.00     0.043 A 
HETATM   26  C   UNK N   1      29.543  18.035   8.163  0.00  0.00     0.116 A 
HETATM   27  F   UNK N   1      28.337  18.392   8.665  0.00  0.00    -0.206 F 
HETATM   28  C   UNK N   1      30.703  18.244   8.915  0.00  0.00     0.043 A 
HETATM   29  C   UNK N   1      31.948  17.881   8.395  0.00  0.00     0.018 A 
ENDBRANCH  21  23
ENDBRANCH  20  21
ENDBRANCH  19  20
ENDBRANCH  18  19
ENDBRANCH  12  18
TORSDOF 5
ENDMDL
MODEL 3
REMARK VINA RESULT:      -7.9     21.452     23.908
REMARK  5 active torsions:
REMARK  status: ('A' for Active; 'I' for Inactive)
REMARK    1  A    between atoms: C_3  and  C_25 
REMARK    2  A    between atoms: C_24  and  C_3 
REMARK    3  A    between atoms: N_22  and  C_7 
REMARK    4  A    between atoms: C_7  and  C_11 
REMARK    5  A    between atoms: C_11  and  C_24 
ROOT
HETATM    1  C   UNK N   1      30.739  21.537  -5.554  0.00  0.00     0.143 A 
HETATM    2  C   UNK N   1      28.624  20.858  -7.465  0.00  0.00     0.057 A 
HETATM    3  C   UNK N   1      29.453  23.739  -3.746  0.00  0.00     0.056 C 
HETATM    4  C   UNK N   1      27.664  22.977  -6.857  0.00  0.00    -0.021 A 
HETATM    5  C   UNK N   1      27.579  20.654  -8.392  0.00  0.00     0.031 A 
HETATM    6  C   UNK N   1      26.775  24.137  -4.913  0.00  0.00     0.283 C 
HETATM    7  C   UNK N   1      28.606  22.014  -6.726  0.00  0.00     0.064 A 
HETATM    8  N   UNK N   1      29.688  19.934  -7.276  0.00  0.00    -0.382 N 
HETATM    9  C   UNK N   1      28.134  23.803  -2.974  0.00  0.00     0.274 C 
HETATM   10  C   UNK N   1      29.330  23.667  -5.274  0.00  0.00     0.096 C 
HETATM   11  C   UNK N   1      29.740  18.718  -8.046  0.00  0.00     0.150 C 
HETATM   12  N   UNK N   1      27.153  24.680  -3.616  0.00  0.00     0.089 N 
HETATM   13  C   UNK N   1      26.568  21.630  -8.530  0.00  0.00     0.003 A 
HETATM   14  N   UNK N   1      29.557  22.338  -5.790  0.00  0.00    -0.371 N 
HETATM   15  C   UNK N   1      26.606  22.810  -7.758  0.00  0.00     0.010 A 
HETATM   16  C   UNK N   1      27.938  24.108  -5.903  0.00  0.00     0.072 C 
HETATM   17  C   UNK N   1      30.763  20.183  -6.317  0.00  0.00     0.142 A 
ENDROOT
BRANCH  12  18
HETATM   18  C   UNK N   1      27.383  26.140  -3.618  0.00  0.00     0.273 C 
BRANCH  18  19
HETATM   19  C   UNK N   1      26.257  27.013  -3.052  0.00  0.00     0.038 C 
BRANCH  19  20
HETATM   20  C   UNK N   1      25.512  27.705  -4.189  0.00  0.00     0.085 C 
BRANCH  20  21
HETATM   21  C   UNK N   1      26.419  28.311  -5.217  0.00  0.00     0.159 C 
HETATM   22  O   UNK N   1      26.924  29.398  -4.980  0.00  0.00    -0.292 OA
BRANCH  21  23
HETATM   23  C   UNK N   1      26.661  27.654  -6.523  0.00  0.00     0.010 A 
HETATM   24  C   UNK N   1      27.858  27.867  -7.224  0.00  0.00     0.018 A 
HETATM   25  C   UNK N   1      28.077  27.246  -8.456  0.00  0.00     0.043 A 
HETATM   26  C   UNK N   1      27.107  26.398  -8.992  0.00  0.00     0.116 A 
HETATM   27  F   UNK N   1      27.321  25.794 -10.184  0.00  0.00    -0.206 F 
HETATM   28  C   UNK N   1      25.915  26.172  -8.297  0.00  0.00     0.043 A 
HETATM   29  C   UNK N   1      25.692  26.800  -7.068  0.00  0.00     0.018 A 
ENDBRANCH  21  23
ENDBRANCH  20  21
ENDBRANCH  19  20
ENDBRANCH  18  19
ENDBRANCH  12  18
TORSDOF 5
ENDMDL
MODEL 4
REMARK VINA RESULT:      -7.9      4.386     11.035
REMARK  5 active torsions:
REMARK  status: ('A' for Active; 'I' for Inactive)
REMARK    1  A    between atoms: C_3  and  C_25 
REMARK    2  A    between atoms: C_24  and  C_3 
REMARK    3  A    between atoms: N_22  and  C_7 
REMARK    4  A    between atoms: C_7  and  C_11 
REMARK    5  A    between atoms: C_11  and  C_24 
ROOT
HETATM    1  C   UNK N   1      32.832  16.650   4.124  0.00  0.00     0.143 A 
HETATM    2  C   UNK N   1      30.116  16.906   5.192  0.00  0.00     0.057 A 
HETATM    3  C   UNK N   1      34.609  16.207   6.657  0.00  0.00     0.056 C 
HETATM    4  C   UNK N   1      31.196  17.398   7.284  0.00  0.00    -0.021 A 
HETATM    5  C   UNK N   1      28.857  17.099   5.800  0.00  0.00     0.031 A 
HETATM    6  C   UNK N   1      32.699  16.371   8.898  0.00  0.00     0.283 C 
HETATM    7  C   UNK N   1      31.233  17.052   5.976  0.00  0.00     0.064 A 
HETATM    8  N   UNK N   1      30.276  16.585   3.816  0.00  0.00    -0.382 N 
HETATM    9  C   UNK N   1      34.510  15.231   7.831  0.00  0.00     0.274 C 
HETATM   10  C   UNK N   1      33.471  17.231   6.543  0.00  0.00     0.096 C 
HETATM   11  C   UNK N   1      29.121  16.437   2.967  0.00  0.00     0.150 C 
HETATM   12  N   UNK N   1      34.060  15.883   9.063  0.00  0.00     0.089 N 
HETATM   13  C   UNK N   1      28.787  17.434   7.171  0.00  0.00     0.003 A 
HETATM   14  N   UNK N   1      32.517  16.892   5.514  0.00  0.00    -0.371 N 
HETATM   15  C   UNK N   1      29.968  17.589   7.927  0.00  0.00     0.010 A 
HETATM   16  C   UNK N   1      32.590  17.473   7.844  0.00  0.00     0.072 C 
HETATM   17  C   UNK N   1      31.595  16.406   3.214  0.00  0.00     0.142 A 
ENDROOT
BRANCH  12  18
HETATM   18  C   UNK N   1      34.962  16.833   9.747  0.00  0.00     0.273 C 
BRANCH  18  19
HETATM   19  C   UNK N   1      35.647  16.331  11.024  0.00  0.00     0.038 C 
BRANCH  19  20
HETATM   20  C   UNK N   1      34.933  15.089  11.546  0.00  0.00     0.085 C 
BRANCH  20  21
HETATM   21  C   UNK N   1      35.863  14.048  12.090  0.00  0.00     0.159 C 
HETATM   22  O   UNK N   1      36.671  13.535  11.332  0.00  0.00    -0.292 OA
BRANCH  21  23
HETATM   23  C   UNK N   1      35.780  13.593  13.498  0.00  0.00     0.010 A 
HETATM   24  C   UNK N   1      36.520  14.230  14.505  0.00  0.00     0.018 A 
HETATM   25  C   UNK N   1      36.438  13.793  15.829  0.00  0.00     0.043 A 
HETATM   26  C   UNK N   1      35.608  12.721  16.159  0.00  0.00     0.116 A 
HETATM   27  F   UNK N   1      35.527  12.299  17.443  0.00  0.00    -0.206 F 
HETATM   28  C   UNK N   1      34.860  12.084  15.165  0.00  0.00     0.043 A 
HETATM   29  C   UNK N   1      34.948  12.516  13.839  0.00  0.00     0.018 A 
ENDBRANCH  21  23
ENDBRANCH  20  21
ENDBRANCH  19  20
ENDBRANCH  18  19
ENDBRANCH  12  18
TORSDOF 5
ENDMDL
MODEL 5
REMARK VINA RESULT:      -7.8      4.243     10.362
REMARK  5 active torsions:
REMARK  status: ('A' for Active; 'I' for Inactive)
REMARK    1  A    between atoms: C_3  and  C_25 
REMARK    2  A    between atoms: C_24  and  C_3 
REMARK    3  A    between atoms: N_22  and  C_7 
REMARK    4  A    between atoms: C_7  and  C_11 
REMARK    5  A    between atoms: C_11  and  C_24 
ROOT
HETATM    1  C   UNK N   1      35.390  13.423   6.674  0.00  0.00     0.143 A 
HETATM    2  C   UNK N   1      34.000  16.002   6.625  0.00  0.00     0.057 A 
HETATM    3  C   UNK N   1      35.878  12.878   9.714  0.00  0.00     0.056 C 
HETATM    4  C   UNK N   1      34.888  16.302   8.840  0.00  0.00    -0.021 A 
HETATM    5  C   UNK N   1      33.410  17.282   6.692  0.00  0.00     0.031 A 
HETATM    6  C   UNK N   1      34.797  15.277  11.044  0.00  0.00     0.283 C 
HETATM    7  C   UNK N   1      34.704  15.565   7.719  0.00  0.00     0.064 A 
HETATM    8  N   UNK N   1      33.909  15.161   5.482  0.00  0.00    -0.382 N 
HETATM    9  C   UNK N   1      34.948  12.893  10.929  0.00  0.00     0.274 C 
HETATM   10  C   UNK N   1      36.083  14.228   9.013  0.00  0.00     0.096 C 
HETATM   11  C   UNK N   1      33.186  15.598   4.315  0.00  0.00     0.150 C 
HETATM   12  N   UNK N   1      35.155  14.070  11.775  0.00  0.00     0.089 N 
HETATM   13  C   UNK N   1      33.562  18.062   7.860  0.00  0.00     0.003 A 
HETATM   14  N   UNK N   1      35.327  14.342   7.789  0.00  0.00    -0.371 N 
HETATM   15  C   UNK N   1      34.312  17.572   8.950  0.00  0.00     0.010 A 
HETATM   16  C   UNK N   1      35.705  15.531   9.841  0.00  0.00     0.072 C 
HETATM   17  C   UNK N   1      34.545  13.845   5.440  0.00  0.00     0.142 A 
ENDROOT
BRANCH  12  18
HETATM   18  C   UNK N   1      36.405  14.188  12.555  0.00  0.00     0.273 C 
BRANCH  18  19
HETATM   19  C   UNK N   1      36.564  13.234  13.745  0.00  0.00     0.038 C 
BRANCH  19  20
HETATM   20  C   UNK N   1      35.713  13.715  14.916  0.00  0.00     0.085 C 
BRANCH  20  21
HETATM   21  C   UNK N   1      34.869  12.638  15.524  0.00  0.00     0.159 C 
HETATM   22  O   UNK N   1      33.956  12.169  14.862  0.00  0.00    -0.292 OA
BRANCH  21  23
HETATM   23  C   UNK N   1      35.079  12.180  16.918  0.00  0.00     0.010 A 
HETATM   24  C   UNK N   1      35.129  13.100  17.977  0.00  0.00     0.018 A 
HETATM   25  C   UNK N   1      35.331  12.661  19.288  0.00  0.00     0.043 A 
HETATM   26  C   UNK N   1      35.473  11.299  19.552  0.00  0.00     0.116 A 
HETATM   27  F   UNK N   1      35.666  10.873  20.823  0.00  0.00    -0.206 F 
HETATM   28  C   UNK N   1      35.416  10.373  18.506  0.00  0.00     0.043 A 
HETATM   29  C   UNK N   1      35.223  10.813  17.193  0.00  0.00     0.018 A 
ENDBRANCH  21  23
ENDBRANCH  20  21
ENDBRANCH  19  20
ENDBRANCH  18  19
ENDBRANCH  12  18
TORSDOF 5
ENDMDL
MODEL 6
REMARK VINA RESULT:      -7.7      2.971      4.303
REMARK  5 active torsions:
REMARK  status: ('A' for Active; 'I' for Inactive)
REMARK    1  A    between atoms: C_3  and  C_25 
REMARK    2  A    between atoms: C_24  and  C_3 
REMARK    3  A    between atoms: N_22  and  C_7 
REMARK    4  A    between atoms: C_7  and  C_11 
REMARK    5  A    between atoms: C_11  and  C_24 
ROOT
HETATM    1  C   UNK N   1      35.827  10.621  10.878  0.00  0.00     0.143 A 
HETATM    2  C   UNK N   1      36.899  11.560  13.438  0.00  0.00     0.057 A 
HETATM    3  C   UNK N   1      35.145  13.248   9.328  0.00  0.00     0.056 C 
HETATM    4  C   UNK N   1      35.791  13.631  12.920  0.00  0.00    -0.021 A 
HETATM    5  C   UNK N   1      37.324  12.100  14.671  0.00  0.00     0.031 A 
HETATM    6  C   UNK N   1      35.812  15.391  11.241  0.00  0.00     0.283 C 
HETATM    7  C   UNK N   1      36.159  12.365  12.609  0.00  0.00     0.064 A 
HETATM    8  N   UNK N   1      37.188  10.229  13.029  0.00  0.00    -0.382 N 
HETATM    9  C   UNK N   1      35.956  14.509   9.023  0.00  0.00     0.274 C 
HETATM   10  C   UNK N   1      34.841  12.993  10.811  0.00  0.00     0.096 C 
HETATM   11  C   UNK N   1      37.953   9.357  13.884  0.00  0.00     0.150 C 
HETATM   12  N   UNK N   1      35.538  15.653   9.835  0.00  0.00     0.089 N 
HETATM   13  C   UNK N   1      36.978  13.427  15.009  0.00  0.00     0.003 A 
HETATM   14  N   UNK N   1      35.683  11.969  11.383  0.00  0.00    -0.371 N 
HETATM   15  C   UNK N   1      36.201  14.207  14.127  0.00  0.00     0.010 A 
HETATM   16  C   UNK N   1      34.988  14.230  11.797  0.00  0.00     0.072 C 
HETATM   17  C   UNK N   1      36.720   9.696  11.752  0.00  0.00     0.142 A 
ENDROOT
BRANCH  12  18
HETATM   18  C   UNK N   1      34.219  16.272   9.584  0.00  0.00     0.273 C 
BRANCH  18  19
HETATM   19  C   UNK N   1      34.226  17.657   8.926  0.00  0.00     0.038 C 
BRANCH  19  20
HETATM   20  C   UNK N   1      33.072  17.768   7.935  0.00  0.00     0.085 C 
BRANCH  20  21
HETATM   21  C   UNK N   1      33.459  17.433   6.527  0.00  0.00     0.159 C 
HETATM   22  O   UNK N   1      34.645  17.409   6.238  0.00  0.00    -0.292 OA
BRANCH  21  23
HETATM   23  C   UNK N   1      32.440  17.195   5.477  0.00  0.00     0.010 A 
HETATM   24  C   UNK N   1      31.092  17.000   5.815  0.00  0.00     0.018 A 
HETATM   25  C   UNK N   1      30.138  16.772   4.821  0.00  0.00     0.043 A 
HETATM   26  C   UNK N   1      30.522  16.748   3.479  0.00  0.00     0.116 A 
HETATM   27  F   UNK N   1      29.596  16.530   2.515  0.00  0.00    -0.206 F 
HETATM   28  C   UNK N   1      31.861  16.949   3.131  0.00  0.00     0.043 A 
HETATM   29  C   UNK N   1      32.817  17.169   4.127  0.00  0.00     0.018 A 
ENDBRANCH  21  23
ENDBRANCH  20  21
ENDBRANCH  19  20
ENDBRANCH  18  19
ENDBRANCH  12  18
TORSDOF 5
ENDMDL
MODEL 7
REMARK VINA RESULT:      -7.7      2.450      3.868
REMARK  5 active torsions:
REMARK  status: ('A' for Active; 'I' for Inactive)
REMARK    1  A    between atoms: C_3  and  C_25 
REMARK    2  A    between atoms: C_24  and  C_3 
REMARK    3  A    between atoms: N_22  and  C_7 
REMARK    4  A    between atoms: C_7  and  C_11 
REMARK    5  A    between atoms: C_11  and  C_24 
ROOT
HETATM    1  C   UNK N   1      35.016  10.352  12.062  0.00  0.00     0.143 A 
HETATM    2  C   UNK N   1      36.299  11.865  14.218  0.00  0.00     0.057 A 
HETATM    3  C   UNK N   1      35.076  12.304   9.620  0.00  0.00     0.056 C 
HETATM    4  C   UNK N   1      35.797  13.806  12.889  0.00  0.00    -0.021 A 
HETATM    5  C   UNK N   1      36.853  12.695  15.216  0.00  0.00     0.031 A 
HETATM    6  C   UNK N   1      36.299  14.757  10.707  0.00  0.00     0.283 C 
HETATM    7  C   UNK N   1      35.807  12.467  13.087  0.00  0.00     0.064 A 
HETATM    8  N   UNK N   1      36.216  10.451  14.339  0.00  0.00    -0.382 N 
HETATM    9  C   UNK N   1      36.201  13.114   8.973  0.00  0.00     0.274 C 
HETATM   10  C   UNK N   1      34.713  12.698  11.059  0.00  0.00     0.096 C 
HETATM   11  C   UNK N   1      36.713   9.793  15.520  0.00  0.00     0.150 C 
HETATM   12  N   UNK N   1      36.108  14.543   9.280  0.00  0.00     0.089 N 
HETATM   13  C   UNK N   1      36.881  14.095  15.024  0.00  0.00     0.003 A 
HETATM   14  N   UNK N   1      35.243  11.781  12.039  0.00  0.00    -0.371 N 
HETATM   15  C   UNK N   1      36.346  14.664  13.849  0.00  0.00     0.010 A 
HETATM   16  C   UNK N   1      35.189  14.132  11.552  0.00  0.00     0.072 C 
HETATM   17  C   UNK N   1      35.622   9.621  13.292  0.00  0.00     0.142 A 
ENDROOT
BRANCH  12  18
HETATM   18  C   UNK N   1      35.008  15.337   8.693  0.00  0.00     0.273 C 
BRANCH  18  19
HETATM   19  C   UNK N   1      34.528  14.920   7.299  0.00  0.00     0.038 C 
BRANCH  19  20
HETATM   20  C   UNK N   1      34.601  16.107   6.345  0.00  0.00     0.085 C 
BRANCH  20  21
HETATM   21  C   UNK N   1      33.933  17.340   6.873  0.00  0.00     0.159 C 
HETATM   22  O   UNK N   1      34.623  18.317   7.119  0.00  0.00    -0.292 OA
BRANCH  21  23
HETATM   23  C   UNK N   1      32.478  17.375   7.156  0.00  0.00     0.010 A 
HETATM   24  C   UNK N   1      31.546  17.006   6.175  0.00  0.00     0.018 A 
HETATM   25  C   UNK N   1      30.177  17.044   6.449  0.00  0.00     0.043 A 
HETATM   26  C   UNK N   1      29.729  17.442   7.709  0.00  0.00     0.116 A 
HETATM   27  F   UNK N   1      28.402  17.476   7.975  0.00  0.00    -0.206 F 
HETATM   28  C   UNK N   1      30.650  17.803   8.697  0.00  0.00     0.043 A 
HETATM   29  C   UNK N   1      32.020  17.773   8.420  0.00  0.00     0.018 A 
ENDBRANCH  21  23
ENDBRANCH  20  21
ENDBRANCH  19  20
ENDBRANCH  18  19
ENDBRANCH  12  18
TORSDOF 5
ENDMDL
MODEL 8
REMARK VINA RESULT:      -7.6     19.812     22.854
REMARK  5 active torsions:
REMARK  status: ('A' for Active; 'I' for Inactive)
REMARK    1  A    between atoms: C_3  and  C_25 
REMARK    2  A    between atoms: C_24  and  C_3 
REMARK    3  A    between atoms: N_22  and  C_7 
REMARK    4  A    between atoms: C_7  and  C_11 
REMARK    5  A    between atoms: C_11  and  C_24 
ROOT
HETATM    1  C   UNK N   1      32.744  24.287  -6.662  0.00  0.00     0.143 A 
HETATM    2  C   UNK N   1      32.002  22.895  -4.192  0.00  0.00     0.057 A 
HETATM    3  C   UNK N   1      31.423  27.105  -6.375  0.00  0.00     0.056 C 
HETATM    4  C   UNK N   1      30.261  24.545  -4.017  0.00  0.00    -0.021 A 
HETATM    5  C   UNK N   1      31.529  22.276  -3.016  0.00  0.00     0.031 A 
HETATM    6  C   UNK N   1      29.982  26.952  -3.807  0.00  0.00     0.283 C 
HETATM    7  C   UNK N   1      31.347  24.018  -4.631  0.00  0.00     0.064 A 
HETATM    8  N   UNK N   1      33.105  22.403  -4.942  0.00  0.00    -0.382 N 
HETATM    9  C   UNK N   1      31.454  28.152  -5.261  0.00  0.00     0.274 C 
HETATM   10  C   UNK N   1      30.749  25.772  -6.020  0.00  0.00     0.096 C 
HETATM   11  C   UNK N   1      33.805  21.219  -4.512  0.00  0.00     0.150 C 
HETATM   12  N   UNK N   1      30.196  28.208  -4.512  0.00  0.00     0.089 N 
HETATM   13  C   UNK N   1      30.414  22.820  -2.339  0.00  0.00     0.003 A 
HETATM   14  N   UNK N   1      31.700  24.719  -5.759  0.00  0.00    -0.371 N 
HETATM   15  C   UNK N   1      29.766  23.968  -2.843  0.00  0.00     0.010 A 
HETATM   16  C   UNK N   1      29.788  25.768  -4.754  0.00  0.00     0.072 C 
HETATM   17  C   UNK N   1      33.560  23.060  -6.166  0.00  0.00     0.142 A 
ENDROOT
BRANCH  12  18
HETATM   18  C   UNK N   1      28.987  28.742  -5.171  0.00  0.00     0.273 C 
BRANCH  18  19
HETATM   19  C   UNK N   1      27.920  29.355  -4.256  0.00  0.00     0.038 C 
BRANCH  19  20
HETATM   20  C   UNK N   1      26.528  28.990  -4.762  0.00  0.00     0.085 C 
BRANCH  20  21
HETATM   21  C   UNK N   1      25.935  27.799  -4.074  0.00  0.00     0.159 C 
HETATM   22  O   UNK N   1      25.444  27.950  -2.965  0.00  0.00    -0.292 OA
BRANCH  21  23
HETATM   23  C   UNK N   1      25.987  26.447  -4.679  0.00  0.00     0.010 A 
HETATM   24  C   UNK N   1      25.719  26.260  -6.044  0.00  0.00     0.018 A 
HETATM   25  C   UNK N   1      25.767  24.982  -6.607  0.00  0.00     0.043 A 
HETATM   26  C   UNK N   1      26.093  23.882  -5.812  0.00  0.00     0.116 A 
HETATM   27  F   UNK N   1      26.142  22.644  -6.358  0.00  0.00    -0.206 F 
HETATM   28  C   UNK N   1      26.370  24.059  -4.452  0.00  0.00     0.043 A 
HETATM   29  C   UNK N   1      26.313  25.336  -3.888  0.00  0.00     0.018 A 
ENDBRANCH  21  23
ENDBRANCH  20  21
ENDBRANCH  19  20
ENDBRANCH  18  19
ENDBRANCH  12  18
TORSDOF 5
ENDMDL
MODEL 9
REMARK VINA RESULT:      -7.5     19.610     22.440
REMARK  5 active torsions:
REMARK  status: ('A' for Active; 'I' for Inactive)
REMARK    1  A    between atoms: C_3  and  C_25 
REMARK    2  A    between atoms: C_24  and  C_3 
REMARK    3  A    between atoms: N_22  and  C_7 
REMARK    4  A    between atoms: C_7  and  C_11 
REMARK    5  A    between atoms: C_11  and  C_24 
ROOT
HETATM    1  C   UNK N   1      34.344  20.717  -7.856  0.00  0.00     0.143 A 
HETATM    2  C   UNK N   1      32.068  19.040  -8.626  0.00  0.00     0.057 A 
HETATM    3  C   UNK N   1      33.570  21.799  -5.027  0.00  0.00     0.056 C 
HETATM    4  C   UNK N   1      30.850  20.266  -6.954  0.00  0.00    -0.021 A 
HETATM    5  C   UNK N   1      30.897  18.322  -8.948  0.00  0.00     0.031 A 
HETATM    6  C   UNK N   1      30.878  20.691  -4.559  0.00  0.00     0.283 C 
HETATM    7  C   UNK N   1      31.989  19.975  -7.625  0.00  0.00     0.064 A 
HETATM    8  N   UNK N   1      33.308  18.849  -9.296  0.00  0.00    -0.382 N 
HETATM    9  C   UNK N   1      33.090  21.105  -3.751  0.00  0.00     0.274 C 
HETATM   10  C   UNK N   1      32.621  21.713  -6.231  0.00  0.00     0.096 C 
HETATM   11  C   UNK N   1      33.417  17.883 -10.359  0.00  0.00     0.150 C 
HETATM   12  N   UNK N   1      31.662  21.317  -3.504  0.00  0.00     0.089 N 
HETATM   13  C   UNK N   1      29.700  18.585  -8.245  0.00  0.00     0.003 A 
HETATM   14  N   UNK N   1      33.050  20.743  -7.210  0.00  0.00    -0.371 N 
HETATM   15  C   UNK N   1      29.669  19.570  -7.235  0.00  0.00     0.010 A 
HETATM   16  C   UNK N   1      31.108  21.334  -5.926  0.00  0.00     0.072 C 
HETATM   17  C   UNK N   1      34.499  19.621  -8.947  0.00  0.00     0.142 A 
ENDROOT
BRANCH  12  18
HETATM   18  C   UNK N   1      31.188  22.662  -3.118  0.00  0.00     0.273 C 
BRANCH  18  19
HETATM   19  C   UNK N   1      29.709  22.785  -2.732  0.00  0.00     0.038 C 
BRANCH  19  20
HETATM   20  C   UNK N   1      29.093  24.004  -3.410  0.00  0.00     0.085 C 
BRANCH  20  21
HETATM   21  C   UNK N   1      27.657  24.229  -3.045  0.00  0.00     0.159 C 
HETATM   22  O   UNK N   1      27.208  23.658  -2.064  0.00  0.00    -0.292 OA
BRANCH  21  23
HETATM   23  C   UNK N   1      26.768  25.073  -3.878  0.00  0.00     0.010 A 
HETATM   24  C   UNK N   1      26.199  24.571  -5.059  0.00  0.00     0.018 A 
HETATM   25  C   UNK N   1      25.364  25.373  -5.840  0.00  0.00     0.043 A 
HETATM   26  C   UNK N   1      25.083  26.681  -5.442  0.00  0.00     0.116 A 
HETATM   27  F   UNK N   1      24.272  27.458  -6.198  0.00  0.00    -0.206 F 
HETATM   28  C   UNK N   1      25.638  27.189  -4.264  0.00  0.00     0.043 A 
HETATM   29  C   UNK N   1      26.480  26.388  -3.486  0.00  0.00     0.018 A 
ENDBRANCH  21  23
ENDBRANCH  20  21
ENDBRANCH  19  20
ENDBRANCH  18  19
ENDBRANCH  12  18
TORSDOF 5
ENDMDL
