MODEL 1
REMARK VINA RESULT:      -6.7      0.000      0.000
REMARK  9 active torsions:
REMARK  status: ('A' for Active; 'I' for Inactive)
REMARK    1  A    between atoms: C_2  and  C_3 
REMARK    2  A    between atoms: C_3  and  C_4 
REMARK    3  A    between atoms: C_4  and  C_5 
REMARK    4  A    between atoms: C_5  and  C_6 
REMARK    5  A    between atoms: C_6  and  C_7 
REMARK    6  A    between atoms: C_7  and  C_10 
REMARK    7  A    between atoms: C_12  and  O_28 
REMARK    8  A    between atoms: C_21  and  C_24 
REMARK    9  A    between atoms: C_24  and  O_25 
ROOT
HETATM    1  C   UNK N   1      27.173  16.776   5.191  0.00  0.00    -0.045 A 
HETATM    2  C   UNK N   1      27.497  16.971   6.544  0.00  0.00     0.045 A 
HETATM    3  C   UNK N   1      28.829  17.021   6.959  0.00  0.00     0.075 A 
HETATM    4  C   UNK N   1      29.862  16.906   6.013  0.00  0.00     0.013 A 
HETATM    5  C   UNK N   1      29.550  16.688   4.658  0.00  0.00     0.079 A 
HETATM    6  C   UNK N   1      28.215  16.611   4.260  0.00  0.00     0.045 A 
HETATM    7  O   UNK N   1      30.529  16.587   3.721  0.00  0.00    -0.340 OA
HETATM    8  C   UNK N   1      31.877  16.450   4.017  0.00  0.00     0.065 C 
HETATM    9  C   UNK N   1      32.249  17.320   5.237  0.00  0.00     0.032 C 
HETATM   10  C   UNK N   1      31.293  17.086   6.428  0.00  0.00     0.035 C 
HETATM   11  C   UNK N   1      31.820  16.012   7.364  0.00  0.00     0.046 C 
HETATM   12  C   UNK N   1      33.095  16.562   7.932  0.00  0.00    -0.060 C 
HETATM   13  C   UNK N   1      33.995  17.135   7.117  0.00  0.00    -0.021 C 
HETATM   14  C   UNK N   1      33.750  17.211   5.626  0.00  0.00     0.035 C 
HETATM   15  C   UNK N   1      32.181  14.978   4.271  0.00  0.00     0.046 C 
HETATM   16  C   UNK N   1      32.675  16.896   2.806  0.00  0.00     0.046 C 
ENDROOT
BRANCH   1  17
HETATM   17  C   UNK N   1      25.734  16.799   4.708  0.00  0.00    -0.020 C 
HETATM   18  C   UNK N   1      24.907  15.910   5.632  0.00  0.00     0.020 C 
HETATM   19  C   UNK N   1      25.602  16.246   3.291  0.00  0.00     0.020 C 
BRANCH  17  20
HETATM   20  C   UNK N   1      25.248  18.256   4.722  0.00  0.00     0.013 C 
BRANCH  20  21
HETATM   21  C   UNK N   1      25.607  19.182   3.548  0.00  0.00     0.001 C 
BRANCH  21  22
HETATM   22  C   UNK N   1      26.344  20.474   3.885  0.00  0.00     0.000 C 
BRANCH  22  23
HETATM   23  C   UNK N   1      27.659  20.171   4.604  0.00  0.00    -0.000 C 
BRANCH  23  24
HETATM   24  C   UNK N   1      27.784  20.922   5.924  0.00  0.00    -0.005 C 
HETATM   25  C   UNK N   1      26.416  21.324   6.450  0.00  0.00     0.005 C 
ENDBRANCH  23  24
ENDBRANCH  22  23
ENDBRANCH  21  22
ENDBRANCH  20  21
ENDBRANCH  17  20
ENDBRANCH   1  17
BRANCH   3  26
HETATM   26  O   UNK N   1      29.108  17.217   8.259  0.00  0.00    -0.360 OA
HETATM   27  H   UNK N   1      29.818  16.757   8.661  0.00  0.00     0.217 HD
ENDBRANCH   3  26
BRANCH  12  28
HETATM   28  C   UNK N   1      33.316  16.560   9.407  0.00  0.00     0.198 C 
BRANCH  28  29
HETATM   29  O   UNK N   1      34.430  17.341   9.719  0.00  0.00    -0.397 OA
HETATM   30  H   UNK N   1      35.170  17.134  10.310  0.00  0.00     0.209 HD
ENDBRANCH  28  29
ENDBRANCH  12  28
TORSDOF 9
ENDMDL
MODEL 2
REMARK VINA RESULT:      -6.7      2.456      7.137
REMARK  9 active torsions:
REMARK  status: ('A' for Active; 'I' for Inactive)
REMARK    1  A    between atoms: C_2  and  C_3 
REMARK    2  A    between atoms: C_3  and  C_4 
REMARK    3  A    between atoms: C_4  and  C_5 
REMARK    4  A    between atoms: C_5  and  C_6 
REMARK    5  A    between atoms: C_6  and  C_7 
REMARK    6  A    between atoms: C_7  and  C_10 
REMARK    7  A    between atoms: C_12  and  O_28 
REMARK    8  A    between atoms: C_21  and  C_24 
REMARK    9  A    between atoms: C_24  and  O_25 
ROOT
HETATM    1  C   UNK N   1      30.061  16.690   5.656  0.00  0.00    -0.045 A 
HETATM    2  C   UNK N   1      29.873  17.980   5.134  0.00  0.00     0.045 A 
HETATM    3  C   UNK N   1      28.596  18.438   4.805  0.00  0.00     0.075 A 
HETATM    4  C   UNK N   1      27.479  17.616   5.026  0.00  0.00     0.013 A 
HETATM    5  C   UNK N   1      27.656  16.312   5.529  0.00  0.00     0.079 A 
HETATM    6  C   UNK N   1      28.941  15.856   5.825  0.00  0.00     0.045 A 
HETATM    7  O   UNK N   1      26.592  15.501   5.765  0.00  0.00    -0.340 OA
HETATM    8  C   UNK N   1      25.302  15.766   5.329  0.00  0.00     0.065 C 
HETATM    9  C   UNK N   1      24.993  17.273   5.450  0.00  0.00     0.032 C 
HETATM   10  C   UNK N   1      26.092  18.143   4.798  0.00  0.00     0.035 C 
HETATM   11  C   UNK N   1      25.767  18.459   3.348  0.00  0.00     0.046 C 
HETATM   12  C   UNK N   1      24.519  19.293   3.388  0.00  0.00    -0.060 C 
HETATM   13  C   UNK N   1      23.489  18.913   4.159  0.00  0.00    -0.021 C 
HETATM   14  C   UNK N   1      23.560  17.640   4.974  0.00  0.00     0.035 C 
HETATM   15  C   UNK N   1      25.156  15.281   3.892  0.00  0.00     0.046 C 
HETATM   16  C   UNK N   1      24.339  14.974   6.195  0.00  0.00     0.046 C 
ENDROOT
BRANCH   1  17
HETATM   17  C   UNK N   1      31.430  16.202   6.095  0.00  0.00    -0.020 C 
HETATM   18  C   UNK N   1      32.486  17.048   5.387  0.00  0.00     0.020 C 
HETATM   19  C   UNK N   1      31.665  14.745   5.706  0.00  0.00     0.020 C 
BRANCH  17  20
HETATM   20  C   UNK N   1      31.517  16.331   7.623  0.00  0.00     0.013 C 
BRANCH  20  21
HETATM   21  C   UNK N   1      31.766  17.712   8.250  0.00  0.00     0.001 C 
BRANCH  21  22
HETATM   22  C   UNK N   1      30.598  18.358   8.988  0.00  0.00     0.000 C 
BRANCH  22  23
HETATM   23  C   UNK N   1      29.582  17.301   9.418  0.00  0.00    -0.000 C 
BRANCH  23  24
HETATM   24  C   UNK N   1      28.147  17.722   9.127  0.00  0.00    -0.005 C 
HETATM   25  C   UNK N   1      28.114  19.014   8.327  0.00  0.00     0.005 C 
ENDBRANCH  23  24
ENDBRANCH  22  23
ENDBRANCH  21  22
ENDBRANCH  20  21
ENDBRANCH  17  20
ENDBRANCH   1  17
BRANCH   3  26
HETATM   26  O   UNK N   1      28.447  19.681   4.314  0.00  0.00    -0.360 OA
HETATM   27  H   UNK N   1      27.593  20.061   4.251  0.00  0.00     0.217 HD
ENDBRANCH   3  26
BRANCH  12  28
HETATM   28  C   UNK N   1      24.465  20.586   2.648  0.00  0.00     0.198 C 
BRANCH  28  29
HETATM   29  O   UNK N   1      23.280  21.258   2.958  0.00  0.00    -0.397 OA
HETATM   30  H   UNK N   1      22.907  21.458   3.831  0.00  0.00     0.209 HD
ENDBRANCH  28  29
ENDBRANCH  12  28
TORSDOF 9
ENDMDL
MODEL 3
REMARK VINA RESULT:      -6.5      6.688     11.313
REMARK  9 active torsions:
REMARK  status: ('A' for Active; 'I' for Inactive)
REMARK    1  A    between atoms: C_2  and  C_3 
REMARK    2  A    between atoms: C_3  and  C_4 
REMARK    3  A    between atoms: C_4  and  C_5 
REMARK    4  A    between atoms: C_5  and  C_6 
REMARK    5  A    between atoms: C_6  and  C_7 
REMARK    6  A    between atoms: C_7  and  C_10 
REMARK    7  A    between atoms: C_12  and  O_28 
REMARK    8  A    between atoms: C_21  and  C_24 
REMARK    9  A    between atoms: C_24  and  O_25 
ROOT
HETATM    1  C   UNK N   1      36.541  13.236  11.033  0.00  0.00    -0.045 A 
HETATM    2  C   UNK N   1      36.699  14.296  11.940  0.00  0.00     0.045 A 
HETATM    3  C   UNK N   1      36.475  14.107  13.305  0.00  0.00     0.075 A 
HETATM    4  C   UNK N   1      36.119  12.836  13.787  0.00  0.00     0.013 A 
HETATM    5  C   UNK N   1      35.937  11.770  12.885  0.00  0.00     0.079 A 
HETATM    6  C   UNK N   1      36.135  11.980  11.519  0.00  0.00     0.045 A 
HETATM    7  O   UNK N   1      35.606  10.528  13.324  0.00  0.00    -0.340 OA
HETATM    8  C   UNK N   1      35.194  10.246  14.619  0.00  0.00     0.065 C 
HETATM    9  C   UNK N   1      35.996  11.089  15.633  0.00  0.00     0.032 C 
HETATM   10  C   UNK N   1      36.002  12.590  15.263  0.00  0.00     0.035 C 
HETATM   11  C   UNK N   1      34.865  13.335  15.940  0.00  0.00     0.046 C 
HETATM   12  C   UNK N   1      35.146  13.250  17.412  0.00  0.00    -0.060 C 
HETATM   13  C   UNK N   1      35.493  12.073  17.956  0.00  0.00    -0.021 C 
HETATM   14  C   UNK N   1      35.581  10.823  17.107  0.00  0.00     0.035 C 
HETATM   15  C   UNK N   1      33.698  10.516  14.731  0.00  0.00     0.046 C 
HETATM   16  C   UNK N   1      35.429   8.769  14.879  0.00  0.00     0.046 C 
ENDROOT
BRANCH   1  17
HETATM   17  C   UNK N   1      36.857  13.400   9.557  0.00  0.00    -0.020 C 
HETATM   18  C   UNK N   1      36.625  12.059   8.868  0.00  0.00     0.020 C 
HETATM   19  C   UNK N   1      38.314  13.793   9.329  0.00  0.00     0.020 C 
BRANCH  17  20
HETATM   20  C   UNK N   1      35.949  14.504   8.993  0.00  0.00     0.013 C 
BRANCH  20  21
HETATM   21  C   UNK N   1      34.428  14.404   9.195  0.00  0.00     0.001 C 
BRANCH  21  22
HETATM   22  C   UNK N   1      33.665  15.713   9.363  0.00  0.00     0.000 C 
BRANCH  22  23
HETATM   23  C   UNK N   1      34.633  16.883   9.535  0.00  0.00    -0.000 C 
BRANCH  23  24
HETATM   24  C   UNK N   1      34.456  17.946   8.457  0.00  0.00    -0.005 C 
HETATM   25  C   UNK N   1      32.996  18.071   8.056  0.00  0.00     0.005 C 
ENDBRANCH  23  24
ENDBRANCH  22  23
ENDBRANCH  21  22
ENDBRANCH  20  21
ENDBRANCH  17  20
ENDBRANCH   1  17
BRANCH   3  26
HETATM   26  O   UNK N   1      36.641  15.139  14.151  0.00  0.00    -0.360 OA
HETATM   27  H   UNK N   1      35.903  15.501  14.600  0.00  0.00     0.217 HD
ENDBRANCH   3  26
BRANCH  12  28
HETATM   28  C   UNK N   1      35.135  14.486  18.245  0.00  0.00     0.198 C 
BRANCH  28  29
HETATM   29  O   UNK N   1      36.315  15.204  18.039  0.00  0.00    -0.397 OA
HETATM   30  H   UNK N   1      36.423  16.128  17.764  0.00  0.00     0.209 HD
ENDBRANCH  28  29
ENDBRANCH  12  28
TORSDOF 9
ENDMDL
MODEL 4
REMARK VINA RESULT:      -6.4      1.313      2.853
REMARK  9 active torsions:
REMARK  status: ('A' for Active; 'I' for Inactive)
REMARK    1  A    between atoms: C_2  and  C_3 
REMARK    2  A    between atoms: C_3  and  C_4 
REMARK    3  A    between atoms: C_4  and  C_5 
REMARK    4  A    between atoms: C_5  and  C_6 
REMARK    5  A    between atoms: C_6  and  C_7 
REMARK    6  A    between atoms: C_7  and  C_10 
REMARK    7  A    between atoms: C_12  and  O_28 
REMARK    8  A    between atoms: C_21  and  C_24 
REMARK    9  A    between atoms: C_24  and  O_25 
ROOT
HETATM    1  C   UNK N   1      27.972  18.729   5.520  0.00  0.00    -0.045 A 
HETATM    2  C   UNK N   1      28.248  18.517   6.880  0.00  0.00     0.045 A 
HETATM    3  C   UNK N   1      29.416  17.862   7.278  0.00  0.00     0.075 A 
HETATM    4  C   UNK N   1      30.344  17.437   6.312  0.00  0.00     0.013 A 
HETATM    5  C   UNK N   1      30.068  17.624   4.944  0.00  0.00     0.079 A 
HETATM    6  C   UNK N   1      28.883  18.254   4.559  0.00  0.00     0.045 A 
HETATM    7  O   UNK N   1      30.953  17.235   3.990  0.00  0.00    -0.340 OA
HETATM    8  C   UNK N   1      32.057  16.432   4.237  0.00  0.00     0.065 C 
HETATM    9  C   UNK N   1      32.700  16.804   5.590  0.00  0.00     0.032 C 
HETATM   10  C   UNK N   1      31.660  16.849   6.732  0.00  0.00     0.035 C 
HETATM   11  C   UNK N   1      31.555  15.512   7.446  0.00  0.00     0.046 C 
HETATM   12  C   UNK N   1      32.895  15.292   8.087  0.00  0.00    -0.060 C 
HETATM   13  C   UNK N   1      34.014  15.503   7.378  0.00  0.00    -0.021 C 
HETATM   14  C   UNK N   1      33.944  15.937   5.930  0.00  0.00     0.035 C 
HETATM   15  C   UNK N   1      31.622  14.972   4.210  0.00  0.00     0.046 C 
HETATM   16  C   UNK N   1      33.058  16.648   3.116  0.00  0.00     0.046 C 
ENDROOT
BRANCH   1  17
HETATM   17  C   UNK N   1      26.749  19.508   5.070  0.00  0.00    -0.020 C 
HETATM   18  C   UNK N   1      27.078  20.186   3.743  0.00  0.00     0.020 C 
HETATM   19  C   UNK N   1      26.373  20.600   6.069  0.00  0.00     0.020 C 
BRANCH  17  20
HETATM   20  C   UNK N   1      25.575  18.525   4.940  0.00  0.00     0.013 C 
BRANCH  20  21
HETATM   21  C   UNK N   1      25.408  17.719   3.642  0.00  0.00     0.001 C 
BRANCH  21  22
HETATM   22  C   UNK N   1      25.602  16.209   3.735  0.00  0.00     0.000 C 
BRANCH  22  23
HETATM   23  C   UNK N   1      26.892  15.789   3.030  0.00  0.00    -0.000 C 
BRANCH  23  24
HETATM   24  C   UNK N   1      27.688  14.770   3.836  0.00  0.00    -0.005 C 
HETATM   25  C   UNK N   1      27.474  14.972   5.327  0.00  0.00     0.005 C 
ENDBRANCH  23  24
ENDBRANCH  22  23
ENDBRANCH  21  22
ENDBRANCH  20  21
ENDBRANCH  17  20
ENDBRANCH   1  17
BRANCH   3  26
HETATM   26  O   UNK N   1      29.657  17.681   8.587  0.00  0.00    -0.360 OA
HETATM   27  H   UNK N   1      28.970  17.389   9.155  0.00  0.00     0.217 HD
ENDBRANCH   3  26
BRANCH  12  28
HETATM   28  C   UNK N   1      32.978  14.936   9.532  0.00  0.00     0.198 C 
BRANCH  28  29
HETATM   29  O   UNK N   1      31.801  15.313  10.180  0.00  0.00    -0.397 OA
HETATM   30  H   UNK N   1      31.684  15.642  11.085  0.00  0.00     0.209 HD
ENDBRANCH  28  29
ENDBRANCH  12  28
TORSDOF 9
ENDMDL
MODEL 5
REMARK VINA RESULT:      -6.4      8.057     11.177
REMARK  9 active torsions:
REMARK  status: ('A' for Active; 'I' for Inactive)
REMARK    1  A    between atoms: C_2  and  C_3 
REMARK    2  A    between atoms: C_3  and  C_4 
REMARK    3  A    between atoms: C_4  and  C_5 
REMARK    4  A    between atoms: C_5  and  C_6 
REMARK    5  A    between atoms: C_6  and  C_7 
REMARK    6  A    between atoms: C_7  and  C_10 
REMARK    7  A    between atoms: C_12  and  O_28 
REMARK    8  A    between atoms: C_21  and  C_24 
REMARK    9  A    between atoms: C_24  and  O_25 
ROOT
HETATM    1  C   UNK N   1      19.221  13.670   1.380  0.00  0.00    -0.045 A 
HETATM    2  C   UNK N   1      19.176  14.712   0.441  0.00  0.00     0.045 A 
HETATM    3  C   UNK N   1      19.712  15.967   0.740  0.00  0.00     0.075 A 
HETATM    4  C   UNK N   1      20.333  16.185   1.981  0.00  0.00     0.013 A 
HETATM    5  C   UNK N   1      20.365  15.154   2.940  0.00  0.00     0.079 A 
HETATM    6  C   UNK N   1      19.800  13.914   2.639  0.00  0.00     0.045 A 
HETATM    7  O   UNK N   1      20.971  15.334   4.142  0.00  0.00    -0.340 OA
HETATM    8  C   UNK N   1      21.387  16.566   4.626  0.00  0.00     0.065 C 
HETATM    9  C   UNK N   1      21.973  17.422   3.483  0.00  0.00     0.032 C 
HETATM   10  C   UNK N   1      21.025  17.487   2.264  0.00  0.00     0.035 C 
HETATM   11  C   UNK N   1      20.100  18.690   2.340  0.00  0.00     0.046 C 
HETATM   12  C   UNK N   1      20.997  19.892   2.258  0.00  0.00    -0.060 C 
HETATM   13  C   UNK N   1      22.107  19.946   3.009  0.00  0.00    -0.021 C 
HETATM   14  C   UNK N   1      22.457  18.820   3.958  0.00  0.00     0.035 C 
HETATM   15  C   UNK N   1      20.205  17.260   5.292  0.00  0.00     0.046 C 
HETATM   16  C   UNK N   1      22.450  16.324   5.683  0.00  0.00     0.046 C 
ENDROOT
BRANCH   1  17
HETATM   17  C   UNK N   1      18.718  12.277   1.046  0.00  0.00    -0.020 C 
HETATM   18  C   UNK N   1      17.458  12.418   0.196  0.00  0.00     0.020 C 
HETATM   19  C   UNK N   1      18.346  11.491   2.301  0.00  0.00     0.020 C 
BRANCH  17  20
HETATM   20  C   UNK N   1      19.835  11.529   0.302  0.00  0.00     0.013 C 
BRANCH  20  21
HETATM   21  C   UNK N   1      20.967  10.872   1.107  0.00  0.00     0.001 C 
BRANCH  21  22
HETATM   22  C   UNK N   1      22.384  11.368   0.842  0.00  0.00     0.000 C 
BRANCH  22  23
HETATM   23  C   UNK N   1      22.357  12.737   0.163  0.00  0.00    -0.000 C 
BRANCH  23  24
HETATM   24  C   UNK N   1      23.682  13.477   0.297  0.00  0.00    -0.005 C 
HETATM   25  C   UNK N   1      23.626  14.487   1.431  0.00  0.00     0.005 C 
ENDBRANCH  23  24
ENDBRANCH  22  23
ENDBRANCH  21  22
ENDBRANCH  20  21
ENDBRANCH  17  20
ENDBRANCH   1  17
BRANCH   3  26
HETATM   26  O   UNK N   1      19.660  16.943  -0.183  0.00  0.00    -0.360 OA
HETATM   27  H   UNK N   1      19.927  17.814   0.040  0.00  0.00     0.217 HD
ENDBRANCH   3  26
BRANCH  12  28
HETATM   28  C   UNK N   1      20.703  20.973   1.275  0.00  0.00     0.198 C 
BRANCH  28  29
HETATM   29  O   UNK N   1      20.636  20.436  -0.012  0.00  0.00    -0.397 OA
HETATM   30  H   UNK N   1      20.430  19.527  -0.280  0.00  0.00     0.209 HD
ENDBRANCH  28  29
ENDBRANCH  12  28
TORSDOF 9
ENDMDL
MODEL 6
REMARK VINA RESULT:      -6.4      3.919      9.124
REMARK  9 active torsions:
REMARK  status: ('A' for Active; 'I' for Inactive)
REMARK    1  A    between atoms: C_2  and  C_3 
REMARK    2  A    between atoms: C_3  and  C_4 
REMARK    3  A    between atoms: C_4  and  C_5 
REMARK    4  A    between atoms: C_5  and  C_6 
REMARK    5  A    between atoms: C_6  and  C_7 
REMARK    6  A    between atoms: C_7  and  C_10 
REMARK    7  A    between atoms: C_12  and  O_28 
REMARK    8  A    between atoms: C_21  and  C_24 
REMARK    9  A    between atoms: C_24  and  O_25 
ROOT
HETATM    1  C   UNK N   1      35.402  13.755   9.508  0.00  0.00    -0.045 A 
HETATM    2  C   UNK N   1      34.339  14.083  10.366  0.00  0.00     0.045 A 
HETATM    3  C   UNK N   1      33.245  14.814   9.900  0.00  0.00     0.075 A 
HETATM    4  C   UNK N   1      33.185  15.202   8.550  0.00  0.00     0.013 A 
HETATM    5  C   UNK N   1      34.254  14.899   7.686  0.00  0.00     0.079 A 
HETATM    6  C   UNK N   1      35.356  14.193   8.172  0.00  0.00     0.045 A 
HETATM    7  O   UNK N   1      34.217  15.250   6.374  0.00  0.00    -0.340 OA
HETATM    8  C   UNK N   1      33.280  16.115   5.828  0.00  0.00     0.065 C 
HETATM    9  C   UNK N   1      31.894  15.876   6.464  0.00  0.00     0.032 C 
HETATM   10  C   UNK N   1      31.958  15.875   8.008  0.00  0.00     0.035 C 
HETATM   11  C   UNK N   1      31.691  17.258   8.579  0.00  0.00     0.046 C 
HETATM   12  C   UNK N   1      30.275  17.582   8.203  0.00  0.00    -0.060 C 
HETATM   13  C   UNK N   1      29.853  17.365   6.948  0.00  0.00    -0.021 C 
HETATM   14  C   UNK N   1      30.795  16.818   5.897  0.00  0.00     0.035 C 
HETATM   15  C   UNK N   1      33.749  17.550   6.040  0.00  0.00     0.046 C 
HETATM   16  C   UNK N   1      33.211  15.856   4.334  0.00  0.00     0.046 C 
ENDROOT
BRANCH   1  17
HETATM   17  C   UNK N   1      36.561  12.893   9.974  0.00  0.00    -0.020 C 
HETATM   18  C   UNK N   1      37.619  12.883   8.874  0.00  0.00     0.020 C 
HETATM   19  C   UNK N   1      36.132  11.449  10.219  0.00  0.00     0.020 C 
BRANCH  17  20
HETATM   20  C   UNK N   1      37.099  13.483  11.287  0.00  0.00     0.013 C 
BRANCH  20  21
HETATM   21  C   UNK N   1      36.871  12.723  12.603  0.00  0.00     0.001 C 
BRANCH  21  22
HETATM   22  C   UNK N   1      36.401  13.540  13.803  0.00  0.00     0.000 C 
BRANCH  22  23
HETATM   23  C   UNK N   1      35.214  12.860  14.485  0.00  0.00    -0.000 C 
BRANCH  23  24
HETATM   24  C   UNK N   1      34.587  11.778  13.616  0.00  0.00    -0.005 C 
HETATM   25  C   UNK N   1      33.734  10.838  14.452  0.00  0.00     0.005 C 
ENDBRANCH  23  24
ENDBRANCH  22  23
ENDBRANCH  21  22
ENDBRANCH  20  21
ENDBRANCH  17  20
ENDBRANCH   1  17
BRANCH   3  26
HETATM   26  O   UNK N   1      32.239  15.106  10.742  0.00  0.00    -0.360 OA
HETATM   27  H   UNK N   1      31.551  14.485  10.885  0.00  0.00     0.217 HD
ENDBRANCH   3  26
BRANCH  12  28
HETATM   28  C   UNK N   1      29.317  18.052   9.245  0.00  0.00     0.198 C 
BRANCH  28  29
HETATM   29  O   UNK N   1      29.588  17.413  10.457  0.00  0.00    -0.397 OA
HETATM   30  H   UNK N   1      30.444  17.136  10.818  0.00  0.00     0.209 HD
ENDBRANCH  28  29
ENDBRANCH  12  28
TORSDOF 9
ENDMDL
MODEL 7
REMARK VINA RESULT:      -6.4     10.628     12.963
REMARK  9 active torsions:
REMARK  status: ('A' for Active; 'I' for Inactive)
REMARK    1  A    between atoms: C_2  and  C_3 
REMARK    2  A    between atoms: C_3  and  C_4 
REMARK    3  A    between atoms: C_4  and  C_5 
REMARK    4  A    between atoms: C_5  and  C_6 
REMARK    5  A    between atoms: C_6  and  C_7 
REMARK    6  A    between atoms: C_7  and  C_10 
REMARK    7  A    between atoms: C_12  and  O_28 
REMARK    8  A    between atoms: C_21  and  C_24 
REMARK    9  A    between atoms: C_24  and  O_25 
ROOT
HETATM    1  C   UNK N   1      27.757  21.779  -7.584  0.00  0.00    -0.045 A 
HETATM    2  C   UNK N   1      28.575  20.683  -7.902  0.00  0.00     0.045 A 
HETATM    3  C   UNK N   1      29.711  20.397  -7.143  0.00  0.00     0.075 A 
HETATM    4  C   UNK N   1      30.028  21.192  -6.028  0.00  0.00     0.013 A 
HETATM    5  C   UNK N   1      29.227  22.306  -5.712  0.00  0.00     0.079 A 
HETATM    6  C   UNK N   1      28.111  22.599  -6.497  0.00  0.00     0.045 A 
HETATM    7  O   UNK N   1      29.502  23.083  -4.632  0.00  0.00    -0.340 OA
HETATM    8  C   UNK N   1      30.681  23.012  -3.904  0.00  0.00     0.065 C 
HETATM    9  C   UNK N   1      31.140  21.545  -3.767  0.00  0.00     0.032 C 
HETATM   10  C   UNK N   1      31.172  20.818  -5.131  0.00  0.00     0.035 C 
HETATM   11  C   UNK N   1      32.542  20.911  -5.781  0.00  0.00     0.046 C 
HETATM   12  C   UNK N   1      33.471  20.165  -4.869  0.00  0.00    -0.060 C 
HETATM   13  C   UNK N   1      33.424  20.384  -3.546  0.00  0.00    -0.021 C 
HETATM   14  C   UNK N   1      32.460  21.393  -2.962  0.00  0.00     0.035 C 
HETATM   15  C   UNK N   1      31.740  23.864  -4.593  0.00  0.00     0.046 C 
HETATM   16  C   UNK N   1      30.423  23.600  -2.528  0.00  0.00     0.046 C 
ENDROOT
BRANCH   1  17
HETATM   17  C   UNK N   1      26.474  22.060  -8.346  0.00  0.00    -0.020 C 
HETATM   18  C   UNK N   1      25.614  20.800  -8.311  0.00  0.00     0.020 C 
HETATM   19  C   UNK N   1      26.746  22.396  -9.810  0.00  0.00     0.020 C 
BRANCH  17  20
HETATM   20  C   UNK N   1      25.774  23.255  -7.681  0.00  0.00     0.013 C 
BRANCH  20  21
HETATM   21  C   UNK N   1      25.631  24.573  -8.459  0.00  0.00     0.001 C 
BRANCH  21  22
HETATM   22  C   UNK N   1      25.935  25.861  -7.702  0.00  0.00     0.000 C 
BRANCH  22  23
HETATM   23  C   UNK N   1      25.568  25.717  -6.225  0.00  0.00    -0.000 C 
BRANCH  23  24
HETATM   24  C   UNK N   1      24.772  26.907  -5.706  0.00  0.00    -0.005 C 
HETATM   25  C   UNK N   1      25.659  27.840  -4.897  0.00  0.00     0.005 C 
ENDBRANCH  23  24
ENDBRANCH  22  23
ENDBRANCH  21  22
ENDBRANCH  20  21
ENDBRANCH  17  20
ENDBRANCH   1  17
BRANCH   3  26
HETATM   26  O   UNK N   1      30.471  19.337  -7.467  0.00  0.00    -0.360 OA
HETATM   27  H   UNK N   1      31.178  19.077  -6.908  0.00  0.00     0.217 HD
ENDBRANCH   3  26
BRANCH  12  28
HETATM   28  C   UNK N   1      34.374  19.116  -5.423  0.00  0.00     0.198 C 
BRANCH  28  29
HETATM   29  O   UNK N   1      35.223  18.646  -4.420  0.00  0.00    -0.397 OA
HETATM   30  H   UNK N   1      35.438  19.053  -3.566  0.00  0.00     0.209 HD
ENDBRANCH  28  29
ENDBRANCH  12  28
TORSDOF 9
ENDMDL
MODEL 8
REMARK VINA RESULT:      -6.3      5.562     10.729
REMARK  9 active torsions:
REMARK  status: ('A' for Active; 'I' for Inactive)
REMARK    1  A    between atoms: C_2  and  C_3 
REMARK    2  A    between atoms: C_3  and  C_4 
REMARK    3  A    between atoms: C_4  and  C_5 
REMARK    4  A    between atoms: C_5  and  C_6 
REMARK    5  A    between atoms: C_6  and  C_7 
REMARK    6  A    between atoms: C_7  and  C_10 
REMARK    7  A    between atoms: C_12  and  O_28 
REMARK    8  A    between atoms: C_21  and  C_24 
REMARK    9  A    between atoms: C_24  and  O_25 
ROOT
HETATM    1  C   UNK N   1      35.848  13.800  13.206  0.00  0.00    -0.045 A 
HETATM    2  C   UNK N   1      35.665  15.151  12.868  0.00  0.00     0.045 A 
HETATM    3  C   UNK N   1      35.131  15.510  11.629  0.00  0.00     0.075 A 
HETATM    4  C   UNK N   1      34.741  14.513  10.718  0.00  0.00     0.013 A 
HETATM    5  C   UNK N   1      34.941  13.156  11.037  0.00  0.00     0.079 A 
HETATM    6  C   UNK N   1      35.503  12.812  12.267  0.00  0.00     0.045 A 
HETATM    7  O   UNK N   1      34.561  12.172  10.181  0.00  0.00    -0.340 OA
HETATM    8  C   UNK N   1      34.181  12.391   8.865  0.00  0.00     0.065 C 
HETATM    9  C   UNK N   1      33.349  13.687   8.755  0.00  0.00     0.032 C 
HETATM   10  C   UNK N   1      34.049  14.884   9.439  0.00  0.00     0.035 C 
HETATM   11  C   UNK N   1      34.909  15.662   8.457  0.00  0.00     0.046 C 
HETATM   12  C   UNK N   1      33.953  16.235   7.451  0.00  0.00    -0.060 C 
HETATM   13  C   UNK N   1      33.000  15.454   6.919  0.00  0.00    -0.021 C 
HETATM   14  C   UNK N   1      32.892  13.994   7.302  0.00  0.00     0.035 C 
HETATM   15  C   UNK N   1      35.429  12.455   7.993  0.00  0.00     0.046 C 
HETATM   16  C   UNK N   1      33.347  11.206   8.411  0.00  0.00     0.046 C 
ENDROOT
BRANCH   1  17
HETATM   17  C   UNK N   1      36.351  13.387  14.577  0.00  0.00    -0.020 C 
HETATM   18  C   UNK N   1      37.088  14.573  15.192  0.00  0.00     0.020 C 
HETATM   19  C   UNK N   1      37.335  12.222  14.494  0.00  0.00     0.020 C 
BRANCH  17  20
HETATM   20  C   UNK N   1      35.142  12.958  15.422  0.00  0.00     0.013 C 
BRANCH  20  21
HETATM   21  C   UNK N   1      34.886  11.462  15.667  0.00  0.00     0.001 C 
BRANCH  21  22
HETATM   22  C   UNK N   1      33.628  10.863  15.048  0.00  0.00     0.000 C 
BRANCH  22  23
HETATM   23  C   UNK N   1      33.911  10.361  13.632  0.00  0.00    -0.000 C 
BRANCH  23  24
HETATM   24  C   UNK N   1      35.046   9.346  13.593  0.00  0.00    -0.005 C 
HETATM   25  C   UNK N   1      35.570   9.175  12.177  0.00  0.00     0.005 C 
ENDBRANCH  23  24
ENDBRANCH  22  23
ENDBRANCH  21  22
ENDBRANCH  20  21
ENDBRANCH  17  20
ENDBRANCH   1  17
BRANCH   3  26
HETATM   26  O   UNK N   1      34.960  16.811  11.336  0.00  0.00    -0.360 OA
HETATM   27  H   UNK N   1      35.400  17.467  11.840  0.00  0.00     0.217 HD
ENDBRANCH   3  26
BRANCH  12  28
HETATM   28  C   UNK N   1      34.003  17.687   7.120  0.00  0.00     0.198 C 
BRANCH  28  29
HETATM   29  O   UNK N   1      34.105  17.853   5.738  0.00  0.00    -0.397 OA
HETATM   30  H   UNK N   1      34.364  17.203   5.066  0.00  0.00     0.209 HD
ENDBRANCH  28  29
ENDBRANCH  12  28
TORSDOF 9
ENDMDL
MODEL 9
REMARK VINA RESULT:      -6.3      2.149      6.775
REMARK  9 active torsions:
REMARK  status: ('A' for Active; 'I' for Inactive)
REMARK    1  A    between atoms: C_2  and  C_3 
REMARK    2  A    between atoms: C_3  and  C_4 
REMARK    3  A    between atoms: C_4  and  C_5 
REMARK    4  A    between atoms: C_5  and  C_6 
REMARK    5  A    between atoms: C_6  and  C_7 
REMARK    6  A    between atoms: C_7  and  C_10 
REMARK    7  A    between atoms: C_12  and  O_28 
REMARK    8  A    between atoms: C_21  and  C_24 
REMARK    9  A    between atoms: C_24  and  O_25 
ROOT
HETATM    1  C   UNK N   1      31.428  16.318   4.795  0.00  0.00    -0.045 A 
HETATM    2  C   UNK N   1      30.676  15.152   5.015  0.00  0.00     0.045 A 
HETATM    3  C   UNK N   1      29.285  15.207   5.110  0.00  0.00     0.075 A 
HETATM    4  C   UNK N   1      28.620  16.435   4.952  0.00  0.00     0.013 A 
HETATM    5  C   UNK N   1      29.363  17.614   4.752  0.00  0.00     0.079 A 
HETATM    6  C   UNK N   1      30.756  17.549   4.689  0.00  0.00     0.045 A 
HETATM    7  O   UNK N   1      28.746  18.812   4.583  0.00  0.00    -0.340 OA
HETATM    8  C   UNK N   1      27.396  19.031   4.820  0.00  0.00     0.065 C 
HETATM    9  C   UNK N   1      26.566  17.815   4.358  0.00  0.00     0.032 C 
HETATM   10  C   UNK N   1      27.120  16.487   4.924  0.00  0.00     0.035 C 
HETATM   11  C   UNK N   1      26.449  16.116   6.235  0.00  0.00     0.046 C 
HETATM   12  C   UNK N   1      25.007  15.876   5.897  0.00  0.00    -0.060 C 
HETATM   13  C   UNK N   1      24.351  16.752   5.120  0.00  0.00    -0.021 C 
HETATM   14  C   UNK N   1      25.041  17.994   4.599  0.00  0.00     0.035 C 
HETATM   15  C   UNK N   1      27.194  19.311   6.305  0.00  0.00     0.046 C 
HETATM   16  C   UNK N   1      26.974  20.266   4.044  0.00  0.00     0.046 C 
ENDROOT
BRANCH   1  17
HETATM   17  C   UNK N   1      32.934  16.269   4.608  0.00  0.00    -0.020 C 
HETATM   18  C   UNK N   1      33.229  16.277   3.111  0.00  0.00     0.020 C 
HETATM   19  C   UNK N   1      33.537  14.995   5.194  0.00  0.00     0.020 C 
BRANCH  17  20
HETATM   20  C   UNK N   1      33.544  17.484   5.324  0.00  0.00     0.013 C 
BRANCH  20  21
HETATM   21  C   UNK N   1      33.978  17.354   6.792  0.00  0.00     0.001 C 
BRANCH  21  22
HETATM   22  C   UNK N   1      33.008  17.872   7.849  0.00  0.00     0.000 C 
BRANCH  22  23
HETATM   23  C   UNK N   1      32.170  16.727   8.418  0.00  0.00    -0.000 C 
BRANCH  23  24
HETATM   24  C   UNK N   1      30.677  17.028   8.381  0.00  0.00    -0.005 C 
HETATM   25  C   UNK N   1      30.402  18.458   8.817  0.00  0.00     0.005 C 
ENDBRANCH  23  24
ENDBRANCH  22  23
ENDBRANCH  21  22
ENDBRANCH  20  21
ENDBRANCH  17  20
ENDBRANCH   1  17
BRANCH   3  26
HETATM   26  O   UNK N   1      28.592  14.074   5.314  0.00  0.00    -0.360 OA
HETATM   27  H   UNK N   1      28.793  13.526   6.048  0.00  0.00     0.217 HD
ENDBRANCH   3  26
BRANCH  12  28
HETATM   28  C   UNK N   1      24.337  14.620   6.342  0.00  0.00     0.198 C 
BRANCH  28  29
HETATM   29  O   UNK N   1      23.168  14.931   7.039  0.00  0.00    -0.397 OA
HETATM   30  H   UNK N   1      23.030  14.988   7.997  0.00  0.00     0.209 HD
ENDBRANCH  28  29
ENDBRANCH  12  28
TORSDOF 9
ENDMDL
