REMARK  0 active torsions:
REMARK  status: ('A' for Active; 'I' for Inactive)
ROOT
HETATM    1  N   UNK N   1      -0.190  -1.061  -0.125  0.00  0.00    -0.354 N 
HETATM    2  N   UNK N   1      -2.457  -2.653   0.467  0.00  0.00     0.088 N 
HETATM    3  N   UNK N   1       2.116  -1.160  -0.818  0.00  0.00    -0.352 N 
ATOM      4  HN  UNK N   1       1.899  -2.090  -1.174  1.00  0.00     0.166 HD
HETATM    5  C   UNK N   1      -1.389  -0.407   0.458  0.00  0.00     0.147 C 
HETATM    6  C   UNK N   1      -2.670  -1.240   0.239  0.00  0.00     0.301 C 
HETATM    7  C   UNK N   1      -0.224  -2.478  -0.485  0.00  0.00     0.155 C 
HETATM    8  C   UNK N   1      -1.606  -3.088  -0.618  0.00  0.00     0.291 C 
HETATM    9  C   UNK N   1      -1.637   1.007  -0.069  0.00  0.00    -0.027 A 
HETATM   10  C   UNK N   1       1.116  -0.446  -0.207  0.00  0.00     0.110 A 
HETATM   11  C   UNK N   1      -0.719   2.027   0.218  0.00  0.00    -0.045 A 
HETATM   12  C   UNK N   1       0.485   1.727   1.024  0.00  0.00     0.081 C 
HETATM   13  C   UNK N   1       1.437   0.848   0.291  0.00  0.00    -0.010 A 
HETATM   14  C   UNK N   1      -3.740  -3.295   0.243  0.00  0.00     0.310 C 
HETATM   15  C   UNK N   1      -2.814   1.341  -0.772  0.00  0.00     0.010 A 
HETATM   16  C   UNK N   1      -0.965   3.344  -0.188  0.00  0.00     0.008 A 
HETATM   17  C   UNK N   1       2.736   1.337   0.131  0.00  0.00     0.012 A 
HETATM   18  C   UNK N   1      -3.055   2.655  -1.183  0.00  0.00     0.001 A 
HETATM   19  C   UNK N   1      -2.129   3.657  -0.892  0.00  0.00     0.001 A 
HETATM   20  C   UNK N   1       3.711   0.574  -0.503  0.00  0.00     0.018 A 
HETATM   21  C   UNK N   1       3.379  -0.689  -0.971  0.00  0.00     0.089 A 
ENDROOT
TORSDOF 0
