REMARK  3 active torsions:
REMARK  status: ('A' for Active; 'I' for Inactive)
REMARK    1  A    between atoms: C_11  and  C_8 
REMARK    2  A    between atoms: C_14  and  C_8 
REMARK    3  A    between atoms: O_19  and  C_14 
ROOT
HETATM    1  C   UNK N   1       5.622   1.109   0.000  0.00  0.00     0.049 C 
HETATM    2  C   UNK N   1       3.172   2.684   0.000  0.00  0.00     0.052 C 
HETATM    3  C   UNK N   1      -3.014  -0.577  -0.000  0.00  0.00     0.002 A 
HETATM    4  C   UNK N   1      -2.919   0.812  -0.000  0.00  0.00     0.010 A 
HETATM    5  C   UNK N   1      -1.861  -1.351  -0.000  0.00  0.00     0.018 A 
HETATM    6  C   UNK N   1       4.231  -0.954   0.000  0.00  0.00     0.008 A 
HETATM    7  C   UNK N   1       3.002  -1.611  -0.000  0.00  0.00     0.019 A 
HETATM    8  C   UNK N   1       4.287   0.441   0.000  0.00  0.00    -0.053 A 
HETATM    9  C   UNK N   1       3.098   1.193   0.000  0.00  0.00    -0.021 A 
HETATM   10  C   UNK N   1      -1.681   1.467  -0.000  0.00  0.00    -0.013 A 
HETATM   11  C   UNK N   1      -0.602  -0.742  -0.000  0.00  0.00     0.049 A 
HETATM   12  C   UNK N   1       1.808  -0.878  -0.000  0.00  0.00     0.049 A 
HETATM   13  C   UNK N   1       0.565  -1.516  -0.000  0.00  0.00     0.198 A 
HETATM   14  C   UNK N   1       1.849   0.535   0.000  0.00  0.00     0.096 A 
HETATM   15  C   UNK N   1      -0.493   0.677  -0.000  0.00  0.00     0.097 A 
HETATM   16  O   UNK N   1       0.498  -2.738  -0.000  0.00  0.00    -0.286 OA
HETATM   17  O   UNK N   1       0.714   1.236   0.000  0.00  0.00    -0.308 OA
ENDROOT
BRANCH  10  18
HETATM   18  C   UNK N   1      -1.787   2.984   0.000  0.00  0.00     0.151 C 
BRANCH  18  19
HETATM   19  C   UNK N   1      -0.679   4.006   0.000  0.00  0.00     0.143 C 
HETATM   20  O   UNK N   1      -0.978   5.187  -0.000  0.00  0.00    -0.650 OA
BRANCH  19  21
HETATM   21  O   UNK N   1       0.614   3.673   0.000  0.00  0.00    -0.776 OA
HETATM   22  H   UNK N   1       0.865   2.771   0.000  0.00  0.00     0.167 HD
ENDBRANCH  19  21
ENDBRANCH  18  19
ENDBRANCH  10  18
TORSDOF 3
