REMARK  8 active torsions:
REMARK  status: ('A' for Active; 'I' for Inactive)
REMARK    1  A    between atoms: C_1  and  O_15 
REMARK    2  A    between atoms: C_2  and  O_7 
REMARK    3  A    between atoms: C_5  and  C_8 
REMARK    4  A    between atoms: C_8  and  C_9 
REMARK    5  A    between atoms: C_8  and  O_13 
REMARK    6  A    between atoms: C_9  and  C_10 
REMARK    7  A    between atoms: C_9  and  N_14 
REMARK    8  A    between atoms: C_10  and  O_11 
ROOT
HETATM    1  C   UNK N   1       0.837   0.585  -0.410  0.00  0.00     0.183 C 
ENDROOT
BRANCH   1   2
HETATM    2  C   UNK N   1      -0.535  -0.033  -0.205  0.00  0.00    -0.024 A 
HETATM    3  C   UNK N   1      -0.703  -1.424  -0.275  0.00  0.00     0.013 A 
HETATM    4  C   UNK N   1      -1.972  -1.996  -0.146  0.00  0.00     0.040 A 
HETATM    5  C   UNK N   1      -3.090  -1.183   0.023  0.00  0.00     0.098 A 
HETATM    6  C   UNK N   1      -2.947   0.210   0.076  0.00  0.00     0.099 A 
HETATM    7  C   UNK N   1      -1.669   0.779  -0.031  0.00  0.00     0.049 A 
BRANCH   5   8
HETATM    8  O   UNK N   1      -4.312  -1.741   0.128  0.00  0.00    -0.358 OA
HETATM    9  H   UNK N   1      -5.073  -1.200   0.201  0.00  0.00     0.217 HD
ENDBRANCH   5   8
BRANCH   6  10
HETATM   10  O   UNK N   1      -4.019   1.001   0.218  0.00  0.00    -0.358 OA
HETATM   11  H   UNK N   1      -3.914   1.927   0.318  0.00  0.00     0.217 HD
ENDBRANCH   6  10
ENDBRANCH   1   2
BRANCH   1  12
HETATM   12  C   UNK N   1       1.965   0.010   0.473  0.00  0.00     0.207 C 
BRANCH  12  13
HETATM   13  C   UNK N   1       3.293   0.650   0.140  0.00  0.00     0.165 C 
HETATM   14  O   UNK N   1       3.452   1.850   0.298  0.00  0.00    -0.648 OA
BRANCH  13  15
HETATM   15  O   UNK N   1       4.319  -0.097  -0.319  0.00  0.00    -0.775 OA
HETATM   16  H   UNK N   1       4.225  -0.973  -0.638  0.00  0.00     0.167 HD
ENDBRANCH  13  15
ENDBRANCH  12  13
BRANCH  12  17
HETATM   17  N   UNK N   1       2.075  -1.430   0.279  0.00  0.00    -0.415 N 
HETATM   18  H   UNK N   1       1.241  -2.001   0.143  0.00  0.00     0.150 HD
HETATM   19  H   UNK N   1       2.995  -1.871   0.279  0.00  0.00     0.150 HD
ENDBRANCH  12  17
ENDBRANCH   1  12
BRANCH   1  20
HETATM   20  O   UNK N   1       0.767   1.975  -0.248  0.00  0.00    -0.388 OA
HETATM   21  H   UNK N   1       1.576   2.498  -0.136  0.00  0.00     0.210 HD
ENDBRANCH   1  20
TORSDOF 8
