REMARK  2 active torsions:
REMARK  status: ('A' for Active; 'I' for Inactive)
REMARK    1  A    between atoms: C_3  and  C_2 
REMARK    2  A    between atoms: C_6  and  C_2 
ROOT
HETATM    1  C   UNK N   1       1.122   2.380   0.000  0.00  0.00     0.069 C 
HETATM    2  C   UNK N   1       1.673  -1.259  -0.000  0.00  0.00     0.138 A 
HETATM    3  C   UNK N   1       0.929   0.904  -0.000  0.00  0.00     0.018 A 
HETATM    4  C   UNK N   1      -0.324   0.254   0.000  0.00  0.00     0.007 A 
HETATM    5  N   UNK N   1       2.017   0.055  -0.000  0.00  0.00    -0.363 N 
ATOM      6  HN  UNK N   1       2.983   0.382  -0.000  1.00  0.00     0.165 HD
HETATM    7  S   UNK N   1       0.019  -1.360  -0.000  0.00  0.00    -0.087 SA
ENDROOT
BRANCH   4   8
HETATM    8  C   UNK N   1      -1.721   0.819   0.000  0.00  0.00     0.063 C 
BRANCH   8   9
HETATM    9  C   UNK N   1      -1.763   2.337   0.000  0.00  0.00     0.119 C 
HETATM   10 Cl   UNK N   1      -3.437   2.927   0.000  0.00  0.00    -0.130 Cl
ENDBRANCH   8   9
ENDBRANCH   4   8
TORSDOF 2
