MODEL 1
REMARK VINA RESULT:      -6.6      0.000      0.000
REMARK  8 active torsions:
REMARK  status: ('A' for Active; 'I' for Inactive)
REMARK    1  A    between atoms: C_2  and  O_7 
REMARK    2  A    between atoms: C_3  and  O_9 
REMARK    3  A    between atoms: C_5  and  C_11 
REMARK    4  A    between atoms: C_11  and  C_12 
REMARK    5  A    between atoms: C_12  and  O_13 
REMARK    6  A    between atoms: C_14  and  O_13 
REMARK    7  A    between atoms: C_19  and  N_20 
REMARK    8  A    between atoms: C_23  and  O_25 
ROOT
HETATM    1  C   UNK N   1      32.239  17.117   7.692  0.00  0.00     0.154 C 
HETATM    2  C   UNK N   1      34.522  16.232   7.115  0.00  0.00     0.038 C 
HETATM    3  C   UNK N   1      34.164  16.300   5.634  0.00  0.00     0.002 C 
HETATM    4  C   UNK N   1      33.199  17.449   5.399  0.00  0.00     0.003 C 
HETATM    5  C   UNK N   1      31.929  17.202   6.195  0.00  0.00     0.034 C 
HETATM    6  C   UNK N   1      33.276  16.000   7.991  0.00  0.00     0.251 C 
ENDROOT
BRANCH   1   7
HETATM    7  O   UNK N   1      31.044  16.867   8.368  0.00  0.00    -0.383 OA
BRANCH   7   8
HETATM    8  C   UNK N   1      30.427  18.110   8.536  0.00  0.00     0.172 C 
BRANCH   8   9
HETATM    9  C   UNK N   1      28.932  17.923   8.347  0.00  0.00     0.065 C 
BRANCH   9  10
HETATM   10  C   UNK N   1      28.400  18.525   7.084  0.00  0.00    -0.053 A 
HETATM   11  C   UNK N   1      28.399  17.748   5.928  0.00  0.00     0.046 A 
HETATM   12  C   UNK N   1      27.954  18.270   4.701  0.00  0.00     0.102 A 
HETATM   13  C   UNK N   1      27.497  19.616   4.645  0.00  0.00     0.101 A 
HETATM   14  C   UNK N   1      27.509  20.387   5.816  0.00  0.00     0.040 A 
HETATM   15  C   UNK N   1      27.963  19.853   7.024  0.00  0.00     0.010 A 
BRANCH  12  16
HETATM   16  O   UNK N   1      27.968  17.498   3.586  0.00  0.00    -0.353 OA
HETATM   17  C   UNK N   1      27.051  16.499   3.343  0.00  0.00     0.210 C 
ENDBRANCH  12  16
BRANCH  13  18
HETATM   18  O   UNK N   1      27.048  20.209   3.508  0.00  0.00    -0.353 OA
HETATM   19  C   UNK N   1      25.730  20.312   3.124  0.00  0.00     0.210 C 
ENDBRANCH  13  18
ENDBRANCH   9  10
ENDBRANCH   8   9
ENDBRANCH   7   8
ENDBRANCH   1   7
BRANCH   6  20
HETATM   20  N   UNK N   1      33.675  15.997   9.413  0.00  0.00     0.098 N 
HETATM   21  C   UNK N   1      33.891  14.642   9.919  0.00  0.00     0.275 C 
HETATM   22  C   UNK N   1      34.985  14.709  10.973  0.00  0.00     0.064 C 
HETATM   23  C   UNK N   1      35.446  16.142  10.943  0.00  0.00     0.148 C 
HETATM   24  C   UNK N   1      34.979  16.625   9.595  0.00  0.00     0.304 C 
BRANCH  23  25
HETATM   25  O   UNK N   1      36.835  16.214  11.044  0.00  0.00    -0.394 OA
HETATM   26  H   UNK N   1      37.435  16.939  10.811  0.00  0.00     0.210 HD
ENDBRANCH  23  25
ENDBRANCH   6  20
TORSDOF 8
ENDMDL
MODEL 2
REMARK VINA RESULT:      -6.3      2.804      4.782
REMARK  8 active torsions:
REMARK  status: ('A' for Active; 'I' for Inactive)
REMARK    1  A    between atoms: C_2  and  O_7 
REMARK    2  A    between atoms: C_3  and  O_9 
REMARK    3  A    between atoms: C_5  and  C_11 
REMARK    4  A    between atoms: C_11  and  C_12 
REMARK    5  A    between atoms: C_12  and  O_13 
REMARK    6  A    between atoms: C_14  and  O_13 
REMARK    7  A    between atoms: C_19  and  N_20 
REMARK    8  A    between atoms: C_23  and  O_25 
ROOT
HETATM    1  C   UNK N   1      28.879  17.005   6.803  0.00  0.00     0.154 C 
HETATM    2  C   UNK N   1      30.800  17.523   8.341  0.00  0.00     0.038 C 
HETATM    3  C   UNK N   1      29.848  18.275   9.264  0.00  0.00     0.002 C 
HETATM    4  C   UNK N   1      28.469  17.641   9.194  0.00  0.00     0.003 C 
HETATM    5  C   UNK N   1      27.948  17.739   7.770  0.00  0.00     0.034 C 
HETATM    6  C   UNK N   1      30.326  17.565   6.876  0.00  0.00     0.251 C 
ENDROOT
BRANCH   1   7
HETATM    7  O   UNK N   1      28.365  17.148   5.513  0.00  0.00    -0.383 OA
BRANCH   7   8
HETATM    8  C   UNK N   1      27.920  18.469   5.418  0.00  0.00     0.172 C 
BRANCH   8   9
HETATM    9  C   UNK N   1      27.466  18.711   3.990  0.00  0.00     0.065 C 
BRANCH   9  10
HETATM   10  C   UNK N   1      26.017  19.065   3.866  0.00  0.00    -0.053 A 
HETATM   11  C   UNK N   1      25.072  18.177   4.376  0.00  0.00     0.046 A 
HETATM   12  C   UNK N   1      23.695  18.431   4.252  0.00  0.00     0.102 A 
HETATM   13  C   UNK N   1      23.264  19.617   3.595  0.00  0.00     0.101 A 
HETATM   14  C   UNK N   1      24.227  20.497   3.082  0.00  0.00     0.040 A 
HETATM   15  C   UNK N   1      25.591  20.224   3.208  0.00  0.00     0.010 A 
BRANCH  12  16
HETATM   16  O   UNK N   1      22.791  17.550   4.750  0.00  0.00    -0.353 OA
HETATM   17  C   UNK N   1      23.120  16.545   5.634  0.00  0.00     0.210 C 
ENDBRANCH  12  16
BRANCH  13  18
HETATM   18  O   UNK N   1      21.957  19.948   3.427  0.00  0.00    -0.353 OA
HETATM   19  C   UNK N   1      21.458  20.757   2.431  0.00  0.00     0.210 C 
ENDBRANCH  13  18
ENDBRANCH   9  10
ENDBRANCH   8   9
ENDBRANCH   7   8
ENDBRANCH   1   7
BRANCH   6  20
HETATM   20  N   UNK N   1      31.256  16.777   6.042  0.00  0.00     0.098 N 
HETATM   21  C   UNK N   1      31.615  17.480   4.811  0.00  0.00     0.275 C 
HETATM   22  C   UNK N   1      33.039  17.085   4.450  0.00  0.00     0.064 C 
HETATM   23  C   UNK N   1      33.491  16.224   5.600  0.00  0.00     0.148 C 
HETATM   24  C   UNK N   1      32.542  16.603   6.706  0.00  0.00     0.304 C 
BRANCH  23  25
HETATM   25  O   UNK N   1      34.808  16.521   5.949  0.00  0.00    -0.394 OA
HETATM   26  H   UNK N   1      35.452  15.989   6.442  0.00  0.00     0.210 HD
ENDBRANCH  23  25
ENDBRANCH   6  20
TORSDOF 8
ENDMDL
MODEL 3
REMARK VINA RESULT:      -6.1     12.036     15.909
REMARK  8 active torsions:
REMARK  status: ('A' for Active; 'I' for Inactive)
REMARK    1  A    between atoms: C_2  and  O_7 
REMARK    2  A    between atoms: C_3  and  O_9 
REMARK    3  A    between atoms: C_5  and  C_11 
REMARK    4  A    between atoms: C_11  and  C_12 
REMARK    5  A    between atoms: C_12  and  O_13 
REMARK    6  A    between atoms: C_14  and  O_13 
REMARK    7  A    between atoms: C_19  and  N_20 
REMARK    8  A    between atoms: C_23  and  O_25 
ROOT
HETATM    1  C   UNK N   1      26.911  25.497  -4.502  0.00  0.00     0.154 C 
HETATM    2  C   UNK N   1      25.302  26.357  -6.233  0.00  0.00     0.038 C 
HETATM    3  C   UNK N   1      24.809  27.405  -5.242  0.00  0.00     0.002 C 
HETATM    4  C   UNK N   1      25.949  27.806  -4.320  0.00  0.00     0.003 C 
HETATM    5  C   UNK N   1      26.414  26.584  -3.547  0.00  0.00     0.034 C 
HETATM    6  C   UNK N   1      25.808  25.090  -5.518  0.00  0.00     0.251 C 
ENDROOT
BRANCH   1   7
HETATM    7  O   UNK N   1      27.303  24.396  -3.739  0.00  0.00    -0.383 OA
BRANCH   7   8
HETATM    8  C   UNK N   1      28.690  24.302  -3.878  0.00  0.00     0.172 C 
BRANCH   8   9
HETATM    9  C   UNK N   1      29.202  23.316  -2.843  0.00  0.00     0.065 C 
BRANCH   9  10
HETATM   10  C   UNK N   1      30.275  22.405  -3.352  0.00  0.00    -0.053 A 
HETATM   11  C   UNK N   1      30.042  21.700  -4.530  0.00  0.00     0.046 A 
HETATM   12  C   UNK N   1      30.992  20.795  -5.036  0.00  0.00     0.102 A 
HETATM   13  C   UNK N   1      32.211  20.602  -4.329  0.00  0.00     0.101 A 
HETATM   14  C   UNK N   1      32.429  21.316  -3.142  0.00  0.00     0.040 A 
HETATM   15  C   UNK N   1      31.469  22.204  -2.650  0.00  0.00     0.010 A 
BRANCH  12  16
HETATM   16  O   UNK N   1      30.742  20.113  -6.181  0.00  0.00    -0.353 OA
HETATM   17  C   UNK N   1      29.649  20.355  -6.985  0.00  0.00     0.210 C 
ENDBRANCH  12  16
BRANCH  13  18
HETATM   18  O   UNK N   1      33.189  19.752  -4.738  0.00  0.00    -0.353 OA
HETATM   19  C   UNK N   1      34.488  19.748  -4.284  0.00  0.00     0.210 C 
ENDBRANCH  13  18
ENDBRANCH   9  10
ENDBRANCH   8   9
ENDBRANCH   7   8
ENDBRANCH   1   7
BRANCH   6  20
HETATM   20  N   UNK N   1      26.321  24.136  -6.521  0.00  0.00     0.098 N 
HETATM   21  C   UNK N   1      25.673  22.830  -6.416  0.00  0.00     0.275 C 
HETATM   22  C   UNK N   1      25.601  22.233  -7.813  0.00  0.00     0.064 C 
HETATM   23  C   UNK N   1      26.133  23.319  -8.711  0.00  0.00     0.148 C 
HETATM   24  C   UNK N   1      25.980  24.561  -7.874  0.00  0.00     0.304 C 
BRANCH  23  25
HETATM   25  O   UNK N   1      25.374  23.407  -9.878  0.00  0.00    -0.394 OA
HETATM   26  H   UNK N   1      24.756  22.766 -10.263  0.00  0.00     0.210 HD
ENDBRANCH  23  25
ENDBRANCH   6  20
TORSDOF 8
ENDMDL
MODEL 4
REMARK VINA RESULT:      -6.1      2.705      6.938
REMARK  8 active torsions:
REMARK  status: ('A' for Active; 'I' for Inactive)
REMARK    1  A    between atoms: C_2  and  O_7 
REMARK    2  A    between atoms: C_3  and  O_9 
REMARK    3  A    between atoms: C_5  and  C_11 
REMARK    4  A    between atoms: C_11  and  C_12 
REMARK    5  A    between atoms: C_12  and  O_13 
REMARK    6  A    between atoms: C_14  and  O_13 
REMARK    7  A    between atoms: C_19  and  N_20 
REMARK    8  A    between atoms: C_23  and  O_25 
ROOT
HETATM    1  C   UNK N   1      28.235  18.911   6.636  0.00  0.00     0.154 C 
HETATM    2  C   UNK N   1      27.679  19.378   4.227  0.00  0.00     0.038 C 
HETATM    3  C   UNK N   1      26.791  20.537   4.666  0.00  0.00     0.002 C 
HETATM    4  C   UNK N   1      27.352  21.152   5.936  0.00  0.00     0.003 C 
HETATM    5  C   UNK N   1      27.361  20.103   7.034  0.00  0.00     0.034 C 
HETATM    6  C   UNK N   1      27.751  18.277   5.302  0.00  0.00     0.251 C 
ENDROOT
BRANCH   1   7
HETATM    7  O   UNK N   1      28.187  17.974   7.668  0.00  0.00    -0.383 OA
BRANCH   7   8
HETATM    8  C   UNK N   1      28.669  18.625   8.805  0.00  0.00     0.172 C 
BRANCH   8   9
HETATM    9  C   UNK N   1      29.573  17.661   9.554  0.00  0.00     0.065 C 
BRANCH   9  10
HETATM   10  C   UNK N   1      30.794  17.256   8.788  0.00  0.00    -0.053 A 
HETATM   11  C   UNK N   1      31.026  15.899   8.580  0.00  0.00     0.046 A 
HETATM   12  C   UNK N   1      32.177  15.453   7.907  0.00  0.00     0.102 A 
HETATM   13  C   UNK N   1      33.117  16.409   7.431  0.00  0.00     0.101 A 
HETATM   14  C   UNK N   1      32.871  17.772   7.653  0.00  0.00     0.040 A 
HETATM   15  C   UNK N   1      31.726  18.195   8.332  0.00  0.00     0.010 A 
BRANCH  12  16
HETATM   16  O   UNK N   1      32.388  14.126   7.721  0.00  0.00    -0.353 OA
HETATM   17  C   UNK N   1      33.075  13.335   8.616  0.00  0.00     0.210 C 
ENDBRANCH  12  16
BRANCH  13  18
HETATM   18  O   UNK N   1      34.257  16.077   6.771  0.00  0.00    -0.353 OA
HETATM   19  C   UNK N   1      34.351  15.798   5.427  0.00  0.00     0.210 C 
ENDBRANCH  13  18
ENDBRANCH   9  10
ENDBRANCH   8   9
ENDBRANCH   7   8
ENDBRANCH   1   7
BRANCH   6  20
HETATM   20  N   UNK N   1      28.665  17.211   4.846  0.00  0.00     0.098 N 
HETATM   21  C   UNK N   1      28.319  16.728   3.510  0.00  0.00     0.275 C 
HETATM   22  C   UNK N   1      29.608  16.314   2.818  0.00  0.00     0.064 C 
HETATM   23  C   UNK N   1      30.694  16.700   3.789  0.00  0.00     0.148 C 
HETATM   24  C   UNK N   1      30.020  17.718   4.670  0.00  0.00     0.304 C 
BRANCH  23  25
HETATM   25  O   UNK N   1      31.778  17.261   3.116  0.00  0.00    -0.394 OA
HETATM   26  H   UNK N   1      31.898  18.163   2.780  0.00  0.00     0.210 HD
ENDBRANCH  23  25
ENDBRANCH   6  20
TORSDOF 8
ENDMDL
MODEL 5
REMARK VINA RESULT:      -6.1      2.916      9.392
REMARK  8 active torsions:
REMARK  status: ('A' for Active; 'I' for Inactive)
REMARK    1  A    between atoms: C_2  and  O_7 
REMARK    2  A    between atoms: C_3  and  O_9 
REMARK    3  A    between atoms: C_5  and  C_11 
REMARK    4  A    between atoms: C_11  and  C_12 
REMARK    5  A    between atoms: C_12  and  O_13 
REMARK    6  A    between atoms: C_14  and  O_13 
REMARK    7  A    between atoms: C_19  and  N_20 
REMARK    8  A    between atoms: C_23  and  O_25 
ROOT
HETATM    1  C   UNK N   1      33.259  16.574   8.084  0.00  0.00     0.154 C 
HETATM    2  C   UNK N   1      31.810  17.189   6.121  0.00  0.00     0.038 C 
HETATM    3  C   UNK N   1      33.056  17.312   5.251  0.00  0.00     0.002 C 
HETATM    4  C   UNK N   1      34.112  16.334   5.738  0.00  0.00     0.003 C 
HETATM    5  C   UNK N   1      34.483  16.675   7.171  0.00  0.00     0.034 C 
HETATM    6  C   UNK N   1      32.113  17.504   7.598  0.00  0.00     0.251 C 
ENDROOT
BRANCH   1   7
HETATM    7  O   UNK N   1      33.652  16.919   9.377  0.00  0.00    -0.383 OA
BRANCH   7   8
HETATM    8  C   UNK N   1      34.937  16.395   9.543  0.00  0.00     0.172 C 
BRANCH   8   9
HETATM    9  C   UNK N   1      35.265  16.412  11.026  0.00  0.00     0.065 C 
BRANCH   9  10
HETATM   10  C   UNK N   1      35.371  15.051  11.639  0.00  0.00    -0.053 A 
HETATM   11  C   UNK N   1      36.020  14.924  12.864  0.00  0.00     0.046 A 
HETATM   12  C   UNK N   1      36.191  13.667  13.470  0.00  0.00     0.102 A 
HETATM   13  C   UNK N   1      35.689  12.508  12.817  0.00  0.00     0.101 A 
HETATM   14  C   UNK N   1      35.043  12.651  11.580  0.00  0.00     0.040 A 
HETATM   15  C   UNK N   1      34.891  13.908  10.990  0.00  0.00     0.010 A 
BRANCH  12  16
HETATM   16  O   UNK N   1      36.833  13.565  14.661  0.00  0.00    -0.353 OA
HETATM   17  C   UNK N   1      37.066  14.641  15.491  0.00  0.00     0.210 C 
ENDBRANCH  12  16
BRANCH  13  18
HETATM   18  O   UNK N   1      35.806  11.252  13.322  0.00  0.00    -0.353 OA
HETATM   19  C   UNK N   1      35.975  10.104  12.582  0.00  0.00     0.210 C 
ENDBRANCH  13  18
ENDBRANCH   9  10
ENDBRANCH   8   9
ENDBRANCH   7   8
ENDBRANCH   1   7
BRANCH   6  20
HETATM   20  N   UNK N   1      30.886  17.317   8.397  0.00  0.00     0.098 N 
HETATM   21  C   UNK N   1      30.479  18.548   9.073  0.00  0.00     0.275 C 
HETATM   22  C   UNK N   1      28.961  18.548   9.163  0.00  0.00     0.064 C 
HETATM   23  C   UNK N   1      28.542  17.318   8.402  0.00  0.00     0.148 C 
HETATM   24  C   UNK N   1      29.742  17.019   7.544  0.00  0.00     0.304 C 
BRANCH  23  25
HETATM   25  O   UNK N   1      27.420  17.585   7.617  0.00  0.00    -0.394 OA
HETATM   26  H   UNK N   1      27.257  17.382   6.683  0.00  0.00     0.210 HD
ENDBRANCH  23  25
ENDBRANCH   6  20
TORSDOF 8
ENDMDL
MODEL 6
REMARK VINA RESULT:      -6.1     11.661     14.548
REMARK  8 active torsions:
REMARK  status: ('A' for Active; 'I' for Inactive)
REMARK    1  A    between atoms: C_2  and  O_7 
REMARK    2  A    between atoms: C_3  and  O_9 
REMARK    3  A    between atoms: C_5  and  C_11 
REMARK    4  A    between atoms: C_11  and  C_12 
REMARK    5  A    between atoms: C_12  and  O_13 
REMARK    6  A    between atoms: C_14  and  O_13 
REMARK    7  A    between atoms: C_19  and  N_20 
REMARK    8  A    between atoms: C_23  and  O_25 
ROOT
HETATM    1  C   UNK N   1      29.082  22.018  -6.805  0.00  0.00     0.154 C 
HETATM    2  C   UNK N   1      30.688  20.101  -6.532  0.00  0.00     0.038 C 
HETATM    3  C   UNK N   1      29.851  19.273  -7.501  0.00  0.00     0.002 C 
HETATM    4  C   UNK N   1      29.200  20.192  -8.520  0.00  0.00     0.003 C 
HETATM    5  C   UNK N   1      28.287  21.168  -7.798  0.00  0.00     0.034 C 
HETATM    6  C   UNK N   1      29.829  21.129  -5.772  0.00  0.00     0.251 C 
ENDROOT
BRANCH   1   7
HETATM    7  O   UNK N   1      28.192  22.875  -6.157  0.00  0.00    -0.383 OA
BRANCH   7   8
HETATM    8  C   UNK N   1      27.179  23.150  -7.079  0.00  0.00     0.172 C 
BRANCH   8   9
HETATM    9  C   UNK N   1      25.957  23.620  -6.311  0.00  0.00     0.065 C 
BRANCH   9  10
HETATM   10  C   UNK N   1      26.182  24.871  -5.520  0.00  0.00    -0.053 A 
HETATM   11  C   UNK N   1      26.390  26.063  -6.210  0.00  0.00     0.046 A 
HETATM   12  C   UNK N   1      26.651  27.263  -5.526  0.00  0.00     0.102 A 
HETATM   13  C   UNK N   1      26.700  27.255  -4.105  0.00  0.00     0.101 A 
HETATM   14  C   UNK N   1      26.494  26.046  -3.425  0.00  0.00     0.040 A 
HETATM   15  C   UNK N   1      26.244  24.862  -4.122  0.00  0.00     0.010 A 
BRANCH  12  16
HETATM   16  O   UNK N   1      26.858  28.412  -6.218  0.00  0.00    -0.353 OA
HETATM   17  C   UNK N   1      28.051  28.720  -6.837  0.00  0.00     0.210 C 
ENDBRANCH  12  16
BRANCH  13  18
HETATM   18  O   UNK N   1      26.945  28.362  -3.356  0.00  0.00    -0.353 OA
HETATM   19  C   UNK N   1      28.190  28.843  -3.021  0.00  0.00     0.210 C 
ENDBRANCH  13  18
ENDBRANCH   9  10
ENDBRANCH   8   9
ENDBRANCH   7   8
ENDBRANCH   1   7
BRANCH   6  20
HETATM   20  N   UNK N   1      30.699  21.935  -4.892  0.00  0.00     0.098 N 
HETATM   21  C   UNK N   1      29.962  22.505  -3.766  0.00  0.00     0.275 C 
HETATM   22  C   UNK N   1      30.913  22.587  -2.582  0.00  0.00     0.064 C 
HETATM   23  C   UNK N   1      32.175  21.927  -3.070  0.00  0.00     0.148 C 
HETATM   24  C   UNK N   1      31.702  21.103  -4.238  0.00  0.00     0.304 C 
BRANCH  23  25
HETATM   25  O   UNK N   1      32.723  21.117  -2.076  0.00  0.00    -0.394 OA
HETATM   26  H   UNK N   1      32.897  20.163  -2.083  0.00  0.00     0.210 HD
ENDBRANCH  23  25
ENDBRANCH   6  20
TORSDOF 8
ENDMDL
MODEL 7
REMARK VINA RESULT:      -5.9      2.264      4.313
REMARK  8 active torsions:
REMARK  status: ('A' for Active; 'I' for Inactive)
REMARK    1  A    between atoms: C_2  and  O_7 
REMARK    2  A    between atoms: C_3  and  O_9 
REMARK    3  A    between atoms: C_5  and  C_11 
REMARK    4  A    between atoms: C_11  and  C_12 
REMARK    5  A    between atoms: C_12  and  O_13 
REMARK    6  A    between atoms: C_14  and  O_13 
REMARK    7  A    between atoms: C_19  and  N_20 
REMARK    8  A    between atoms: C_23  and  O_25 
ROOT
HETATM    1  C   UNK N   1      31.938  16.485   7.702  0.00  0.00     0.154 C 
HETATM    2  C   UNK N   1      33.927  17.430   6.485  0.00  0.00     0.038 C 
HETATM    3  C   UNK N   1      34.395  18.088   7.778  0.00  0.00     0.002 C 
HETATM    4  C   UNK N   1      33.973  17.233   8.962  0.00  0.00     0.003 C 
HETATM    5  C   UNK N   1      32.458  17.133   8.987  0.00  0.00     0.034 C 
HETATM    6  C   UNK N   1      32.394  17.278   6.445  0.00  0.00     0.251 C 
ENDROOT
BRANCH   1   7
HETATM    7  O   UNK N   1      30.545  16.440   7.771  0.00  0.00    -0.383 OA
BRANCH   7   8
HETATM    8  C   UNK N   1      30.133  17.730   8.116  0.00  0.00     0.172 C 
BRANCH   8   9
HETATM    9  C   UNK N   1      28.616  17.736   8.189  0.00  0.00     0.065 C 
BRANCH   9  10
HETATM   10  C   UNK N   1      27.945  17.476   6.876  0.00  0.00    -0.053 A 
HETATM   11  C   UNK N   1      28.028  18.451   5.885  0.00  0.00     0.046 A 
HETATM   12  C   UNK N   1      27.383  18.286   4.647  0.00  0.00     0.102 A 
HETATM   13  C   UNK N   1      26.635  17.100   4.407  0.00  0.00     0.101 A 
HETATM   14  C   UNK N   1      26.556  16.131   5.417  0.00  0.00     0.040 A 
HETATM   15  C   UNK N   1      27.197  16.317   6.644  0.00  0.00     0.010 A 
BRANCH  12  16
HETATM   16  O   UNK N   1      27.470  19.252   3.698  0.00  0.00    -0.353 OA
HETATM   17  C   UNK N   1      26.616  20.331   3.633  0.00  0.00     0.210 C 
ENDBRANCH  12  16
BRANCH  13  18
HETATM   18  O   UNK N   1      25.978  16.850   3.244  0.00  0.00    -0.353 OA
HETATM   19  C   UNK N   1      26.237  15.806   2.387  0.00  0.00     0.210 C 
ENDBRANCH  13  18
ENDBRANCH   9  10
ENDBRANCH   8   9
ENDBRANCH   7   8
ENDBRANCH   1   7
BRANCH   6  20
HETATM   20  N   UNK N   1      32.005  16.589   5.199  0.00  0.00     0.098 N 
HETATM   21  C   UNK N   1      31.509  17.522   4.189  0.00  0.00     0.275 C 
HETATM   22  C   UNK N   1      31.888  16.972   2.823  0.00  0.00     0.064 C 
HETATM   23  C   UNK N   1      32.718  15.753   3.128  0.00  0.00     0.148 C 
HETATM   24  C   UNK N   1      33.162  15.986   4.547  0.00  0.00     0.304 C 
BRANCH  23  25
HETATM   25  O   UNK N   1      33.813  15.677   2.268  0.00  0.00    -0.394 OA
HETATM   26  H   UNK N   1      34.754  15.564   2.474  0.00  0.00     0.210 HD
ENDBRANCH  23  25
ENDBRANCH   6  20
TORSDOF 8
ENDMDL
MODEL 8
REMARK VINA RESULT:      -5.9     11.859     15.413
REMARK  8 active torsions:
REMARK  status: ('A' for Active; 'I' for Inactive)
REMARK    1  A    between atoms: C_2  and  O_7 
REMARK    2  A    between atoms: C_3  and  O_9 
REMARK    3  A    between atoms: C_5  and  C_11 
REMARK    4  A    between atoms: C_11  and  C_12 
REMARK    5  A    between atoms: C_12  and  O_13 
REMARK    6  A    between atoms: C_14  and  O_13 
REMARK    7  A    between atoms: C_19  and  N_20 
REMARK    8  A    between atoms: C_23  and  O_25 
ROOT
HETATM    1  C   UNK N   1      27.459  24.819  -4.182  0.00  0.00     0.154 C 
HETATM    2  C   UNK N   1      25.980  26.322  -5.555  0.00  0.00     0.038 C 
HETATM    3  C   UNK N   1      25.841  25.219  -6.598  0.00  0.00     0.002 C 
HETATM    4  C   UNK N   1      25.917  23.864  -5.915  0.00  0.00     0.003 C 
HETATM    5  C   UNK N   1      27.268  23.725  -5.235  0.00  0.00     0.034 C 
HETATM    6  C   UNK N   1      27.325  26.235  -4.808  0.00  0.00     0.251 C 
ENDROOT
BRANCH   1   7
HETATM    7  O   UNK N   1      28.721  24.656  -3.610  0.00  0.00    -0.383 OA
BRANCH   7   8
HETATM    8  C   UNK N   1      28.659  23.474  -2.868  0.00  0.00     0.172 C 
BRANCH   8   9
HETATM    9  C   UNK N   1      30.064  23.135  -2.402  0.00  0.00     0.065 C 
BRANCH   9  10
HETATM   10  C   UNK N   1      30.772  22.149  -3.279  0.00  0.00    -0.053 A 
HETATM   11  C   UNK N   1      32.074  21.783  -2.947  0.00  0.00     0.046 A 
HETATM   12  C   UNK N   1      32.807  20.895  -3.754  0.00  0.00     0.102 A 
HETATM   13  C   UNK N   1      32.204  20.365  -4.928  0.00  0.00     0.101 A 
HETATM   14  C   UNK N   1      30.895  20.748  -5.251  0.00  0.00     0.040 A 
HETATM   15  C   UNK N   1      30.185  21.638  -4.441  0.00  0.00     0.010 A 
BRANCH  12  16
HETATM   16  O   UNK N   1      34.077  20.557  -3.416  0.00  0.00    -0.353 OA
HETATM   17  C   UNK N   1      35.192  21.128  -3.991  0.00  0.00     0.210 C 
ENDBRANCH  12  16
BRANCH  13  18
HETATM   18  O   UNK N   1      32.831  19.502  -5.769  0.00  0.00    -0.353 OA
HETATM   19  C   UNK N   1      33.279  19.802  -7.035  0.00  0.00     0.210 C 
ENDBRANCH  13  18
ENDBRANCH   9  10
ENDBRANCH   8   9
ENDBRANCH   7   8
ENDBRANCH   1   7
BRANCH   6  20
HETATM   20  N   UNK N   1      27.379  27.291  -3.778  0.00  0.00     0.098 N 
HETATM   21  C   UNK N   1      28.548  28.154  -3.940  0.00  0.00     0.275 C 
HETATM   22  C   UNK N   1      28.163  29.549  -3.471  0.00  0.00     0.064 C 
HETATM   23  C   UNK N   1      26.695  29.445  -3.154  0.00  0.00     0.148 C 
HETATM   24  C   UNK N   1      26.265  28.221  -3.917  0.00  0.00     0.304 C 
BRANCH  23  25
HETATM   25  O   UNK N   1      26.014  30.577  -3.600  0.00  0.00    -0.394 OA
HETATM   26  H   UNK N   1      25.541  31.254  -3.092  0.00  0.00     0.210 HD
ENDBRANCH  23  25
ENDBRANCH   6  20
TORSDOF 8
ENDMDL
MODEL 9
REMARK VINA RESULT:      -5.8      3.343      5.477
REMARK  8 active torsions:
REMARK  status: ('A' for Active; 'I' for Inactive)
REMARK    1  A    between atoms: C_2  and  O_7 
REMARK    2  A    between atoms: C_3  and  O_9 
REMARK    3  A    between atoms: C_5  and  C_11 
REMARK    4  A    between atoms: C_11  and  C_12 
REMARK    5  A    between atoms: C_12  and  O_13 
REMARK    6  A    between atoms: C_14  and  O_13 
REMARK    7  A    between atoms: C_19  and  N_20 
REMARK    8  A    between atoms: C_23  and  O_25 
ROOT
HETATM    1  C   UNK N   1      28.693  18.064   6.173  0.00  0.00     0.154 C 
HETATM    2  C   UNK N   1      30.308  17.253   7.924  0.00  0.00     0.038 C 
HETATM    3  C   UNK N   1      29.721  18.252   8.915  0.00  0.00     0.002 C 
HETATM    4  C   UNK N   1      28.247  18.463   8.609  0.00  0.00     0.003 C 
HETATM    5  C   UNK N   1      28.107  19.029   7.207  0.00  0.00     0.034 C 
HETATM    6  C   UNK N   1      30.186  17.754   6.472  0.00  0.00     0.251 C 
ENDROOT
BRANCH   1   7
HETATM    7  O   UNK N   1      28.557  18.645   4.912  0.00  0.00    -0.383 OA
BRANCH   7   8
HETATM    8  C   UNK N   1      27.713  19.745   5.081  0.00  0.00     0.172 C 
BRANCH   8   9
HETATM    9  C   UNK N   1      26.974  19.976   3.774  0.00  0.00     0.065 C 
BRANCH   9  10
HETATM   10  C   UNK N   1      25.530  19.585   3.817  0.00  0.00    -0.053 A 
HETATM   11  C   UNK N   1      24.600  20.414   3.194  0.00  0.00     0.046 A 
HETATM   12  C   UNK N   1      23.225  20.126   3.236  0.00  0.00     0.102 A 
HETATM   13  C   UNK N   1      22.781  18.964   3.928  0.00  0.00     0.101 A 
HETATM   14  C   UNK N   1      23.729  18.143   4.554  0.00  0.00     0.040 A 
HETATM   15  C   UNK N   1      25.090  18.451   4.508  0.00  0.00     0.010 A 
BRANCH  12  16
HETATM   16  O   UNK N   1      22.335  20.950   2.629  0.00  0.00    -0.353 OA
HETATM   17  C   UNK N   1      21.350  20.506   1.775  0.00  0.00     0.210 C 
ENDBRANCH  12  16
BRANCH  13  18
HETATM   18  O   UNK N   1      21.475  18.602   4.024  0.00  0.00    -0.353 OA
HETATM   19  C   UNK N   1      21.006  17.440   4.594  0.00  0.00     0.210 C 
ENDBRANCH  13  18
ENDBRANCH   9  10
ENDBRANCH   8   9
ENDBRANCH   7   8
ENDBRANCH   1   7
BRANCH   6  20
HETATM   20  N   UNK N   1      30.720  16.726   5.556  0.00  0.00     0.098 N 
HETATM   21  C   UNK N   1      32.182  16.702   5.553  0.00  0.00     0.275 C 
HETATM   22  C   UNK N   1      32.622  15.267   5.307  0.00  0.00     0.064 C 
HETATM   23  C   UNK N   1      31.338  14.480   5.292  0.00  0.00     0.148 C 
HETATM   24  C   UNK N   1      30.372  15.384   6.010  0.00  0.00     0.304 C 
BRANCH  23  25
HETATM   25  O   UNK N   1      31.493  13.274   5.975  0.00  0.00    -0.394 OA
HETATM   26  H   UNK N   1      32.254  12.672   6.002  0.00  0.00     0.210 HD
ENDBRANCH  23  25
ENDBRANCH   6  20
TORSDOF 8
ENDMDL
