MODEL 1
REMARK VINA RESULT:      -8.7      0.000      0.000
REMARK  16 active torsions:
REMARK  status: ('A' for Active; 'I' for Inactive)
REMARK    1  A    between atoms: C_31  and  C_16 
REMARK    2  A    between atoms: N_39  and  C_16 
REMARK    3  A    between atoms: C_26  and  C_17 
REMARK    4  A    between atoms: O_52  and  C_17 
REMARK    5  A    between atoms: C_35  and  C_19 
REMARK    6  A    between atoms: N_48  and  C_19 
REMARK    7  A    between atoms: C_33  and  C_22 
REMARK    8  A    between atoms: C_35  and  C_22 
REMARK    9  A    between atoms: N_47  and  C_23 
REMARK   10  A    between atoms: O_53  and  C_23 
REMARK   11  A    between atoms: C_30  and  C_25 
REMARK   12  A    between atoms: C_35  and  C_28 
REMARK   13  A    between atoms: O_52  and  C_31 
REMARK   14  A    between atoms: N_46  and  C_32 
REMARK       I    between atoms: N_46  and  C_34 
REMARK   15  A    between atoms: O_53  and  C_34 
REMARK   16  A    between atoms: C_35  and  O_51 
ROOT
HETATM    1  C   UNK N   1      22.191  19.422   3.467  0.00  0.00     0.023 A 
HETATM    2  C   UNK N   1      20.105  18.432   2.735  0.00  0.00     0.023 A 
HETATM    3  C   UNK N   1      22.259  18.514   4.533  0.00  0.00     0.015 A 
HETATM    4  C   UNK N   1      20.167  17.548   3.797  0.00  0.00     0.015 A 
HETATM    5  C   UNK N   1      20.908  20.417   1.607  0.00  0.00     0.099 C 
HETATM    6  C   UNK N   1      21.093  19.399   2.593  0.00  0.00     0.044 A 
HETATM    7  C   UNK N   1      21.221  17.601   4.719  0.00  0.00    -0.009 A 
HETATM    8  N   UNK N   1      20.723  21.223   0.797  0.00  0.00    -0.191 NA
ENDROOT
BRANCH   7   9
HETATM    9  C   UNK N   1      21.070  16.854   5.963  0.00  0.00     0.049 A 
HETATM   10  C   UNK N   1      20.634  17.362   7.206  0.00  0.00     0.081 A 
HETATM   11  S   UNK N   1      20.517  16.012   8.178  0.00  0.00    -0.086 SA
HETATM   12  C   UNK N   1      20.946  14.879   7.053  0.00  0.00     0.058 A 
HETATM   13  N   UNK N   1      21.226  15.500   5.907  0.00  0.00    -0.352 N 
ATOM     14  HN  UNK N   1      21.530  15.007   5.067  1.00  0.00     0.166 HD
BRANCH  12  15
HETATM   15  C   UNK N   1      21.121  13.414   7.265  0.00  0.00     0.080 C 
HETATM   16  C   UNK N   1      20.641  12.671   6.011  0.00  0.00     0.020 C 
BRANCH  15  17
HETATM   17  C   UNK N   1      22.538  12.849   7.735  0.00  0.00     0.115 C 
BRANCH  17  18
HETATM   18  C   UNK N   1      23.700  13.602   6.914  0.00  0.00     0.193 C 
BRANCH  18  19
HETATM   19  N   UNK N   1      24.862  12.763   6.467  0.00  0.00    -0.289 N 
HETATM   20  C   UNK N   1      25.947  13.403   6.054  0.00  0.00     0.179 C 
HETATM   21  N   UNK N   1      26.245  13.062   4.815  0.00  0.00    -0.211 NA
HETATM   22  C   UNK N   1      25.602  11.881   4.664  0.00  0.00     0.176 C 
HETATM   23  N   UNK N   1      24.679  11.748   5.637  0.00  0.00    -0.298 N 
ATOM     24  HN  UNK N   1      23.977  11.012   5.719  1.00  0.00     0.187 HD
BRANCH  21  25
HETATM   25  C   UNK N   1      25.703  14.145   3.955  0.00  0.00     0.214 C 
HETATM   26  C   UNK N   1      25.090  13.568   2.648  0.00  0.00     0.058 C 
BRANCH  25  27
HETATM   27  O   UNK N   1      26.639  15.070   3.706  0.00  0.00    -0.283 OA
BRANCH  27  28
HETATM   28  C   UNK N   1      26.433  16.383   3.765  0.00  0.00     0.369 C 
HETATM   29  N   UNK N   1      27.519  17.171   3.833  0.00  0.00    -0.283 N 
HETATM   30  C   UNK N   1      28.805  16.555   3.586  0.00  0.00     0.163 C 
HETATM   31  O   UNK N   1      25.294  16.840   3.825  0.00  0.00    -0.238 OA
BRANCH  29  32
HETATM   32  C   UNK N   1      27.420  18.470   4.385  0.00  0.00     0.119 A 
HETATM   33  C   UNK N   1      27.670  18.734   5.751  0.00  0.00     0.010 A 
HETATM   34  C   UNK N   1      27.375  20.006   6.238  0.00  0.00     0.014 A 
HETATM   35  C   UNK N   1      26.841  20.986   5.400  0.00  0.00     0.018 A 
HETATM   36  C   UNK N   1      26.630  20.697   4.060  0.00  0.00     0.089 A 
HETATM   37  N   UNK N   1      26.923  19.467   3.592  0.00  0.00    -0.352 N 
ATOM     38  HN  UNK N   1      26.766  19.271   2.603  1.00  0.00     0.166 HD
BRANCH  33  39
HETATM   39  C   UNK N   1      28.199  17.715   6.726  0.00  0.00     0.221 C 
BRANCH  39  40
HETATM   40  O   UNK N   1      28.470  18.261   7.969  0.00  0.00    -0.315 OA
BRANCH  40  41
HETATM   41  C   UNK N   1      28.855  17.497   9.025  0.00  0.00     0.276 C 
HETATM   42  O   UNK N   1      28.077  17.306   9.946  0.00  0.00    -0.263 OA
BRANCH  41  43
HETATM   43  C   UNK N   1      30.219  16.874   9.077  0.00  0.00     0.225 C 
BRANCH  43  44
HETATM   44  N   UNK N   1      31.237  17.910   9.038  0.00  0.00    -0.417 N 
HETATM   45  C   UNK N   1      32.043  17.655   7.859  0.00  0.00     0.140 C 
HETATM   46  H   UNK N   1      31.360  18.669   9.708  0.00  0.00     0.153 HD
ENDBRANCH  43  44
ENDBRANCH  41  43
ENDBRANCH  40  41
ENDBRANCH  39  40
ENDBRANCH  33  39
ENDBRANCH  29  32
ENDBRANCH  27  28
ENDBRANCH  25  27
ENDBRANCH  21  25
ENDBRANCH  18  19
ENDBRANCH  17  18
BRANCH  17  47
HETATM   47  C   UNK N   1      22.585  12.883   9.295  0.00  0.00     0.020 A 
HETATM   48  C   UNK N   1      21.362  12.751   9.952  0.00  0.00     0.055 A 
HETATM   49  C   UNK N   1      21.252  12.270  11.232  0.00  0.00     0.117 A 
HETATM   50  C   UNK N   1      22.388  11.886  11.930  0.00  0.00     0.045 A 
HETATM   51  F   UNK N   1      20.017  12.077  11.738  0.00  0.00    -0.206 F 
HETATM   52  C   UNK N   1      23.643  12.101  11.366  0.00  0.00     0.046 A 
HETATM   53  C   UNK N   1      23.763  12.613  10.069  0.00  0.00     0.126 A 
HETATM   54  F   UNK N   1      25.005  12.681   9.582  0.00  0.00    -0.205 F 
ENDBRANCH  17  47
BRANCH  17  55
HETATM   55  O   UNK N   1      22.504  11.473   7.494  0.00  0.00    -0.382 OA
HETATM   56  H   UNK N   1      22.179  10.674   7.051  0.00  0.00     0.211 HD
ENDBRANCH  17  55
ENDBRANCH  15  17
ENDBRANCH  12  15
ENDBRANCH   7   9
TORSDOF 16
ENDMDL
MODEL 2
REMARK VINA RESULT:      -8.4      3.240      7.027
REMARK  16 active torsions:
REMARK  status: ('A' for Active; 'I' for Inactive)
REMARK    1  A    between atoms: C_31  and  C_16 
REMARK    2  A    between atoms: N_39  and  C_16 
REMARK    3  A    between atoms: C_26  and  C_17 
REMARK    4  A    between atoms: O_52  and  C_17 
REMARK    5  A    between atoms: C_35  and  C_19 
REMARK    6  A    between atoms: N_48  and  C_19 
REMARK    7  A    between atoms: C_33  and  C_22 
REMARK    8  A    between atoms: C_35  and  C_22 
REMARK    9  A    between atoms: N_47  and  C_23 
REMARK   10  A    between atoms: O_53  and  C_23 
REMARK   11  A    between atoms: C_30  and  C_25 
REMARK   12  A    between atoms: C_35  and  C_28 
REMARK   13  A    between atoms: O_52  and  C_31 
REMARK   14  A    between atoms: N_46  and  C_32 
REMARK       I    between atoms: N_46  and  C_34 
REMARK   15  A    between atoms: O_53  and  C_34 
REMARK   16  A    between atoms: C_35  and  O_51 
ROOT
HETATM    1  C   UNK N   1      21.707  12.339  10.948  0.00  0.00     0.023 A 
HETATM    2  C   UNK N   1      24.083  12.292  10.479  0.00  0.00     0.023 A 
HETATM    3  C   UNK N   1      21.438  12.641   9.607  0.00  0.00     0.015 A 
HETATM    4  C   UNK N   1      23.815  12.605   9.158  0.00  0.00     0.015 A 
HETATM    5  C   UNK N   1      23.348  12.068  12.774  0.00  0.00     0.099 C 
HETATM    6  C   UNK N   1      23.034  12.203  11.385  0.00  0.00     0.044 A 
HETATM    7  C   UNK N   1      22.501  12.813   8.719  0.00  0.00    -0.009 A 
HETATM    8  N   UNK N   1      23.643  11.959  13.887  0.00  0.00    -0.191 NA
ENDROOT
BRANCH   7   9
HETATM    9  C   UNK N   1      22.313  13.427   7.409  0.00  0.00     0.049 A 
HETATM   10  C   UNK N   1      22.259  12.763   6.164  0.00  0.00     0.081 A 
HETATM   11  S   UNK N   1      21.867  13.966   5.078  0.00  0.00    -0.086 SA
HETATM   12  C   UNK N   1      21.733  15.214   6.155  0.00  0.00     0.058 A 
HETATM   13  N   UNK N   1      22.017  14.759   7.374  0.00  0.00    -0.352 N 
ATOM     14  HN  UNK N   1      22.014  15.351   8.204  1.00  0.00     0.166 HD
BRANCH  12  15
HETATM   15  C   UNK N   1      21.460  16.648   5.849  0.00  0.00     0.080 C 
HETATM   16  C   UNK N   1      20.764  17.288   7.056  0.00  0.00     0.020 C 
BRANCH  15  17
HETATM   17  C   UNK N   1      22.647  17.582   5.332  0.00  0.00     0.115 C 
BRANCH  17  18
HETATM   18  C   UNK N   1      24.011  16.729   5.304  0.00  0.00     0.193 C 
BRANCH  18  19
HETATM   19  N   UNK N   1      24.616  16.466   3.956  0.00  0.00    -0.289 N 
HETATM   20  C   UNK N   1      24.921  15.210   3.663  0.00  0.00     0.179 C 
HETATM   21  N   UNK N   1      26.205  15.097   3.381  0.00  0.00    -0.211 NA
HETATM   22  C   UNK N   1      26.556  16.364   3.060  0.00  0.00     0.176 C 
HETATM   23  N   UNK N   1      25.611  17.214   3.507  0.00  0.00    -0.298 N 
ATOM     24  HN  UNK N   1      25.653  18.234   3.501  1.00  0.00     0.187 HD
BRANCH  21  25
HETATM   25  C   UNK N   1      26.851  14.599   4.622  0.00  0.00     0.214 C 
HETATM   26  C   UNK N   1      25.821  13.875   5.536  0.00  0.00     0.058 C 
BRANCH  25  27
HETATM   27  O   UNK N   1      27.482  15.590   5.264  0.00  0.00    -0.283 OA
BRANCH  27  28
HETATM   28  C   UNK N   1      28.785  15.601   5.534  0.00  0.00     0.369 C 
HETATM   29  N   UNK N   1      29.363  16.800   5.712  0.00  0.00    -0.283 N 
HETATM   30  C   UNK N   1      28.491  17.948   5.843  0.00  0.00     0.163 C 
HETATM   31  O   UNK N   1      29.435  14.558   5.548  0.00  0.00    -0.238 OA
BRANCH  29  32
HETATM   32  C   UNK N   1      30.754  16.955   5.505  0.00  0.00     0.119 A 
HETATM   33  C   UNK N   1      31.654  17.211   6.565  0.00  0.00     0.010 A 
HETATM   34  C   UNK N   1      32.974  17.524   6.244  0.00  0.00     0.014 A 
HETATM   35  C   UNK N   1      33.390  17.589   4.913  0.00  0.00     0.018 A 
HETATM   36  C   UNK N   1      32.485  17.309   3.901  0.00  0.00     0.089 A 
HETATM   37  N   UNK N   1      31.210  17.001   4.217  0.00  0.00    -0.352 N 
ATOM     38  HN  UNK N   1      30.556  16.793   3.461  1.00  0.00     0.166 HD
BRANCH  33  39
HETATM   39  C   UNK N   1      31.269  17.206   8.021  0.00  0.00     0.221 C 
BRANCH  39  40
HETATM   40  O   UNK N   1      31.337  15.944   8.584  0.00  0.00    -0.315 OA
BRANCH  40  41
HETATM   41  C   UNK N   1      32.522  15.323   8.825  0.00  0.00     0.276 C 
HETATM   42  O   UNK N   1      33.421  15.934   9.383  0.00  0.00    -0.263 OA
BRANCH  41  43
HETATM   43  C   UNK N   1      32.746  13.895   8.426  0.00  0.00     0.225 C 
BRANCH  43  44
HETATM   44  N   UNK N   1      33.723  13.829   7.352  0.00  0.00    -0.417 N 
HETATM   45  C   UNK N   1      32.973  13.787   6.112  0.00  0.00     0.140 C 
HETATM   46  H   UNK N   1      34.738  13.817   7.452  0.00  0.00     0.153 HD
ENDBRANCH  43  44
ENDBRANCH  41  43
ENDBRANCH  40  41
ENDBRANCH  39  40
ENDBRANCH  33  39
ENDBRANCH  29  32
ENDBRANCH  27  28
ENDBRANCH  25  27
ENDBRANCH  21  25
ENDBRANCH  18  19
ENDBRANCH  17  18
BRANCH  17  47
HETATM   47  C   UNK N   1      22.180  18.286   4.019  0.00  0.00     0.020 A 
HETATM   48  C   UNK N   1      20.886  17.994   3.590  0.00  0.00     0.055 A 
HETATM   49  C   UNK N   1      20.153  18.844   2.802  0.00  0.00     0.117 A 
HETATM   50  C   UNK N   1      20.693  20.058   2.399  0.00  0.00     0.045 A 
HETATM   51  F   UNK N   1      18.872  18.521   2.531  0.00  0.00    -0.206 F 
HETATM   52  C   UNK N   1      22.019  20.351   2.705  0.00  0.00     0.046 A 
HETATM   53  C   UNK N   1      22.780  19.477   3.489  0.00  0.00     0.126 A 
HETATM   54  F   UNK N   1      24.005  19.901   3.813  0.00  0.00    -0.205 F 
ENDBRANCH  17  47
BRANCH  17  55
HETATM   55  O   UNK N   1      22.698  18.663   6.217  0.00  0.00    -0.382 OA
HETATM   56  H   UNK N   1      22.889  19.083   7.070  0.00  0.00     0.211 HD
ENDBRANCH  17  55
ENDBRANCH  15  17
ENDBRANCH  12  15
ENDBRANCH   7   9
TORSDOF 16
ENDMDL
MODEL 3
REMARK VINA RESULT:      -8.4      1.891      2.649
REMARK  16 active torsions:
REMARK  status: ('A' for Active; 'I' for Inactive)
REMARK    1  A    between atoms: C_31  and  C_16 
REMARK    2  A    between atoms: N_39  and  C_16 
REMARK    3  A    between atoms: C_26  and  C_17 
REMARK    4  A    between atoms: O_52  and  C_17 
REMARK    5  A    between atoms: C_35  and  C_19 
REMARK    6  A    between atoms: N_48  and  C_19 
REMARK    7  A    between atoms: C_33  and  C_22 
REMARK    8  A    between atoms: C_35  and  C_22 
REMARK    9  A    between atoms: N_47  and  C_23 
REMARK   10  A    between atoms: O_53  and  C_23 
REMARK   11  A    between atoms: C_30  and  C_25 
REMARK   12  A    between atoms: C_35  and  C_28 
REMARK   13  A    between atoms: O_52  and  C_31 
REMARK   14  A    between atoms: N_46  and  C_32 
REMARK       I    between atoms: N_46  and  C_34 
REMARK   15  A    between atoms: O_53  and  C_34 
REMARK   16  A    between atoms: C_35  and  O_51 
ROOT
HETATM    1  C   UNK N   1      20.412  18.004   2.084  0.00  0.00     0.023 A 
HETATM    2  C   UNK N   1      20.827  20.001   3.390  0.00  0.00     0.023 A 
HETATM    3  C   UNK N   1      20.329  17.242   3.257  0.00  0.00     0.015 A 
HETATM    4  C   UNK N   1      20.759  19.243   4.546  0.00  0.00     0.015 A 
HETATM    5  C   UNK N   1      20.961  20.143   0.978  0.00  0.00     0.099 C 
HETATM    6  C   UNK N   1      20.698  19.376   2.156  0.00  0.00     0.044 A 
HETATM    7  C   UNK N   1      20.543  17.860   4.489  0.00  0.00    -0.009 A 
HETATM    8  N   UNK N   1      21.181  20.796   0.049  0.00  0.00    -0.191 NA
ENDROOT
BRANCH   7   9
HETATM    9  C   UNK N   1      20.782  17.087   5.703  0.00  0.00     0.049 A 
HETATM   10  C   UNK N   1      20.821  17.581   7.025  0.00  0.00     0.081 A 
HETATM   11  S   UNK N   1      20.964  16.211   7.967  0.00  0.00    -0.086 SA
HETATM   12  C   UNK N   1      20.922  15.090   6.751  0.00  0.00     0.058 A 
HETATM   13  N   UNK N   1      20.833  15.729   5.585  0.00  0.00    -0.352 N 
ATOM     14  HN  UNK N   1      20.806  15.245   4.687  1.00  0.00     0.166 HD
BRANCH  12  15
HETATM   15  C   UNK N   1      21.075  13.613   6.877  0.00  0.00     0.080 C 
HETATM   16  C   UNK N   1      20.527  12.948   5.608  0.00  0.00     0.020 C 
BRANCH  15  17
HETATM   17  C   UNK N   1      22.499  12.998   7.255  0.00  0.00     0.115 C 
BRANCH  17  18
HETATM   18  C   UNK N   1      23.632  13.719   6.368  0.00  0.00     0.193 C 
BRANCH  18  19
HETATM   19  N   UNK N   1      24.385  12.852   5.400  0.00  0.00    -0.289 N 
HETATM   20  C   UNK N   1      25.695  13.030   5.320  0.00  0.00     0.179 C 
HETATM   21  N   UNK N   1      26.048  13.344   4.088  0.00  0.00    -0.211 NA
HETATM   22  C   UNK N   1      25.003  12.898   3.352  0.00  0.00     0.176 C 
HETATM   23  N   UNK N   1      23.946  12.689   4.161  0.00  0.00    -0.298 N 
ATOM     24  HN  UNK N   1      22.995  12.452   3.877  1.00  0.00     0.187 HD
BRANCH  21  25
HETATM   25  C   UNK N   1      26.198  14.821   4.072  0.00  0.00     0.214 C 
HETATM   26  C   UNK N   1      25.800  15.409   2.689  0.00  0.00     0.058 C 
BRANCH  25  27
HETATM   27  O   UNK N   1      27.436  15.180   4.433  0.00  0.00    -0.283 OA
BRANCH  27  28
HETATM   28  C   UNK N   1      27.722  16.233   5.194  0.00  0.00     0.369 C 
HETATM   29  N   UNK N   1      28.827  16.158   5.954  0.00  0.00    -0.283 N 
HETATM   30  C   UNK N   1      29.737  15.062   5.699  0.00  0.00     0.163 C 
HETATM   31  O   UNK N   1      26.964  17.199   5.244  0.00  0.00    -0.238 OA
BRANCH  29  32
HETATM   32  C   UNK N   1      28.944  16.956   7.116  0.00  0.00     0.119 A 
HETATM   33  C   UNK N   1      30.185  17.466   7.564  0.00  0.00     0.010 A 
HETATM   34  C   UNK N   1      30.227  18.089   8.810  0.00  0.00     0.014 A 
HETATM   35  C   UNK N   1      29.077  18.198   9.594  0.00  0.00     0.018 A 
HETATM   36  C   UNK N   1      27.874  17.707   9.112  0.00  0.00     0.089 A 
HETATM   37  N   UNK N   1      27.836  17.110   7.902  0.00  0.00    -0.352 N 
ATOM     38  HN  UNK N   1      26.943  16.757   7.560  1.00  0.00     0.166 HD
BRANCH  33  39
HETATM   39  C   UNK N   1      31.476  17.344   6.797  0.00  0.00     0.221 C 
BRANCH  39  40
HETATM   40  O   UNK N   1      32.582  17.654   7.568  0.00  0.00    -0.315 OA
BRANCH  40  41
HETATM   41  C   UNK N   1      33.839  17.283   7.210  0.00  0.00     0.276 C 
HETATM   42  O   UNK N   1      34.412  17.883   6.313  0.00  0.00    -0.263 OA
BRANCH  41  43
HETATM   43  C   UNK N   1      34.545  16.156   7.902  0.00  0.00     0.225 C 
BRANCH  43  44
HETATM   44  N   UNK N   1      34.135  16.100   9.296  0.00  0.00    -0.417 N 
HETATM   45  C   UNK N   1      35.150  16.805  10.055  0.00  0.00     0.140 C 
HETATM   46  H   UNK N   1      33.297  15.653   9.667  0.00  0.00     0.153 HD
ENDBRANCH  43  44
ENDBRANCH  41  43
ENDBRANCH  40  41
ENDBRANCH  39  40
ENDBRANCH  33  39
ENDBRANCH  29  32
ENDBRANCH  27  28
ENDBRANCH  25  27
ENDBRANCH  21  25
ENDBRANCH  18  19
ENDBRANCH  17  18
BRANCH  17  47
HETATM   47  C   UNK N   1      22.644  13.016   8.808  0.00  0.00     0.020 A 
HETATM   48  C   UNK N   1      21.472  12.827   9.540  0.00  0.00     0.055 A 
HETATM   49  C   UNK N   1      21.462  12.328  10.817  0.00  0.00     0.117 A 
HETATM   50  C   UNK N   1      22.655  11.983  11.437  0.00  0.00     0.045 A 
HETATM   51  F   UNK N   1      20.271  12.080  11.398  0.00  0.00    -0.206 F 
HETATM   52  C   UNK N   1      23.862  12.255  10.798  0.00  0.00     0.046 A 
HETATM   53  C   UNK N   1      23.879  12.785   9.503  0.00  0.00     0.126 A 
HETATM   54  F   UNK N   1      25.084  12.909   8.940  0.00  0.00    -0.205 F 
ENDBRANCH  17  47
BRANCH  17  55
HETATM   55  O   UNK N   1      22.404  11.625   7.006  0.00  0.00    -0.382 OA
HETATM   56  H   UNK N   1      22.697  10.788   6.614  0.00  0.00     0.211 HD
ENDBRANCH  17  55
ENDBRANCH  15  17
ENDBRANCH  12  15
ENDBRANCH   7   9
TORSDOF 16
ENDMDL
MODEL 4
REMARK VINA RESULT:      -8.4      2.178      3.415
REMARK  16 active torsions:
REMARK  status: ('A' for Active; 'I' for Inactive)
REMARK    1  A    between atoms: C_31  and  C_16 
REMARK    2  A    between atoms: N_39  and  C_16 
REMARK    3  A    between atoms: C_26  and  C_17 
REMARK    4  A    between atoms: O_52  and  C_17 
REMARK    5  A    between atoms: C_35  and  C_19 
REMARK    6  A    between atoms: N_48  and  C_19 
REMARK    7  A    between atoms: C_33  and  C_22 
REMARK    8  A    between atoms: C_35  and  C_22 
REMARK    9  A    between atoms: N_47  and  C_23 
REMARK   10  A    between atoms: O_53  and  C_23 
REMARK   11  A    between atoms: C_30  and  C_25 
REMARK   12  A    between atoms: C_35  and  C_28 
REMARK   13  A    between atoms: O_52  and  C_31 
REMARK   14  A    between atoms: N_46  and  C_32 
REMARK       I    between atoms: N_46  and  C_34 
REMARK   15  A    between atoms: O_53  and  C_34 
REMARK   16  A    between atoms: C_35  and  O_51 
ROOT
HETATM    1  C   UNK N   1      20.241  18.094   2.013  0.00  0.00     0.023 A 
HETATM    2  C   UNK N   1      21.222  19.848   3.362  0.00  0.00     0.023 A 
HETATM    3  C   UNK N   1      20.281  17.217   3.105  0.00  0.00     0.015 A 
HETATM    4  C   UNK N   1      21.275  18.977   4.436  0.00  0.00     0.015 A 
HETATM    5  C   UNK N   1      20.880  20.253   1.001  0.00  0.00     0.099 C 
HETATM    6  C   UNK N   1      20.747  19.396   2.138  0.00  0.00     0.044 A 
HETATM    7  C   UNK N   1      20.837  17.652   4.309  0.00  0.00    -0.009 A 
HETATM    8  N   UNK N   1      21.005  20.976   0.106  0.00  0.00    -0.191 NA
ENDROOT
BRANCH   7   9
HETATM    9  C   UNK N   1      21.194  16.716   5.370  0.00  0.00     0.049 A 
HETATM   10  C   UNK N   1      21.055  16.922   6.760  0.00  0.00     0.081 A 
HETATM   11  S   UNK N   1      21.473  15.454   7.432  0.00  0.00    -0.086 SA
HETATM   12  C   UNK N   1      21.753  14.628   6.027  0.00  0.00     0.058 A 
HETATM   13  N   UNK N   1      21.569  15.458   5.001  0.00  0.00    -0.352 N 
ATOM     14  HN  UNK N   1      21.698  15.177   4.028  1.00  0.00     0.166 HD
BRANCH  12  15
HETATM   15  C   UNK N   1      22.243  13.227   5.883  0.00  0.00     0.080 C 
HETATM   16  C   UNK N   1      21.641  12.621   4.609  0.00  0.00     0.020 C 
BRANCH  15  17
HETATM   17  C   UNK N   1      23.810  12.931   5.951  0.00  0.00     0.115 C 
BRANCH  17  18
HETATM   18  C   UNK N   1      24.611  14.216   5.403  0.00  0.00     0.193 C 
BRANCH  18  19
HETATM   19  N   UNK N   1      25.107  14.148   3.988  0.00  0.00    -0.289 N 
HETATM   20  C   UNK N   1      26.376  14.464   3.776  0.00  0.00     0.179 C 
HETATM   21  N   UNK N   1      26.470  15.466   2.922  0.00  0.00    -0.211 NA
HETATM   22  C   UNK N   1      25.277  15.433   2.286  0.00  0.00     0.176 C 
HETATM   23  N   UNK N   1      24.409  14.693   3.004  0.00  0.00    -0.298 N 
ATOM     24  HN  UNK N   1      23.411  14.576   2.825  1.00  0.00     0.187 HD
BRANCH  21  25
HETATM   25  C   UNK N   1      26.668  16.684   3.749  0.00  0.00     0.214 C 
HETATM   26  C   UNK N   1      25.810  17.866   3.216  0.00  0.00     0.058 C 
BRANCH  25  27
HETATM   27  O   UNK N   1      27.967  17.001   3.828  0.00  0.00    -0.283 OA
BRANCH  27  28
HETATM   28  C   UNK N   1      28.517  17.672   4.838  0.00  0.00     0.369 C 
HETATM   29  N   UNK N   1      29.087  16.948   5.814  0.00  0.00    -0.283 N 
HETATM   30  C   UNK N   1      29.277  15.534   5.572  0.00  0.00     0.163 C 
HETATM   31  O   UNK N   1      28.438  18.897   4.897  0.00  0.00    -0.238 OA
BRANCH  29  32
HETATM   32  C   UNK N   1      29.238  17.498   7.109  0.00  0.00     0.119 A 
HETATM   33  C   UNK N   1      30.502  17.669   7.718  0.00  0.00     0.010 A 
HETATM   34  C   UNK N   1      30.539  18.051   9.058  0.00  0.00     0.014 A 
HETATM   35  C   UNK N   1      29.360  18.252   9.777  0.00  0.00     0.018 A 
HETATM   36  C   UNK N   1      28.138  18.097   9.140  0.00  0.00     0.089 A 
HETATM   37  N   UNK N   1      28.107  17.733   7.841  0.00  0.00    -0.352 N 
ATOM     38  HN  UNK N   1      27.201  17.628   7.386  1.00  0.00     0.166 HD
BRANCH  33  39
HETATM   39  C   UNK N   1      31.816  17.425   7.022  0.00  0.00     0.221 C 
BRANCH  39  40
HETATM   40  O   UNK N   1      32.753  16.832   7.850  0.00  0.00    -0.315 OA
BRANCH  40  41
HETATM   41  C   UNK N   1      34.002  17.343   8.010  0.00  0.00     0.276 C 
HETATM   42  O   UNK N   1      34.522  17.962   7.094  0.00  0.00    -0.263 OA
BRANCH  41  43
HETATM   43  C   UNK N   1      34.755  17.169   9.295  0.00  0.00     0.225 C 
BRANCH  43  44
HETATM   44  N   UNK N   1      35.200  15.792   9.424  0.00  0.00    -0.417 N 
HETATM   45  C   UNK N   1      34.410  15.198  10.486  0.00  0.00     0.140 C 
HETATM   46  H   UNK N   1      35.926  15.332   8.874  0.00  0.00     0.153 HD
ENDBRANCH  43  44
ENDBRANCH  41  43
ENDBRANCH  40  41
ENDBRANCH  39  40
ENDBRANCH  33  39
ENDBRANCH  29  32
ENDBRANCH  27  28
ENDBRANCH  25  27
ENDBRANCH  21  25
ENDBRANCH  18  19
ENDBRANCH  17  18
BRANCH  17  47
HETATM   47  C   UNK N   1      24.146  12.397   7.379  0.00  0.00     0.020 A 
HETATM   48  C   UNK N   1      24.985  13.195   8.155  0.00  0.00     0.055 A 
HETATM   49  C   UNK N   1      24.985  13.163   9.526  0.00  0.00     0.117 A 
HETATM   50  C   UNK N   1      24.122  12.311  10.202  0.00  0.00     0.045 A 
HETATM   51  F   UNK N   1      25.754  14.053  10.186  0.00  0.00    -0.206 F 
HETATM   52  C   UNK N   1      23.343  11.412   9.478  0.00  0.00     0.046 A 
HETATM   53  C   UNK N   1      23.356  11.424   8.079  0.00  0.00     0.126 A 
HETATM   54  F   UNK N   1      22.494  10.595   7.482  0.00  0.00    -0.205 F 
ENDBRANCH  17  47
BRANCH  17  55
HETATM   55  O   UNK N   1      24.020  11.787   5.176  0.00  0.00    -0.382 OA
HETATM   56  H   UNK N   1      23.954  10.838   4.987  0.00  0.00     0.211 HD
ENDBRANCH  17  55
ENDBRANCH  15  17
ENDBRANCH  12  15
ENDBRANCH   7   9
TORSDOF 16
ENDMDL
MODEL 5
REMARK VINA RESULT:      -8.3      1.238      2.880
REMARK  16 active torsions:
REMARK  status: ('A' for Active; 'I' for Inactive)
REMARK    1  A    between atoms: C_31  and  C_16 
REMARK    2  A    between atoms: N_39  and  C_16 
REMARK    3  A    between atoms: C_26  and  C_17 
REMARK    4  A    between atoms: O_52  and  C_17 
REMARK    5  A    between atoms: C_35  and  C_19 
REMARK    6  A    between atoms: N_48  and  C_19 
REMARK    7  A    between atoms: C_33  and  C_22 
REMARK    8  A    between atoms: C_35  and  C_22 
REMARK    9  A    between atoms: N_47  and  C_23 
REMARK   10  A    between atoms: O_53  and  C_23 
REMARK   11  A    between atoms: C_30  and  C_25 
REMARK   12  A    between atoms: C_35  and  C_28 
REMARK   13  A    between atoms: O_52  and  C_31 
REMARK   14  A    between atoms: N_46  and  C_32 
REMARK       I    between atoms: N_46  and  C_34 
REMARK   15  A    between atoms: O_53  and  C_34 
REMARK   16  A    between atoms: C_35  and  O_51 
ROOT
HETATM    1  C   UNK N   1      22.208  19.521   3.305  0.00  0.00     0.023 A 
HETATM    2  C   UNK N   1      20.092  18.545   2.644  0.00  0.00     0.023 A 
HETATM    3  C   UNK N   1      22.288  18.637   4.390  0.00  0.00     0.015 A 
HETATM    4  C   UNK N   1      20.166  17.684   3.725  0.00  0.00     0.015 A 
HETATM    5  C   UNK N   1      20.895  20.492   1.453  0.00  0.00     0.099 C 
HETATM    6  C   UNK N   1      21.089  19.494   2.458  0.00  0.00     0.044 A 
HETATM    7  C   UNK N   1      21.242  17.743   4.621  0.00  0.00    -0.009 A 
HETATM    8  N   UNK N   1      20.702  21.281   0.629  0.00  0.00    -0.191 NA
ENDROOT
BRANCH   7   9
HETATM    9  C   UNK N   1      21.110  17.027   5.885  0.00  0.00     0.049 A 
HETATM   10  C   UNK N   1      20.731  17.574   7.130  0.00  0.00     0.081 A 
HETATM   11  S   UNK N   1      20.605  16.248   8.135  0.00  0.00    -0.086 SA
HETATM   12  C   UNK N   1      20.962  15.080   7.021  0.00  0.00     0.058 A 
HETATM   13  N   UNK N   1      21.223  15.668   5.854  0.00  0.00    -0.352 N 
ATOM     14  HN  UNK N   1      21.483  15.149   5.015  1.00  0.00     0.166 HD
BRANCH  12  15
HETATM   15  C   UNK N   1      21.099  13.614   7.259  0.00  0.00     0.080 C 
HETATM   16  C   UNK N   1      20.498  12.861   6.065  0.00  0.00     0.020 C 
BRANCH  15  17
HETATM   17  C   UNK N   1      22.526  13.008   7.636  0.00  0.00     0.115 C 
BRANCH  17  18
HETATM   18  C   UNK N   1      23.662  13.783   6.799  0.00  0.00     0.193 C 
BRANCH  18  19
HETATM   19  N   UNK N   1      24.213  13.076   5.595  0.00  0.00    -0.289 N 
HETATM   20  C   UNK N   1      25.507  13.219   5.348  0.00  0.00     0.179 C 
HETATM   21  N   UNK N   1      25.699  13.734   4.149  0.00  0.00    -0.211 NA
HETATM   22  C   UNK N   1      24.534  13.464   3.516  0.00  0.00     0.176 C 
HETATM   23  N   UNK N   1      23.593  13.152   4.428  0.00  0.00    -0.298 N 
ATOM     24  HN  UNK N   1      22.598  13.003   4.255  1.00  0.00     0.187 HD
BRANCH  21  25
HETATM   25  C   UNK N   1      25.935  15.184   4.364  0.00  0.00     0.214 C 
HETATM   26  C   UNK N   1      25.392  16.022   3.172  0.00  0.00     0.058 C 
BRANCH  25  27
HETATM   27  O   UNK N   1      27.231  15.427   4.599  0.00  0.00    -0.283 OA
BRANCH  27  28
HETATM   28  C   UNK N   1      27.703  15.967   5.720  0.00  0.00     0.369 C 
HETATM   29  N   UNK N   1      28.676  16.884   5.594  0.00  0.00    -0.283 N 
HETATM   30  C   UNK N   1      28.951  17.387   4.265  0.00  0.00     0.163 C 
HETATM   31  O   UNK N   1      27.308  15.584   6.819  0.00  0.00    -0.238 OA
BRANCH  29  32
HETATM   32  C   UNK N   1      29.559  17.133   6.672  0.00  0.00     0.119 A 
HETATM   33  C   UNK N   1      29.238  18.017   7.727  0.00  0.00     0.010 A 
HETATM   34  C   UNK N   1      30.238  18.333   8.645  0.00  0.00     0.014 A 
HETATM   35  C   UNK N   1      31.520  17.797   8.519  0.00  0.00     0.018 A 
HETATM   36  C   UNK N   1      31.792  16.916   7.484  0.00  0.00     0.089 A 
HETATM   37  N   UNK N   1      30.820  16.607   6.601  0.00  0.00    -0.352 N 
ATOM     38  HN  UNK N   1      31.034  15.954   5.848  1.00  0.00     0.166 HD
BRANCH  33  39
HETATM   39  C   UNK N   1      27.893  18.672   7.902  0.00  0.00     0.221 C 
BRANCH  39  40
HETATM   40  O   UNK N   1      27.892  19.997   7.504  0.00  0.00    -0.315 OA
BRANCH  40  41
HETATM   41  C   UNK N   1      27.392  20.390   6.303  0.00  0.00     0.276 C 
HETATM   42  O   UNK N   1      27.793  21.425   5.793  0.00  0.00    -0.263 OA
BRANCH  41  43
HETATM   43  C   UNK N   1      26.361  19.572   5.583  0.00  0.00     0.225 C 
BRANCH  43  44
HETATM   44  N   UNK N   1      25.682  20.392   4.594  0.00  0.00    -0.417 N 
HETATM   45  C   UNK N   1      25.885  19.748   3.311  0.00  0.00     0.140 C 
HETATM   46  H   UNK N   1      25.163  21.253   4.770  0.00  0.00     0.153 HD
ENDBRANCH  43  44
ENDBRANCH  41  43
ENDBRANCH  40  41
ENDBRANCH  39  40
ENDBRANCH  33  39
ENDBRANCH  29  32
ENDBRANCH  27  28
ENDBRANCH  25  27
ENDBRANCH  21  25
ENDBRANCH  18  19
ENDBRANCH  17  18
BRANCH  17  47
HETATM   47  C   UNK N   1      22.644  12.965   9.192  0.00  0.00     0.020 A 
HETATM   48  C   UNK N   1      21.452  12.805   9.897  0.00  0.00     0.055 A 
HETATM   49  C   UNK N   1      21.397  12.263  11.155  0.00  0.00     0.117 A 
HETATM   50  C   UNK N   1      22.562  11.842  11.782  0.00  0.00     0.045 A 
HETATM   51  F   UNK N   1      20.186  12.050  11.707  0.00  0.00    -0.206 F 
HETATM   52  C   UNK N   1      23.791  12.079  11.172  0.00  0.00     0.046 A 
HETATM   53  C   UNK N   1      23.855  12.654   9.898  0.00  0.00     0.126 A 
HETATM   54  F   UNK N   1      25.074  12.741   9.358  0.00  0.00    -0.205 F 
ENDBRANCH  17  47
BRANCH  17  55
HETATM   55  O   UNK N   1      22.459  11.645   7.331  0.00  0.00    -0.382 OA
HETATM   56  H   UNK N   1      22.102  10.873   6.866  0.00  0.00     0.211 HD
ENDBRANCH  17  55
ENDBRANCH  15  17
ENDBRANCH  12  15
ENDBRANCH   7   9
TORSDOF 16
ENDMDL
MODEL 6
REMARK VINA RESULT:      -8.3      3.142      8.897
REMARK  16 active torsions:
REMARK  status: ('A' for Active; 'I' for Inactive)
REMARK    1  A    between atoms: C_31  and  C_16 
REMARK    2  A    between atoms: N_39  and  C_16 
REMARK    3  A    between atoms: C_26  and  C_17 
REMARK    4  A    between atoms: O_52  and  C_17 
REMARK    5  A    between atoms: C_35  and  C_19 
REMARK    6  A    between atoms: N_48  and  C_19 
REMARK    7  A    between atoms: C_33  and  C_22 
REMARK    8  A    between atoms: C_35  and  C_22 
REMARK    9  A    between atoms: N_47  and  C_23 
REMARK   10  A    between atoms: O_53  and  C_23 
REMARK   11  A    between atoms: C_30  and  C_25 
REMARK   12  A    between atoms: C_35  and  C_28 
REMARK   13  A    between atoms: O_52  and  C_31 
REMARK   14  A    between atoms: N_46  and  C_32 
REMARK       I    between atoms: N_46  and  C_34 
REMARK   15  A    between atoms: O_53  and  C_34 
REMARK   16  A    between atoms: C_35  and  O_51 
ROOT
HETATM    1  C   UNK N   1      24.807  13.782   8.940  0.00  0.00     0.023 A 
HETATM    2  C   UNK N   1      24.060  11.753   7.850  0.00  0.00     0.023 A 
HETATM    3  C   UNK N   1      25.379  14.228   7.740  0.00  0.00     0.015 A 
HETATM    4  C   UNK N   1      24.639  12.188   6.671  0.00  0.00     0.015 A 
HETATM    5  C   UNK N   1      23.745  11.972  10.239  0.00  0.00     0.099 C 
HETATM    6  C   UNK N   1      24.182  12.527   8.996  0.00  0.00     0.044 A 
HETATM    7  C   UNK N   1      25.328  13.407   6.613  0.00  0.00    -0.009 A 
HETATM    8  N   UNK N   1      23.379  11.487  11.224  0.00  0.00    -0.191 NA
ENDROOT
BRANCH   7   9
HETATM    9  C   UNK N   1      26.159  13.660   5.442  0.00  0.00     0.049 A 
HETATM   10  C   UNK N   1      25.851  13.342   4.101  0.00  0.00     0.081 A 
HETATM   11  S   UNK N   1      27.099  14.018   3.225  0.00  0.00    -0.086 SA
HETATM   12  C   UNK N   1      27.922  14.701   4.486  0.00  0.00     0.058 A 
HETATM   13  N   UNK N   1      27.289  14.405   5.620  0.00  0.00    -0.352 N 
ATOM     14  HN  UNK N   1      27.619  14.707   6.537  1.00  0.00     0.166 HD
BRANCH  12  15
HETATM   15  C   UNK N   1      29.221  15.432   4.429  0.00  0.00     0.080 C 
HETATM   16  C   UNK N   1      29.899  15.131   3.086  0.00  0.00     0.020 C 
BRANCH  15  17
HETATM   17  C   UNK N   1      29.256  16.999   4.730  0.00  0.00     0.115 C 
BRANCH  17  18
HETATM   18  C   UNK N   1      27.746  17.551   4.808  0.00  0.00     0.193 C 
BRANCH  18  19
HETATM   19  N   UNK N   1      27.573  19.042   4.829  0.00  0.00    -0.289 N 
HETATM   20  C   UNK N   1      26.478  19.517   5.404  0.00  0.00     0.179 C 
HETATM   21  N   UNK N   1      25.782  20.244   4.551  0.00  0.00    -0.211 NA
HETATM   22  C   UNK N   1      26.702  20.573   3.615  0.00  0.00     0.176 C 
HETATM   23  N   UNK N   1      27.769  19.758   3.733  0.00  0.00    -0.298 N 
ATOM     24  HN  UNK N   1      28.569  19.703   3.102  1.00  0.00     0.187 HD
BRANCH  21  25
HETATM   25  C   UNK N   1      24.709  19.354   4.041  0.00  0.00     0.214 C 
HETATM   26  C   UNK N   1      23.736  20.129   3.108  0.00  0.00     0.058 C 
BRANCH  25  27
HETATM   27  O   UNK N   1      24.066  18.754   5.051  0.00  0.00    -0.283 OA
BRANCH  27  28
HETATM   28  C   UNK N   1      23.721  17.469   5.065  0.00  0.00     0.369 C 
HETATM   29  N   UNK N   1      22.438  17.182   5.341  0.00  0.00    -0.283 N 
HETATM   30  C   UNK N   1      21.497  18.282   5.351  0.00  0.00     0.163 C 
HETATM   31  O   UNK N   1      24.563  16.589   4.901  0.00  0.00    -0.238 OA
BRANCH  29  32
HETATM   32  C   UNK N   1      22.091  15.913   5.860  0.00  0.00     0.119 A 
HETATM   33  C   UNK N   1      21.811  14.804   5.029  0.00  0.00     0.010 A 
HETATM   34  C   UNK N   1      21.307  13.649   5.624  0.00  0.00     0.014 A 
HETATM   35  C   UNK N   1      21.079  13.594   6.999  0.00  0.00     0.018 A 
HETATM   36  C   UNK N   1      21.387  14.693   7.786  0.00  0.00     0.089 A 
HETATM   37  N   UNK N   1      21.880  15.807   7.207  0.00  0.00    -0.352 N 
ATOM     38  HN  UNK N   1      22.105  16.606   7.800  1.00  0.00     0.166 HD
BRANCH  33  39
HETATM   39  C   UNK N   1      21.986  14.803   3.533  0.00  0.00     0.221 C 
BRANCH  39  40
HETATM   40  O   UNK N   1      20.855  15.240   2.866  0.00  0.00    -0.315 OA
BRANCH  40  41
HETATM   41  C   UNK N   1      20.890  15.636   1.567  0.00  0.00     0.276 C 
HETATM   42  O   UNK N   1      21.662  15.093   0.791  0.00  0.00    -0.263 OA
BRANCH  41  43
HETATM   43  C   UNK N   1      19.989  16.724   1.061  0.00  0.00     0.225 C 
BRANCH  43  44
HETATM   44  N   UNK N   1      19.624  17.610   2.154  0.00  0.00    -0.417 N 
HETATM   45  C   UNK N   1      20.343  18.851   1.939  0.00  0.00     0.140 C 
HETATM   46  H   UNK N   1      18.986  17.400   2.921  0.00  0.00     0.153 HD
ENDBRANCH  43  44
ENDBRANCH  41  43
ENDBRANCH  40  41
ENDBRANCH  39  40
ENDBRANCH  33  39
ENDBRANCH  29  32
ENDBRANCH  27  28
ENDBRANCH  25  27
ENDBRANCH  21  25
ENDBRANCH  18  19
ENDBRANCH  17  18
BRANCH  17  47
HETATM   47  C   UNK N   1      30.203  17.242   5.947  0.00  0.00     0.020 A 
HETATM   48  C   UNK N   1      29.584  17.431   7.182  0.00  0.00     0.055 A 
HETATM   49  C   UNK N   1      30.205  17.163   8.375  0.00  0.00     0.117 A 
HETATM   50  C   UNK N   1      31.506  16.679   8.389  0.00  0.00     0.045 A 
HETATM   51  F   UNK N   1      29.484  17.273   9.510  0.00  0.00    -0.206 F 
HETATM   52  C   UNK N   1      32.210  16.579   7.192  0.00  0.00     0.046 A 
HETATM   53  C   UNK N   1      31.590  16.872   5.973  0.00  0.00     0.126 A 
HETATM   54  F   UNK N   1      32.319  16.641   4.877  0.00  0.00    -0.205 F 
ENDBRANCH  17  47
BRANCH  17  55
HETATM   55  O   UNK N   1      29.994  17.574   3.692  0.00  0.00    -0.382 OA
HETATM   56  H   UNK N   1      30.811  17.887   3.272  0.00  0.00     0.211 HD
ENDBRANCH  17  55
ENDBRANCH  15  17
ENDBRANCH  12  15
ENDBRANCH   7   9
TORSDOF 16
ENDMDL
MODEL 7
REMARK VINA RESULT:      -8.2      1.843      2.908
REMARK  16 active torsions:
REMARK  status: ('A' for Active; 'I' for Inactive)
REMARK    1  A    between atoms: C_31  and  C_16 
REMARK    2  A    between atoms: N_39  and  C_16 
REMARK    3  A    between atoms: C_26  and  C_17 
REMARK    4  A    between atoms: O_52  and  C_17 
REMARK    5  A    between atoms: C_35  and  C_19 
REMARK    6  A    between atoms: N_48  and  C_19 
REMARK    7  A    between atoms: C_33  and  C_22 
REMARK    8  A    between atoms: C_35  and  C_22 
REMARK    9  A    between atoms: N_47  and  C_23 
REMARK   10  A    between atoms: O_53  and  C_23 
REMARK   11  A    between atoms: C_30  and  C_25 
REMARK   12  A    between atoms: C_35  and  C_28 
REMARK   13  A    between atoms: O_52  and  C_31 
REMARK   14  A    between atoms: N_46  and  C_32 
REMARK       I    between atoms: N_46  and  C_34 
REMARK   15  A    between atoms: O_53  and  C_34 
REMARK   16  A    between atoms: C_35  and  O_51 
ROOT
HETATM    1  C   UNK N   1      20.197  17.913   2.239  0.00  0.00     0.023 A 
HETATM    2  C   UNK N   1      20.866  19.882   3.480  0.00  0.00     0.023 A 
HETATM    3  C   UNK N   1      20.110  17.180   3.430  0.00  0.00     0.015 A 
HETATM    4  C   UNK N   1      20.794  19.153   4.653  0.00  0.00     0.015 A 
HETATM    5  C   UNK N   1      20.878  19.974   1.061  0.00  0.00     0.099 C 
HETATM    6  C   UNK N   1      20.612  19.254   2.268  0.00  0.00     0.044 A 
HETATM    7  C   UNK N   1      20.449  17.795   4.636  0.00  0.00    -0.009 A 
HETATM    8  N   UNK N   1      21.105  20.590   0.109  0.00  0.00    -0.191 NA
ENDROOT
BRANCH   7   9
HETATM    9  C   UNK N   1      20.682  17.022   5.851  0.00  0.00     0.049 A 
HETATM   10  C   UNK N   1      20.676  17.508   7.176  0.00  0.00     0.081 A 
HETATM   11  S   UNK N   1      20.838  16.137   8.113  0.00  0.00    -0.086 SA
HETATM   12  C   UNK N   1      20.859  15.024   6.891  0.00  0.00     0.058 A 
HETATM   13  N   UNK N   1      20.777  15.666   5.727  0.00  0.00    -0.352 N 
ATOM     14  HN  UNK N   1      20.785  15.188   4.825  1.00  0.00     0.166 HD
BRANCH  12  15
HETATM   15  C   UNK N   1      21.054  13.550   7.012  0.00  0.00     0.080 C 
HETATM   16  C   UNK N   1      20.474  12.870   5.766  0.00  0.00     0.020 C 
BRANCH  15  17
HETATM   17  C   UNK N   1      22.506  12.972   7.335  0.00  0.00     0.115 C 
BRANCH  17  18
HETATM   18  C   UNK N   1      23.591  13.750   6.435  0.00  0.00     0.193 C 
BRANCH  18  19
HETATM   19  N   UNK N   1      24.244  12.964   5.335  0.00  0.00    -0.289 N 
HETATM   20  C   UNK N   1      25.546  13.134   5.160  0.00  0.00     0.179 C 
HETATM   21  N   UNK N   1      25.800  13.550   3.934  0.00  0.00    -0.211 NA
HETATM   22  C   UNK N   1      24.689  13.183   3.255  0.00  0.00     0.176 C 
HETATM   23  N   UNK N   1      23.700  12.915   4.129  0.00  0.00    -0.298 N 
ATOM     24  HN  UNK N   1      22.724  12.715   3.907  1.00  0.00     0.187 HD
BRANCH  21  25
HETATM   25  C   UNK N   1      25.975  15.022   4.035  0.00  0.00     0.214 C 
HETATM   26  C   UNK N   1      25.802  15.701   2.647  0.00  0.00     0.058 C 
BRANCH  25  27
HETATM   27  O   UNK N   1      27.150  15.326   4.601  0.00  0.00    -0.283 OA
BRANCH  27  28
HETATM   28  C   UNK N   1      27.286  16.043   5.713  0.00  0.00     0.369 C 
HETATM   29  N   UNK N   1      28.148  17.071   5.677  0.00  0.00    -0.283 N 
HETATM   30  C   UNK N   1      28.662  17.465   4.382  0.00  0.00     0.163 C 
HETATM   31  O   UNK N   1      26.695  15.726   6.743  0.00  0.00    -0.238 OA
BRANCH  29  32
HETATM   32  C   UNK N   1      28.725  17.557   6.875  0.00  0.00     0.119 A 
HETATM   33  C   UNK N   1      30.065  17.288   7.235  0.00  0.00     0.010 A 
HETATM   34  C   UNK N   1      30.488  17.655   8.511  0.00  0.00     0.014 A 
HETATM   35  C   UNK N   1      29.609  18.265   9.408  0.00  0.00     0.018 A 
HETATM   36  C   UNK N   1      28.308  18.533   9.011  0.00  0.00     0.089 A 
HETATM   37  N   UNK N   1      27.904  18.181   7.773  0.00  0.00    -0.352 N 
ATOM     38  HN  UNK N   1      26.945  18.389   7.495  1.00  0.00     0.166 HD
BRANCH  33  39
HETATM   39  C   UNK N   1      31.057  16.592   6.340  0.00  0.00     0.221 C 
BRANCH  39  40
HETATM   40  O   UNK N   1      31.023  15.216   6.478  0.00  0.00    -0.315 OA
BRANCH  40  41
HETATM   41  C   UNK N   1      31.167  14.379   5.417  0.00  0.00     0.276 C 
HETATM   42  O   UNK N   1      32.264  14.250   4.897  0.00  0.00    -0.263 OA
BRANCH  41  43
HETATM   43  C   UNK N   1      30.005  13.600   4.877  0.00  0.00     0.225 C 
BRANCH  43  44
HETATM   44  N   UNK N   1      29.621  14.126   3.577  0.00  0.00    -0.417 N 
HETATM   45  C   UNK N   1      29.383  12.980   2.721  0.00  0.00     0.140 C 
HETATM   46  H   UNK N   1      29.535  15.109   3.319  0.00  0.00     0.153 HD
ENDBRANCH  43  44
ENDBRANCH  41  43
ENDBRANCH  40  41
ENDBRANCH  39  40
ENDBRANCH  33  39
ENDBRANCH  29  32
ENDBRANCH  27  28
ENDBRANCH  25  27
ENDBRANCH  21  25
ENDBRANCH  18  19
ENDBRANCH  17  18
BRANCH  17  47
HETATM   47  C   UNK N   1      22.694  12.958   8.884  0.00  0.00     0.020 A 
HETATM   48  C   UNK N   1      21.541  12.764   9.644  0.00  0.00     0.055 A 
HETATM   49  C   UNK N   1      21.564  12.239  10.911  0.00  0.00     0.117 A 
HETATM   50  C   UNK N   1      22.770  11.873  11.491  0.00  0.00     0.045 A 
HETATM   51  F   UNK N   1      20.387  11.988  11.520  0.00  0.00    -0.206 F 
HETATM   52  C   UNK N   1      23.961  12.148  10.824  0.00  0.00     0.046 A 
HETATM   53  C   UNK N   1      23.946  12.704   9.540  0.00  0.00     0.126 A 
HETATM   54  F   UNK N   1      25.136  12.830   8.945  0.00  0.00    -0.205 F 
ENDBRANCH  17  47
BRANCH  17  55
HETATM   55  O   UNK N   1      22.447  11.604   7.056  0.00  0.00    -0.382 OA
HETATM   56  H   UNK N   1      22.709  10.798   6.584  0.00  0.00     0.211 HD
ENDBRANCH  17  55
ENDBRANCH  15  17
ENDBRANCH  12  15
ENDBRANCH   7   9
TORSDOF 16
ENDMDL
MODEL 8
REMARK VINA RESULT:      -8.2      3.562      7.559
REMARK  16 active torsions:
REMARK  status: ('A' for Active; 'I' for Inactive)
REMARK    1  A    between atoms: C_31  and  C_16 
REMARK    2  A    between atoms: N_39  and  C_16 
REMARK    3  A    between atoms: C_26  and  C_17 
REMARK    4  A    between atoms: O_52  and  C_17 
REMARK    5  A    between atoms: C_35  and  C_19 
REMARK    6  A    between atoms: N_48  and  C_19 
REMARK    7  A    between atoms: C_33  and  C_22 
REMARK    8  A    between atoms: C_35  and  C_22 
REMARK    9  A    between atoms: N_47  and  C_23 
REMARK   10  A    between atoms: O_53  and  C_23 
REMARK   11  A    between atoms: C_30  and  C_25 
REMARK   12  A    between atoms: C_35  and  C_28 
REMARK   13  A    between atoms: O_52  and  C_31 
REMARK   14  A    between atoms: N_46  and  C_32 
REMARK       I    between atoms: N_46  and  C_34 
REMARK   15  A    between atoms: O_53  and  C_34 
REMARK   16  A    between atoms: C_35  and  O_51 
ROOT
HETATM    1  C   UNK N   1      21.859  12.367  10.776  0.00  0.00     0.023 A 
HETATM    2  C   UNK N   1      24.260  12.316  10.464  0.00  0.00     0.023 A 
HETATM    3  C   UNK N   1      21.680  12.698   9.426  0.00  0.00     0.015 A 
HETATM    4  C   UNK N   1      24.081  12.657   9.135  0.00  0.00     0.015 A 
HETATM    5  C   UNK N   1      23.374  12.050  12.700  0.00  0.00     0.099 C 
HETATM    6  C   UNK N   1      23.153  12.214  11.297  0.00  0.00     0.044 A 
HETATM    7  C   UNK N   1      22.800  12.882   8.614  0.00  0.00    -0.009 A 
HETATM    8  N   UNK N   1      23.594  11.917  13.828  0.00  0.00    -0.191 NA
ENDROOT
BRANCH   7   9
HETATM    9  C   UNK N   1      22.703  13.523   7.308  0.00  0.00     0.049 A 
HETATM   10  C   UNK N   1      22.900  12.913   6.050  0.00  0.00     0.081 A 
HETATM   11  S   UNK N   1      22.494  14.102   4.953  0.00  0.00    -0.086 SA
HETATM   12  C   UNK N   1      22.054  15.273   6.034  0.00  0.00     0.058 A 
HETATM   13  N   UNK N   1      22.237  14.805   7.268  0.00  0.00    -0.352 N 
ATOM     14  HN  UNK N   1      22.046  15.355   8.106  1.00  0.00     0.166 HD
BRANCH  12  15
HETATM   15  C   UNK N   1      21.632  16.671   5.732  0.00  0.00     0.080 C 
HETATM   16  C   UNK N   1      20.905  17.243   6.955  0.00  0.00     0.020 C 
BRANCH  15  17
HETATM   17  C   UNK N   1      22.706  17.717   5.185  0.00  0.00     0.115 C 
BRANCH  17  18
HETATM   18  C   UNK N   1      24.135  16.985   5.066  0.00  0.00     0.193 C 
BRANCH  18  19
HETATM   19  N   UNK N   1      25.280  17.818   4.564  0.00  0.00    -0.289 N 
HETATM   20  C   UNK N   1      26.218  17.197   3.865  0.00  0.00     0.179 C 
HETATM   21  N   UNK N   1      27.398  17.345   4.436  0.00  0.00    -0.211 NA
HETATM   22  C   UNK N   1      27.220  18.435   5.217  0.00  0.00     0.176 C 
HETATM   23  N   UNK N   1      25.901  18.663   5.371  0.00  0.00    -0.298 N 
ATOM     24  HN  UNK N   1      25.466  19.351   5.987  1.00  0.00     0.187 HD
BRANCH  21  25
HETATM   25  C   UNK N   1      27.636  16.097   5.205  0.00  0.00     0.214 C 
HETATM   26  C   UNK N   1      27.988  16.411   6.687  0.00  0.00     0.058 C 
BRANCH  25  27
HETATM   27  O   UNK N   1      28.572  15.343   4.615  0.00  0.00    -0.283 OA
BRANCH  27  28
HETATM   28  C   UNK N   1      29.826  15.229   5.044  0.00  0.00     0.369 C 
HETATM   29  N   UNK N   1      30.797  15.642   4.214  0.00  0.00    -0.283 N 
HETATM   30  C   UNK N   1      30.399  16.396   3.044  0.00  0.00     0.163 C 
HETATM   31  O   UNK N   1      30.077  14.703   6.126  0.00  0.00    -0.238 OA
BRANCH  29  32
HETATM   32  C   UNK N   1      32.109  15.125   4.343  0.00  0.00     0.119 A 
HETATM   33  C   UNK N   1      33.198  15.920   4.767  0.00  0.00     0.010 A 
HETATM   34  C   UNK N   1      34.478  15.372   4.693  0.00  0.00     0.014 A 
HETATM   35  C   UNK N   1      34.675  14.079   4.206  0.00  0.00     0.018 A 
HETATM   36  C   UNK N   1      33.580  13.321   3.821  0.00  0.00     0.089 A 
HETATM   37  N   UNK N   1      32.342  13.853   3.900  0.00  0.00    -0.352 N 
ATOM     38  HN  UNK N   1      31.546  13.282   3.617  1.00  0.00     0.166 HD
BRANCH  33  39
HETATM   39  C   UNK N   1      33.070  17.338   5.259  0.00  0.00     0.221 C 
BRANCH  39  40
HETATM   40  O   UNK N   1      34.158  17.739   6.013  0.00  0.00    -0.315 OA
BRANCH  40  41
HETATM   41  C   UNK N   1      34.074  17.936   7.355  0.00  0.00     0.276 C 
HETATM   42  O   UNK N   1      34.867  18.684   7.905  0.00  0.00    -0.263 OA
BRANCH  41  43
HETATM   43  C   UNK N   1      33.018  17.258   8.176  0.00  0.00     0.225 C 
BRANCH  43  44
HETATM   44  N   UNK N   1      33.591  16.788   9.426  0.00  0.00    -0.417 N 
HETATM   45  C   UNK N   1      33.357  15.357   9.478  0.00  0.00     0.140 C 
HETATM   46  H   UNK N   1      34.067  17.354  10.129  0.00  0.00     0.153 HD
ENDBRANCH  43  44
ENDBRANCH  41  43
ENDBRANCH  40  41
ENDBRANCH  39  40
ENDBRANCH  33  39
ENDBRANCH  29  32
ENDBRANCH  27  28
ENDBRANCH  25  27
ENDBRANCH  21  25
ENDBRANCH  18  19
ENDBRANCH  17  18
BRANCH  17  47
HETATM   47  C   UNK N   1      22.114  18.410   3.918  0.00  0.00     0.020 A 
HETATM   48  C   UNK N   1      20.811  18.053   3.572  0.00  0.00     0.055 A 
HETATM   49  C   UNK N   1      19.982  18.871   2.849  0.00  0.00     0.117 A 
HETATM   50  C   UNK N   1      20.427  20.117   2.430  0.00  0.00     0.045 A 
HETATM   51  F   UNK N   1      18.705  18.481   2.660  0.00  0.00    -0.206 F 
HETATM   52  C   UNK N   1      21.753  20.479   2.650  0.00  0.00     0.046 A 
HETATM   53  C   UNK N   1      22.612  19.638   3.368  0.00  0.00     0.126 A 
HETATM   54  F   UNK N   1      23.832  20.124   3.615  0.00  0.00    -0.205 F 
ENDBRANCH  17  47
BRANCH  17  55
HETATM   55  O   UNK N   1      22.711  18.776   6.097  0.00  0.00    -0.382 OA
HETATM   56  H   UNK N   1      23.130  19.494   6.598  0.00  0.00     0.211 HD
ENDBRANCH  17  55
ENDBRANCH  15  17
ENDBRANCH  12  15
ENDBRANCH   7   9
TORSDOF 16
ENDMDL
MODEL 9
REMARK VINA RESULT:      -8.1      3.303      8.815
REMARK  16 active torsions:
REMARK  status: ('A' for Active; 'I' for Inactive)
REMARK    1  A    between atoms: C_31  and  C_16 
REMARK    2  A    between atoms: N_39  and  C_16 
REMARK    3  A    between atoms: C_26  and  C_17 
REMARK    4  A    between atoms: O_52  and  C_17 
REMARK    5  A    between atoms: C_35  and  C_19 
REMARK    6  A    between atoms: N_48  and  C_19 
REMARK    7  A    between atoms: C_33  and  C_22 
REMARK    8  A    between atoms: C_35  and  C_22 
REMARK    9  A    between atoms: N_47  and  C_23 
REMARK   10  A    between atoms: O_53  and  C_23 
REMARK   11  A    between atoms: C_30  and  C_25 
REMARK   12  A    between atoms: C_35  and  C_28 
REMARK   13  A    between atoms: O_52  and  C_31 
REMARK   14  A    between atoms: N_46  and  C_32 
REMARK       I    between atoms: N_46  and  C_34 
REMARK   15  A    between atoms: O_53  and  C_34 
REMARK   16  A    between atoms: C_35  and  O_51 
ROOT
HETATM    1  C   UNK N   1      21.359  12.309  11.444  0.00  0.00     0.023 A 
HETATM    2  C   UNK N   1      23.613  12.212  10.564  0.00  0.00     0.023 A 
HETATM    3  C   UNK N   1      20.862  12.604  10.167  0.00  0.00     0.015 A 
HETATM    4  C   UNK N   1      23.122  12.518   9.307  0.00  0.00     0.015 A 
HETATM    5  C   UNK N   1      23.290  12.024  12.955  0.00  0.00     0.099 C 
HETATM    6  C   UNK N   1      22.739  12.151  11.642  0.00  0.00     0.044 A 
HETATM    7  C   UNK N   1      21.755  12.747   9.104  0.00  0.00    -0.009 A 
HETATM    8  N   UNK N   1      23.775  11.920  14.001  0.00  0.00    -0.191 NA
ENDROOT
BRANCH   7   9
HETATM    9  C   UNK N   1      21.350  13.352   7.840  0.00  0.00     0.049 A 
HETATM   10  C   UNK N   1      21.028  12.675   6.644  0.00  0.00     0.081 A 
HETATM   11  S   UNK N   1      20.494  13.883   5.624  0.00  0.00    -0.086 SA
HETATM   12  C   UNK N   1      20.627  15.150   6.678  0.00  0.00     0.058 A 
HETATM   13  N   UNK N   1      21.117  14.697   7.831  0.00  0.00    -0.352 N 
ATOM     14  HN  UNK N   1      21.300  15.300   8.634  1.00  0.00     0.166 HD
BRANCH  12  15
HETATM   15  C   UNK N   1      20.369  16.591   6.397  0.00  0.00     0.080 C 
HETATM   16  C   UNK N   1      19.995  17.292   7.709  0.00  0.00     0.020 C 
BRANCH  15  17
HETATM   17  C   UNK N   1      21.458  17.446   5.602  0.00  0.00     0.115 C 
BRANCH  17  18
HETATM   18  C   UNK N   1      22.747  16.523   5.325  0.00  0.00     0.193 C 
BRANCH  18  19
HETATM   19  N   UNK N   1      23.904  17.171   4.621  0.00  0.00    -0.289 N 
HETATM   20  C   UNK N   1      24.677  16.391   3.881  0.00  0.00     0.179 C 
HETATM   21  N   UNK N   1      25.928  16.444   4.298  0.00  0.00    -0.211 NA
HETATM   22  C   UNK N   1      25.965  17.607   4.988  0.00  0.00     0.176 C 
HETATM   23  N   UNK N   1      24.707  18.000   5.269  0.00  0.00    -0.298 N 
ATOM     24  HN  UNK N   1      24.428  18.781   5.863  1.00  0.00     0.187 HD
BRANCH  21  25
HETATM   25  C   UNK N   1      26.123  15.242   5.148  0.00  0.00     0.214 C 
HETATM   26  C   UNK N   1      27.617  15.075   5.543  0.00  0.00     0.058 C 
BRANCH  25  27
HETATM   27  O   UNK N   1      25.636  14.149   4.549  0.00  0.00    -0.283 OA
BRANCH  27  28
HETATM   28  C   UNK N   1      25.028  13.151   5.184  0.00  0.00     0.369 C 
HETATM   29  N   UNK N   1      25.175  11.918   4.672  0.00  0.00    -0.283 N 
HETATM   30  C   UNK N   1      26.171  11.742   3.636  0.00  0.00     0.163 C 
HETATM   31  O   UNK N   1      24.308  13.368   6.156  0.00  0.00    -0.238 OA
BRANCH  29  32
HETATM   32  C   UNK N   1      24.215  10.916   4.946  0.00  0.00     0.119 A 
HETATM   33  C   UNK N   1      23.109  10.673   4.099  0.00  0.00     0.010 A 
HETATM   34  C   UNK N   1      22.125   9.791   4.541  0.00  0.00     0.014 A 
HETATM   35  C   UNK N   1      22.227   9.173   5.788  0.00  0.00     0.018 A 
HETATM   36  C   UNK N   1      23.337   9.418   6.582  0.00  0.00     0.089 A 
HETATM   37  N   UNK N   1      24.290  10.268   6.147  0.00  0.00    -0.352 N 
ATOM     38  HN  UNK N   1      25.103  10.434   6.741  1.00  0.00     0.166 HD
BRANCH  33  39
HETATM   39  C   UNK N   1      22.906  11.338   2.762  0.00  0.00     0.221 C 
BRANCH  39  40
HETATM   40  O   UNK N   1      22.413  12.625   2.879  0.00  0.00    -0.315 OA
BRANCH  40  41
HETATM   41  C   UNK N   1      22.673  13.586   1.955  0.00  0.00     0.276 C 
HETATM   42  O   UNK N   1      23.828  13.809   1.626  0.00  0.00    -0.263 OA
BRANCH  41  43
HETATM   43  C   UNK N   1      21.566  14.374   1.319  0.00  0.00     0.225 C 
BRANCH  43  44
HETATM   44  N   UNK N   1      20.326  13.618   1.377  0.00  0.00    -0.417 N 
HETATM   45  C   UNK N   1      19.335  14.390   0.652  0.00  0.00     0.140 C 
HETATM   46  H   UNK N   1      20.182  12.719   1.838  0.00  0.00     0.153 HD
ENDBRANCH  43  44
ENDBRANCH  41  43
ENDBRANCH  40  41
ENDBRANCH  39  40
ENDBRANCH  33  39
ENDBRANCH  29  32
ENDBRANCH  27  28
ENDBRANCH  25  27
ENDBRANCH  21  25
ENDBRANCH  18  19
ENDBRANCH  17  18
BRANCH  17  47
HETATM   47  C   UNK N   1      20.755  18.129   4.388  0.00  0.00     0.020 A 
HETATM   48  C   UNK N   1      21.137  19.441   4.112  0.00  0.00     0.055 A 
HETATM   49  C   UNK N   1      21.026  20.003   2.866  0.00  0.00     0.117 A 
HETATM   50  C   UNK N   1      20.519  19.258   1.810  0.00  0.00     0.045 A 
HETATM   51  F   UNK N   1      21.525  21.241   2.676  0.00  0.00    -0.206 F 
HETATM   52  C   UNK N   1      20.018  17.982   2.052  0.00  0.00     0.046 A 
HETATM   53  C   UNK N   1      20.107  17.411   3.327  0.00  0.00     0.126 A 
HETATM   54  F   UNK N   1      19.695  16.144   3.429  0.00  0.00    -0.205 F 
ENDBRANCH  17  47
BRANCH  17  55
HETATM   55  O   UNK N   1      21.743  18.551   6.409  0.00  0.00    -0.382 OA
HETATM   56  H   UNK N   1      21.519  19.373   6.873  0.00  0.00     0.211 HD
ENDBRANCH  17  55
ENDBRANCH  15  17
ENDBRANCH  12  15
ENDBRANCH   7   9
TORSDOF 16
ENDMDL
