MODEL 1
REMARK VINA RESULT:      -6.6      0.000      0.000
REMARK  7 active torsions:
REMARK  status: ('A' for Active; 'I' for Inactive)
REMARK    1  A    between atoms: C_2  and  C_1 
REMARK    2  A    between atoms: O_3  and  C_11 
REMARK    3  A    between atoms: C_4  and  O_3 
REMARK    4  A    between atoms: C_8  and  C_4 
REMARK    5  A    between atoms: C_12  and  C_4 
REMARK    6  A    between atoms: C_16  and  C_12 
REMARK    7  A    between atoms: N_15  and  C_16 
ROOT
HETATM    1  C   UNK N   1      35.701  13.485  12.529  0.00  0.00     0.163 C 
ENDROOT
BRANCH   1   2
HETATM    2  O   UNK N   1      34.504  13.993  12.040  0.00  0.00    -0.341 OA
BRANCH   2   3
HETATM    3  C   UNK N   1      34.460  14.955  11.089  0.00  0.00     0.069 A 
HETATM    4  C   UNK N   1      35.319  16.058  11.165  0.00  0.00     0.037 A 
HETATM    5  C   UNK N   1      35.258  17.069  10.209  0.00  0.00     0.019 A 
HETATM    6  C   UNK N   1      34.335  16.991   9.159  0.00  0.00     0.048 A 
HETATM    7  C   UNK N   1      33.488  15.876   9.068  0.00  0.00     0.019 A 
HETATM    8  C   UNK N   1      33.555  14.857  10.027  0.00  0.00     0.037 A 
BRANCH   6   9
HETATM    9  C   UNK N   1      34.239  18.099   8.152  0.00  0.00     0.417 C 
HETATM   10  F   UNK N   1      35.204  19.054   8.411  0.00  0.00    -0.166 F 
HETATM   11  F   UNK N   1      32.992  18.702   8.193  0.00  0.00    -0.166 F 
HETATM   12  F   UNK N   1      34.438  17.583   6.884  0.00  0.00    -0.166 F 
ENDBRANCH   6   9
ENDBRANCH   2   3
ENDBRANCH   1   2
BRANCH   1  13
HETATM   13  C   UNK N   1      35.703  13.484  14.040  0.00  0.00    -0.029 A 
HETATM   14  C   UNK N   1      36.614  14.262  14.778  0.00  0.00     0.010 A 
HETATM   15  C   UNK N   1      36.582  14.258  16.175  0.00  0.00     0.001 A 
HETATM   16  C   UNK N   1      35.641  13.477  16.848  0.00  0.00     0.000 A 
HETATM   17  C   UNK N   1      34.730  12.703  16.126  0.00  0.00     0.001 A 
HETATM   18  C   UNK N   1      34.757  12.710  14.727  0.00  0.00     0.010 A 
ENDBRANCH   1  13
BRANCH   1  19
HETATM   19  C   UNK N   1      36.071  12.130  11.896  0.00  0.00     0.056 C 
BRANCH  19  20
HETATM   20  C   UNK N   1      37.505  12.095  11.389  0.00  0.00     0.114 C 
BRANCH  20  21
HETATM   21  N   UNK N   1      37.993  13.454  11.241  0.00  0.00    -0.430 N 
HETATM   22  H   UNK N   1      38.916  13.624  10.840  0.00  0.00     0.149 HD
HETATM   23  H   UNK N   1      37.414  14.239  11.536  0.00  0.00     0.149 HD
ENDBRANCH  20  21
ENDBRANCH  19  20
ENDBRANCH   1  19
TORSDOF 7
ENDMDL
MODEL 2
REMARK VINA RESULT:      -6.5     18.242     22.001
REMARK  7 active torsions:
REMARK  status: ('A' for Active; 'I' for Inactive)
REMARK    1  A    between atoms: C_2  and  C_1 
REMARK    2  A    between atoms: O_3  and  C_11 
REMARK    3  A    between atoms: C_4  and  O_3 
REMARK    4  A    between atoms: C_8  and  C_4 
REMARK    5  A    between atoms: C_12  and  C_4 
REMARK    6  A    between atoms: C_16  and  C_12 
REMARK    7  A    between atoms: N_15  and  C_16 
ROOT
HETATM    1  C   UNK N   1      25.505  25.809  -6.751  0.00  0.00     0.163 C 
ENDROOT
BRANCH   1   2
HETATM    2  O   UNK N   1      25.442  24.734  -5.874  0.00  0.00    -0.341 OA
BRANCH   2   3
HETATM    3  C   UNK N   1      26.493  24.364  -5.106  0.00  0.00     0.069 A 
HETATM    4  C   UNK N   1      27.664  23.880  -5.702  0.00  0.00     0.037 A 
HETATM    5  C   UNK N   1      28.738  23.467  -4.918  0.00  0.00     0.019 A 
HETATM    6  C   UNK N   1      28.657  23.531  -3.522  0.00  0.00     0.048 A 
HETATM    7  C   UNK N   1      27.493  24.036  -2.921  0.00  0.00     0.019 A 
HETATM    8  C   UNK N   1      26.416  24.457  -3.712  0.00  0.00     0.037 A 
BRANCH   6   9
HETATM    9  C   UNK N   1      29.797  23.047  -2.674  0.00  0.00     0.417 C 
HETATM   10  F   UNK N   1      29.419  23.034  -1.344  0.00  0.00    -0.166 F 
HETATM   11  F   UNK N   1      30.905  23.867  -2.815  0.00  0.00    -0.166 F 
HETATM   12  F   UNK N   1      30.143  21.765  -3.061  0.00  0.00    -0.166 F 
ENDBRANCH   6   9
ENDBRANCH   2   3
ENDBRANCH   1   2
BRANCH   1  13
HETATM   13  C   UNK N   1      25.977  27.055  -6.036  0.00  0.00    -0.029 A 
HETATM   14  C   UNK N   1      25.334  27.531  -4.878  0.00  0.00     0.010 A 
HETATM   15  C   UNK N   1      25.803  28.674  -4.225  0.00  0.00     0.001 A 
HETATM   16  C   UNK N   1      26.917  29.352  -4.722  0.00  0.00     0.000 A 
HETATM   17  C   UNK N   1      27.565  28.887  -5.868  0.00  0.00     0.001 A 
HETATM   18  C   UNK N   1      27.100  27.740  -6.520  0.00  0.00     0.010 A 
ENDBRANCH   1  13
BRANCH   1  19
HETATM   19  C   UNK N   1      26.292  25.481  -8.034  0.00  0.00     0.056 C 
BRANCH  19  20
HETATM   20  C   UNK N   1      25.483  24.652  -9.019  0.00  0.00     0.114 C 
BRANCH  20  21
HETATM   21  N   UNK N   1      24.991  23.461  -8.352  0.00  0.00    -0.430 N 
HETATM   22  H   UNK N   1      25.148  23.334  -7.352  0.00  0.00     0.149 HD
HETATM   23  H   UNK N   1      24.488  22.751  -8.882  0.00  0.00     0.149 HD
ENDBRANCH  20  21
ENDBRANCH  19  20
ENDBRANCH   1  19
TORSDOF 7
ENDMDL
MODEL 3
REMARK VINA RESULT:      -6.3      6.338      8.669
REMARK  7 active torsions:
REMARK  status: ('A' for Active; 'I' for Inactive)
REMARK    1  A    between atoms: C_2  and  C_1 
REMARK    2  A    between atoms: O_3  and  C_11 
REMARK    3  A    between atoms: C_4  and  O_3 
REMARK    4  A    between atoms: C_8  and  C_4 
REMARK    5  A    between atoms: C_12  and  C_4 
REMARK    6  A    between atoms: C_16  and  C_12 
REMARK    7  A    between atoms: N_15  and  C_16 
ROOT
HETATM    1  C   UNK N   1      31.586  16.746   5.505  0.00  0.00     0.163 C 
ENDROOT
BRANCH   1   2
HETATM    2  O   UNK N   1      30.263  16.580   5.893  0.00  0.00    -0.341 OA
BRANCH   2   3
HETATM    3  C   UNK N   1      29.406  17.621   6.007  0.00  0.00     0.069 A 
HETATM    4  C   UNK N   1      28.951  18.287   4.862  0.00  0.00     0.037 A 
HETATM    5  C   UNK N   1      28.093  19.378   4.973  0.00  0.00     0.019 A 
HETATM    6  C   UNK N   1      27.677  19.823   6.234  0.00  0.00     0.048 A 
HETATM    7  C   UNK N   1      28.114  19.144   7.383  0.00  0.00     0.019 A 
HETATM    8  C   UNK N   1      28.971  18.042   7.269  0.00  0.00     0.037 A 
BRANCH   6   9
HETATM    9  C   UNK N   1      26.787  21.025   6.358  0.00  0.00     0.417 C 
HETATM   10  F   UNK N   1      25.824  20.999   5.366  0.00  0.00    -0.166 F 
HETATM   11  F   UNK N   1      27.516  22.197   6.241  0.00  0.00    -0.166 F 
HETATM   12  F   UNK N   1      26.168  21.010   7.594  0.00  0.00    -0.166 F 
ENDBRANCH   6   9
ENDBRANCH   2   3
ENDBRANCH   1   2
BRANCH   1  13
HETATM   13  C   UNK N   1      32.487  16.858   6.714  0.00  0.00    -0.029 A 
HETATM   14  C   UNK N   1      33.522  17.810   6.778  0.00  0.00     0.010 A 
HETATM   15  C   UNK N   1      34.328  17.905   7.915  0.00  0.00     0.001 A 
HETATM   16  C   UNK N   1      34.110  17.053   8.998  0.00  0.00     0.000 A 
HETATM   17  C   UNK N   1      33.083  16.107   8.947  0.00  0.00     0.001 A 
HETATM   18  C   UNK N   1      32.272  16.013   7.811  0.00  0.00     0.010 A 
ENDBRANCH   1  13
BRANCH   1  19
HETATM   19  C   UNK N   1      32.038  15.691   4.477  0.00  0.00     0.056 C 
BRANCH  19  20
HETATM   20  C   UNK N   1      32.680  16.314   3.246  0.00  0.00     0.114 C 
BRANCH  20  21
HETATM   21  N   UNK N   1      31.764  17.278   2.665  0.00  0.00    -0.430 N 
HETATM   22  H   UNK N   1      31.998  18.271   2.667  0.00  0.00     0.149 HD
HETATM   23  H   UNK N   1      30.886  16.962   2.253  0.00  0.00     0.149 HD
ENDBRANCH  20  21
ENDBRANCH  19  20
ENDBRANCH   1  19
TORSDOF 7
ENDMDL
MODEL 4
REMARK VINA RESULT:      -6.2     10.264     13.078
REMARK  7 active torsions:
REMARK  status: ('A' for Active; 'I' for Inactive)
REMARK    1  A    between atoms: C_2  and  C_1 
REMARK    2  A    between atoms: O_3  and  C_11 
REMARK    3  A    between atoms: C_4  and  O_3 
REMARK    4  A    between atoms: C_8  and  C_4 
REMARK    5  A    between atoms: C_12  and  C_4 
REMARK    6  A    between atoms: C_16  and  C_12 
REMARK    7  A    between atoms: N_15  and  C_16 
ROOT
HETATM    1  C   UNK N   1      27.155  19.575   5.772  0.00  0.00     0.163 C 
ENDROOT
BRANCH   1   2
HETATM    2  O   UNK N   1      26.756  19.406   4.453  0.00  0.00    -0.341 OA
BRANCH   2   3
HETATM    3  C   UNK N   1      25.456  19.447   4.079  0.00  0.00     0.069 A 
HETATM    4  C   UNK N   1      24.997  20.470   3.240  0.00  0.00     0.037 A 
HETATM    5  C   UNK N   1      23.655  20.537   2.875  0.00  0.00     0.019 A 
HETATM    6  C   UNK N   1      22.748  19.580   3.346  0.00  0.00     0.048 A 
HETATM    7  C   UNK N   1      23.208  18.541   4.171  0.00  0.00     0.019 A 
HETATM    8  C   UNK N   1      24.560  18.471   4.530  0.00  0.00     0.037 A 
BRANCH   6   9
HETATM    9  C   UNK N   1      21.293  19.675   2.990  0.00  0.00     0.417 C 
HETATM   10  F   UNK N   1      20.584  20.207   4.051  0.00  0.00    -0.166 F 
HETATM   11  F   UNK N   1      20.773  18.427   2.688  0.00  0.00    -0.166 F 
HETATM   12  F   UNK N   1      21.145  20.494   1.886  0.00  0.00    -0.166 F 
ENDBRANCH   6   9
ENDBRANCH   2   3
ENDBRANCH   1   2
BRANCH   1  13
HETATM   13  C   UNK N   1      28.283  18.628   6.114  0.00  0.00    -0.029 A 
HETATM   14  C   UNK N   1      29.034  17.982   5.114  0.00  0.00     0.010 A 
HETATM   15  C   UNK N   1      30.084  17.127   5.457  0.00  0.00     0.001 A 
HETATM   16  C   UNK N   1      30.394  16.908   6.800  0.00  0.00     0.000 A 
HETATM   17  C   UNK N   1      29.658  17.546   7.801  0.00  0.00     0.001 A 
HETATM   18  C   UNK N   1      28.609  18.407   7.459  0.00  0.00     0.010 A 
ENDBRANCH   1  13
BRANCH   1  19
HETATM   19  C   UNK N   1      27.441  21.048   6.120  0.00  0.00     0.056 C 
BRANCH  19  20
HETATM   20  C   UNK N   1      26.288  21.706   6.864  0.00  0.00     0.114 C 
BRANCH  20  21
HETATM   21  N   UNK N   1      25.956  20.911   8.032  0.00  0.00    -0.430 N 
HETATM   22  H   UNK N   1      26.364  19.983   8.151  0.00  0.00     0.149 HD
HETATM   23  H   UNK N   1      25.315  21.279   8.734  0.00  0.00     0.149 HD
ENDBRANCH  20  21
ENDBRANCH  19  20
ENDBRANCH   1  19
TORSDOF 7
ENDMDL
MODEL 5
REMARK VINA RESULT:      -6.2      3.138      4.251
REMARK  7 active torsions:
REMARK  status: ('A' for Active; 'I' for Inactive)
REMARK    1  A    between atoms: C_2  and  C_1 
REMARK    2  A    between atoms: O_3  and  C_11 
REMARK    3  A    between atoms: C_4  and  O_3 
REMARK    4  A    between atoms: C_8  and  C_4 
REMARK    5  A    between atoms: C_12  and  C_4 
REMARK    6  A    between atoms: C_16  and  C_12 
REMARK    7  A    between atoms: N_15  and  C_16 
ROOT
HETATM    1  C   UNK N   1      34.941  11.913  15.018  0.00  0.00     0.163 C 
ENDROOT
BRANCH   1   2
HETATM    2  O   UNK N   1      34.909  13.099  14.297  0.00  0.00    -0.341 OA
BRANCH   2   3
HETATM    3  C   UNK N   1      35.653  13.291  13.184  0.00  0.00     0.069 A 
HETATM    4  C   UNK N   1      35.292  14.276  12.257  0.00  0.00     0.037 A 
HETATM    5  C   UNK N   1      36.035  14.459  11.093  0.00  0.00     0.019 A 
HETATM    6  C   UNK N   1      37.153  13.657  10.838  0.00  0.00     0.048 A 
HETATM    7  C   UNK N   1      37.531  12.683  11.775  0.00  0.00     0.019 A 
HETATM    8  C   UNK N   1      36.787  12.505  12.948  0.00  0.00     0.037 A 
BRANCH   6   9
HETATM    9  C   UNK N   1      37.930  13.823   9.565  0.00  0.00     0.417 C 
HETATM   10  F   UNK N   1      38.823  14.870   9.694  0.00  0.00    -0.166 F 
HETATM   11  F   UNK N   1      37.086  14.087   8.498  0.00  0.00    -0.166 F 
HETATM   12  F   UNK N   1      38.628  12.659   9.299  0.00  0.00    -0.166 F 
ENDBRANCH   6   9
ENDBRANCH   2   3
ENDBRANCH   1   2
BRANCH   1  13
HETATM   13  C   UNK N   1      35.087  12.190  16.497  0.00  0.00    -0.029 A 
HETATM   14  C   UNK N   1      35.042  13.499  17.011  0.00  0.00     0.010 A 
HETATM   15  C   UNK N   1      35.160  13.726  18.385  0.00  0.00     0.001 A 
HETATM   16  C   UNK N   1      35.325  12.649  19.258  0.00  0.00     0.000 A 
HETATM   17  C   UNK N   1      35.369  11.345  18.759  0.00  0.00     0.001 A 
HETATM   18  C   UNK N   1      35.246  11.116  17.384  0.00  0.00     0.010 A 
ENDBRANCH   1  13
BRANCH   1  19
HETATM   19  C   UNK N   1      33.772  10.973  14.665  0.00  0.00     0.056 C 
BRANCH  19  20
HETATM   20  C   UNK N   1      34.103  10.039  13.510  0.00  0.00     0.114 C 
BRANCH  20  21
HETATM   21  N   UNK N   1      33.695  10.658  12.262  0.00  0.00    -0.430 N 
HETATM   22  H   UNK N   1      34.038  11.587  12.016  0.00  0.00     0.149 HD
HETATM   23  H   UNK N   1      33.066  10.164  11.630  0.00  0.00     0.149 HD
ENDBRANCH  20  21
ENDBRANCH  19  20
ENDBRANCH   1  19
TORSDOF 7
ENDMDL
MODEL 6
REMARK VINA RESULT:      -6.1     19.618     22.053
REMARK  7 active torsions:
REMARK  status: ('A' for Active; 'I' for Inactive)
REMARK    1  A    between atoms: C_2  and  C_1 
REMARK    2  A    between atoms: O_3  and  C_11 
REMARK    3  A    between atoms: C_4  and  O_3 
REMARK    4  A    between atoms: C_8  and  C_4 
REMARK    5  A    between atoms: C_12  and  C_4 
REMARK    6  A    between atoms: C_16  and  C_12 
REMARK    7  A    between atoms: N_15  and  C_16 
ROOT
HETATM    1  C   UNK N   1      27.912  22.009  -7.934  0.00  0.00     0.163 C 
ENDROOT
BRANCH   1   2
HETATM    2  O   UNK N   1      26.726  22.189  -7.234  0.00  0.00    -0.341 OA
BRANCH   2   3
HETATM    3  C   UNK N   1      26.320  23.404  -6.797  0.00  0.00     0.069 A 
HETATM    4  C   UNK N   1      26.270  24.489  -7.681  0.00  0.00     0.037 A 
HETATM    5  C   UNK N   1      25.884  25.749  -7.232  0.00  0.00     0.019 A 
HETATM    6  C   UNK N   1      25.541  25.944  -5.888  0.00  0.00     0.048 A 
HETATM    7  C   UNK N   1      25.570  24.855  -5.004  0.00  0.00     0.019 A 
HETATM    8  C   UNK N   1      25.951  23.586  -5.459  0.00  0.00     0.037 A 
BRANCH   6   9
HETATM    9  C   UNK N   1      25.166  27.310  -5.393  0.00  0.00     0.417 C 
HETATM   10  F   UNK N   1      26.053  28.249  -5.888  0.00  0.00    -0.166 F 
HETATM   11  F   UNK N   1      25.190  27.362  -4.009  0.00  0.00    -0.166 F 
HETATM   12  F   UNK N   1      23.889  27.618  -5.825  0.00  0.00    -0.166 F 
ENDBRANCH   6   9
ENDBRANCH   2   3
ENDBRANCH   1   2
BRANCH   1  13
HETATM   13  C   UNK N   1      29.007  21.521  -7.013  0.00  0.00    -0.029 A 
HETATM   14  C   UNK N   1      29.328  22.200  -5.823  0.00  0.00     0.010 A 
HETATM   15  C   UNK N   1      30.332  21.717  -4.979  0.00  0.00     0.001 A 
HETATM   16  C   UNK N   1      31.024  20.553  -5.316  0.00  0.00     0.000 A 
HETATM   17  C   UNK N   1      30.712  19.869  -6.493  0.00  0.00     0.001 A 
HETATM   18  C   UNK N   1      29.704  20.349  -7.336  0.00  0.00     0.010 A 
ENDBRANCH   1  13
BRANCH   1  19
HETATM   19  C   UNK N   1      27.726  21.154  -9.202  0.00  0.00     0.056 C 
BRANCH  19  20
HETATM   20  C   UNK N   1      26.451  21.497  -9.956  0.00  0.00     0.114 C 
BRANCH  20  21
HETATM   21  N   UNK N   1      25.327  20.832  -9.323  0.00  0.00    -0.430 N 
HETATM   22  H   UNK N   1      25.101  19.867  -9.566  0.00  0.00     0.149 HD
HETATM   23  H   UNK N   1      24.763  21.329  -8.634  0.00  0.00     0.149 HD
ENDBRANCH  20  21
ENDBRANCH  19  20
ENDBRANCH   1  19
TORSDOF 7
ENDMDL
MODEL 7
REMARK VINA RESULT:      -6.0      6.343      9.843
REMARK  7 active torsions:
REMARK  status: ('A' for Active; 'I' for Inactive)
REMARK    1  A    between atoms: C_2  and  C_1 
REMARK    2  A    between atoms: O_3  and  C_11 
REMARK    3  A    between atoms: C_4  and  O_3 
REMARK    4  A    between atoms: C_8  and  C_4 
REMARK    5  A    between atoms: C_12  and  C_4 
REMARK    6  A    between atoms: C_16  and  C_12 
REMARK    7  A    between atoms: N_15  and  C_16 
ROOT
HETATM    1  C   UNK N   1      28.207  17.271   6.402  0.00  0.00     0.163 C 
ENDROOT
BRANCH   1   2
HETATM    2  O   UNK N   1      29.416  16.938   5.805  0.00  0.00    -0.341 OA
BRANCH   2   3
HETATM    3  C   UNK N   1      30.606  17.137   6.418  0.00  0.00     0.069 A 
HETATM    4  C   UNK N   1      31.784  17.200   5.664  0.00  0.00     0.037 A 
HETATM    5  C   UNK N   1      33.016  17.373   6.290  0.00  0.00     0.019 A 
HETATM    6  C   UNK N   1      33.089  17.486   7.683  0.00  0.00     0.048 A 
HETATM    7  C   UNK N   1      31.908  17.445   8.441  0.00  0.00     0.019 A 
HETATM    8  C   UNK N   1      30.669  17.278   7.810  0.00  0.00     0.037 A 
BRANCH   6   9
HETATM    9  C   UNK N   1      34.419  17.630   8.363  0.00  0.00     0.417 C 
HETATM   10  F   UNK N   1      34.285  17.371   9.715  0.00  0.00    -0.166 F 
HETATM   11  F   UNK N   1      34.924  18.910   8.203  0.00  0.00    -0.166 F 
HETATM   12  F   UNK N   1      35.314  16.730   7.813  0.00  0.00    -0.166 F 
ENDBRANCH   6   9
ENDBRANCH   2   3
ENDBRANCH   1   2
BRANCH   1  13
HETATM   13  C   UNK N   1      27.771  18.658   5.989  0.00  0.00    -0.029 A 
HETATM   14  C   UNK N   1      27.390  18.949   4.666  0.00  0.00     0.010 A 
HETATM   15  C   UNK N   1      26.972  20.235   4.315  0.00  0.00     0.001 A 
HETATM   16  C   UNK N   1      26.932  21.243   5.280  0.00  0.00     0.000 A 
HETATM   17  C   UNK N   1      27.306  20.965   6.597  0.00  0.00     0.001 A 
HETATM   18  C   UNK N   1      27.720  19.677   6.951  0.00  0.00     0.010 A 
ENDBRANCH   1  13
BRANCH   1  19
HETATM   19  C   UNK N   1      27.131  16.186   6.205  0.00  0.00     0.056 C 
BRANCH  19  20
HETATM   20  C   UNK N   1      27.643  14.994   5.411  0.00  0.00     0.114 C 
BRANCH  20  21
HETATM   21  N   UNK N   1      27.726  15.354   4.007  0.00  0.00    -0.430 N 
HETATM   22  H   UNK N   1      27.073  14.949   3.336  0.00  0.00     0.149 HD
HETATM   23  H   UNK N   1      28.437  16.013   3.691  0.00  0.00     0.149 HD
ENDBRANCH  20  21
ENDBRANCH  19  20
ENDBRANCH   1  19
TORSDOF 7
ENDMDL
MODEL 8
REMARK VINA RESULT:      -6.0     13.942     15.666
REMARK  7 active torsions:
REMARK  status: ('A' for Active; 'I' for Inactive)
REMARK    1  A    between atoms: C_2  and  C_1 
REMARK    2  A    between atoms: O_3  and  C_11 
REMARK    3  A    between atoms: C_4  and  O_3 
REMARK    4  A    between atoms: C_8  and  C_4 
REMARK    5  A    between atoms: C_12  and  C_4 
REMARK    6  A    between atoms: C_16  and  C_12 
REMARK    7  A    between atoms: N_15  and  C_16 
ROOT
HETATM    1  C   UNK N   1      20.643  15.357   7.994  0.00  0.00     0.163 C 
ENDROOT
BRANCH   1   2
HETATM    2  O   UNK N   1      21.528  15.708   6.984  0.00  0.00    -0.341 OA
BRANCH   2   3
HETATM    3  C   UNK N   1      21.173  16.516   5.958  0.00  0.00     0.069 A 
HETATM    4  C   UNK N   1      21.813  17.749   5.781  0.00  0.00     0.037 A 
HETATM    5  C   UNK N   1      21.432  18.601   4.747  0.00  0.00     0.019 A 
HETATM    6  C   UNK N   1      20.403  18.231   3.872  0.00  0.00     0.048 A 
HETATM    7  C   UNK N   1      19.775  16.986   4.033  0.00  0.00     0.019 A 
HETATM    8  C   UNK N   1      20.164  16.128   5.070  0.00  0.00     0.037 A 
BRANCH   6   9
HETATM    9  C   UNK N   1      19.963  19.165   2.783  0.00  0.00     0.417 C 
HETATM   10  F   UNK N   1      20.261  20.469   3.134  0.00  0.00    -0.166 F 
HETATM   11  F   UNK N   1      18.598  19.064   2.563  0.00  0.00    -0.166 F 
HETATM   12  F   UNK N   1      20.624  18.846   1.611  0.00  0.00    -0.166 F 
ENDBRANCH   6   9
ENDBRANCH   2   3
ENDBRANCH   1   2
BRANCH   1  13
HETATM   13  C   UNK N   1      21.208  14.234   8.834  0.00  0.00    -0.029 A 
HETATM   14  C   UNK N   1      20.516  13.725   9.948  0.00  0.00     0.010 A 
HETATM   15  C   UNK N   1      21.052  12.673  10.696  0.00  0.00     0.001 A 
HETATM   16  C   UNK N   1      22.282  12.120  10.338  0.00  0.00     0.000 A 
HETATM   17  C   UNK N   1      22.976  12.615   9.232  0.00  0.00     0.001 A 
HETATM   18  C   UNK N   1      22.439  13.665   8.479  0.00  0.00     0.010 A 
ENDBRANCH   1  13
BRANCH   1  19
HETATM   19  C   UNK N   1      20.163  16.573   8.809  0.00  0.00     0.056 C 
BRANCH  19  20
HETATM   20  C   UNK N   1      18.672  16.832   8.647  0.00  0.00     0.114 C 
BRANCH  20  21
HETATM   21  N   UNK N   1      18.319  18.052   9.351  0.00  0.00    -0.430 N 
HETATM   22  H   UNK N   1      18.015  18.010  10.324  0.00  0.00     0.149 HD
HETATM   23  H   UNK N   1      18.377  18.951   8.873  0.00  0.00     0.149 HD
ENDBRANCH  20  21
ENDBRANCH  19  20
ENDBRANCH   1  19
TORSDOF 7
ENDMDL
MODEL 9
REMARK VINA RESULT:      -6.0      6.380      9.037
REMARK  7 active torsions:
REMARK  status: ('A' for Active; 'I' for Inactive)
REMARK    1  A    between atoms: C_2  and  C_1 
REMARK    2  A    between atoms: O_3  and  C_11 
REMARK    3  A    between atoms: C_4  and  O_3 
REMARK    4  A    between atoms: C_8  and  C_4 
REMARK    5  A    between atoms: C_12  and  C_4 
REMARK    6  A    between atoms: C_16  and  C_12 
REMARK    7  A    between atoms: N_15  and  C_16 
ROOT
HETATM    1  C   UNK N   1      31.772  16.477   7.237  0.00  0.00     0.163 C 
ENDROOT
BRANCH   1   2
HETATM    2  O   UNK N   1      30.397  16.372   7.401  0.00  0.00    -0.341 OA
BRANCH   2   3
HETATM    3  C   UNK N   1      29.561  17.414   7.191  0.00  0.00     0.069 A 
HETATM    4  C   UNK N   1      29.074  18.155   8.275  0.00  0.00     0.037 A 
HETATM    5  C   UNK N   1      28.188  19.210   8.069  0.00  0.00     0.019 A 
HETATM    6  C   UNK N   1      27.775  19.541   6.774  0.00  0.00     0.048 A 
HETATM    7  C   UNK N   1      28.278  18.814   5.683  0.00  0.00     0.019 A 
HETATM    8  C   UNK N   1      29.174  17.758   5.890  0.00  0.00     0.037 A 
BRANCH   6   9
HETATM    9  C   UNK N   1      26.788  20.649   6.553  0.00  0.00     0.417 C 
HETATM   10  F   UNK N   1      26.258  21.054   7.765  0.00  0.00    -0.166 F 
HETATM   11  F   UNK N   1      25.752  20.237   5.730  0.00  0.00    -0.166 F 
HETATM   12  F   UNK N   1      27.428  21.720   5.956  0.00  0.00    -0.166 F 
ENDBRANCH   6   9
ENDBRANCH   2   3
ENDBRANCH   1   2
BRANCH   1  13
HETATM   13  C   UNK N   1      32.149  16.333   5.780  0.00  0.00    -0.029 A 
HETATM   14  C   UNK N   1      31.961  15.125   5.084  0.00  0.00     0.010 A 
HETATM   15  C   UNK N   1      32.300  15.025   3.732  0.00  0.00     0.001 A 
HETATM   16  C   UNK N   1      32.830  16.130   3.063  0.00  0.00     0.000 A 
HETATM   17  C   UNK N   1      33.018  17.335   3.743  0.00  0.00     0.001 A 
HETATM   18  C   UNK N   1      32.674  17.438   5.096  0.00  0.00     0.010 A 
ENDBRANCH   1  13
BRANCH   1  19
HETATM   19  C   UNK N   1      32.356  17.729   7.920  0.00  0.00     0.056 C 
BRANCH  19  20
HETATM   20  C   UNK N   1      33.658  17.441   8.652  0.00  0.00     0.114 C 
BRANCH  20  21
HETATM   21  N   UNK N   1      34.606  18.505   8.378  0.00  0.00    -0.430 N 
HETATM   22  H   UNK N   1      35.100  18.960   9.146  0.00  0.00     0.149 HD
HETATM   23  H   UNK N   1      34.780  18.797   7.416  0.00  0.00     0.149 HD
ENDBRANCH  20  21
ENDBRANCH  19  20
ENDBRANCH   1  19
TORSDOF 7
ENDMDL
