REMARK  12 active torsions:
REMARK  status: ('A' for Active; 'I' for Inactive)
REMARK    1  A    between atoms: C_1  and  C_2 
REMARK    2  A    between atoms: C_3  and  C_5 
REMARK    3  A    between atoms: C_6  and  C_7 
REMARK    4  A    between atoms: C_8  and  C_10 
REMARK    5  A    between atoms: C_11  and  C_12 
REMARK    6  A    between atoms: C_13  and  C_14 
REMARK    7  A    between atoms: C_16  and  C_17 
REMARK    8  A    between atoms: C_18  and  C_19 
REMARK    9  A    between atoms: C_21  and  C_23 
REMARK   10  A    between atoms: C_27  and  O_29 
REMARK   11  A    between atoms: C_34  and  O_42 
REMARK   12  A    between atoms: C_35  and  C_37 
ROOT
HETATM    1  C   UNK N   1      -0.017  -0.664  -0.494  0.00  0.00     0.001 C 
HETATM    2  C   UNK N   1       0.019   0.674  -0.495  0.00  0.00     0.001 C 
ENDROOT
BRANCH   1   3
HETATM    3  C   UNK N   1      -1.304  -1.343  -0.495  0.00  0.00     0.007 C 
HETATM    4  C   UNK N   1      -2.272  -1.031   0.364  0.00  0.00    -0.062 C 
HETATM    5  C   UNK N   1      -2.083  -0.022   1.465  0.00  0.00     0.048 C 
BRANCH   4   6
HETATM    6  C   UNK N   1      -3.608  -1.508   0.052  0.00  0.00     0.007 C 
HETATM    7  C   UNK N   1      -4.573  -0.632  -0.225  0.00  0.00     0.001 C 
BRANCH   7   8
HETATM    8  C   UNK N   1      -4.341   0.837  -0.349  0.00  0.00     0.007 C 
HETATM    9  C   UNK N   1      -5.320   1.767  -0.389  0.00  0.00    -0.062 C 
HETATM   10  C   UNK N   1      -4.922   3.197  -0.516  0.00  0.00     0.048 C 
BRANCH   9  11
HETATM   11  C   UNK N   1      -6.767   1.444  -0.274  0.00  0.00     0.007 C 
HETATM   12  C   UNK N   1      -7.149   0.174  -0.166  0.00  0.00     0.009 C 
BRANCH  12  13
HETATM   13  C   UNK N   1      -8.494  -0.391  -0.000  0.00  0.00    -0.041 C 
HETATM   14  C   UNK N   1      -8.593  -1.748   0.032  0.00  0.00    -0.006 C 
HETATM   15  C   UNK N   1      -9.913  -2.394   0.102  0.00  0.00     0.184 C 
HETATM   16  C   UNK N   1      -7.368  -2.623  -0.030  0.00  0.00     0.052 C 
HETATM   17  O   UNK N   1     -10.006  -3.596   0.307  0.00  0.00    -0.290 OA
HETATM   18  C   UNK N   1     -11.129  -1.563  -0.159  0.00  0.00     0.193 C 
HETATM   19  C   UNK N   1     -10.982  -0.250   0.581  0.00  0.00     0.053 C 
HETATM   20  C   UNK N   1      -9.723   0.515   0.136  0.00  0.00    -0.017 C 
HETATM   21  C   UNK N   1      -9.981   1.225  -1.182  0.00  0.00     0.020 C 
HETATM   22  C   UNK N   1      -9.482   1.563   1.210  0.00  0.00     0.020 C 
BRANCH  18  23
HETATM   23  O   UNK N   1     -12.287  -2.228   0.244  0.00  0.00    -0.388 OA
HETATM   24  H   UNK N   1     -13.090  -1.762   0.524  0.00  0.00     0.210 HD
ENDBRANCH  18  23
ENDBRANCH  12  13
ENDBRANCH   9  11
ENDBRANCH   7   8
ENDBRANCH   4   6
ENDBRANCH   1   3
BRANCH   2  25
HETATM   25  C   UNK N   1       1.306   1.352  -0.498  0.00  0.00     0.007 C 
HETATM   26  C   UNK N   1       2.275   1.042   0.360  0.00  0.00    -0.062 C 
HETATM   27  C   UNK N   1       2.087   0.036   1.464  0.00  0.00     0.048 C 
BRANCH  26  28
HETATM   28  C   UNK N   1       3.610   1.518   0.047  0.00  0.00     0.007 C 
HETATM   29  C   UNK N   1       4.575   0.642  -0.231  0.00  0.00     0.001 C 
BRANCH  29  30
HETATM   30  C   UNK N   1       4.342  -0.827  -0.353  0.00  0.00     0.007 C 
HETATM   31  C   UNK N   1       5.319  -1.758  -0.392  0.00  0.00    -0.062 C 
HETATM   32  C   UNK N   1       4.921  -3.188  -0.517  0.00  0.00     0.048 C 
BRANCH  31  33
HETATM   33  C   UNK N   1       6.768  -1.435  -0.276  0.00  0.00     0.007 C 
HETATM   34  C   UNK N   1       7.150  -0.166  -0.167  0.00  0.00     0.009 C 
BRANCH  34  35
HETATM   35  C   UNK N   1       8.494   0.399  -0.001  0.00  0.00    -0.041 C 
HETATM   36  C   UNK N   1       8.593   1.756   0.033  0.00  0.00    -0.006 C 
HETATM   37  C   UNK N   1       7.368   2.631  -0.029  0.00  0.00     0.052 C 
HETATM   38  C   UNK N   1       9.913   2.402   0.103  0.00  0.00     0.184 C 
HETATM   39  O   UNK N   1      10.006   3.605   0.308  0.00  0.00    -0.290 OA
HETATM   40  C   UNK N   1      11.129   1.572  -0.158  0.00  0.00     0.193 C 
HETATM   41  C   UNK N   1      10.982   0.259   0.582  0.00  0.00     0.053 C 
HETATM   42  C   UNK N   1       9.724  -0.506   0.136  0.00  0.00    -0.017 C 
HETATM   43  C   UNK N   1       9.982  -1.215  -1.183  0.00  0.00     0.020 C 
HETATM   44  C   UNK N   1       9.482  -1.555   1.209  0.00  0.00     0.020 C 
BRANCH  40  45
HETATM   45  O   UNK N   1      12.287   2.237   0.247  0.00  0.00    -0.388 OA
HETATM   46  H   UNK N   1      13.090   1.772   0.528  0.00  0.00     0.210 HD
ENDBRANCH  40  45
ENDBRANCH  34  35
ENDBRANCH  31  33
ENDBRANCH  29  30
ENDBRANCH  26  28
ENDBRANCH   2  25
TORSDOF 12
