MODEL 1
REMARK VINA RESULT:      -7.2      0.000      0.000
REMARK  0 active torsions:
REMARK  status: ('A' for Active; 'I' for Inactive)
ROOT
HETATM    1  N   UNK N   1      36.578  11.390  15.163  0.00  0.00    -0.354 N 
HETATM    2  N   UNK N   1      36.640  12.063  12.412  0.00  0.00     0.088 N 
HETATM    3  N   UNK N   1      36.911   9.581  16.720  0.00  0.00    -0.352 N 
ATOM      4  HN  UNK N   1      37.457   9.137  15.983  1.00  0.00     0.166 HD
HETATM    5  C   UNK N   1      36.081  12.725  14.743  0.00  0.00     0.147 C 
HETATM    6  C   UNK N   1      36.641  13.149  13.369  0.00  0.00     0.301 C 
HETATM    7  C   UNK N   1      37.187  10.489  14.185  0.00  0.00     0.155 C 
HETATM    8  C   UNK N   1      37.640  11.135  12.890  0.00  0.00     0.291 C 
HETATM    9  C   UNK N   1      36.378  13.837  15.750  0.00  0.00    -0.027 A 
HETATM   10  C   UNK N   1      36.345  10.805  16.464  0.00  0.00     0.110 A 
HETATM   11  C   UNK N   1      35.774  13.810  17.014  0.00  0.00    -0.045 A 
HETATM   12  C   UNK N   1      34.858  12.704  17.368  0.00  0.00     0.081 C 
HETATM   13  C   UNK N   1      35.579  11.408  17.501  0.00  0.00    -0.010 A 
HETATM   14  C   UNK N   1      37.172  12.614  11.178  0.00  0.00     0.310 C 
HETATM   15  C   UNK N   1      37.184  14.946  15.414  0.00  0.00     0.010 A 
HETATM   16  C   UNK N   1      35.971  14.858  17.922  0.00  0.00     0.008 A 
HETATM   17  C   UNK N   1      35.446  10.746  18.724  0.00  0.00     0.012 A 
HETATM   18  C   UNK N   1      37.385  15.988  16.323  0.00  0.00     0.001 A 
HETATM   19  C   UNK N   1      36.779  15.943  17.579  0.00  0.00     0.001 A 
HETATM   20  C   UNK N   1      36.047   9.509  18.933  0.00  0.00     0.018 A 
HETATM   21  C   UNK N   1      36.779   8.934  17.905  0.00  0.00     0.089 A 
ENDROOT
TORSDOF 0
ENDMDL
MODEL 2
REMARK VINA RESULT:      -6.9     11.582     13.977
REMARK  0 active torsions:
REMARK  status: ('A' for Active; 'I' for Inactive)
ROOT
HETATM    1  N   UNK N   1      29.527  16.677   5.322  0.00  0.00    -0.354 N 
HETATM    2  N   UNK N   1      28.100  15.270   3.320  0.00  0.00     0.088 N 
HETATM    3  N   UNK N   1      31.625  16.760   6.505  0.00  0.00    -0.352 N 
ATOM      4  HN  UNK N   1      32.009  16.228   5.725  1.00  0.00     0.166 HD
HETATM    5  C   UNK N   1      28.093  16.997   5.109  0.00  0.00     0.147 C 
HETATM    6  C   UNK N   1      27.603  16.572   3.708  0.00  0.00     0.301 C 
HETATM    7  C   UNK N   1      30.211  15.732   4.440  0.00  0.00     0.155 C 
HETATM    8  C   UNK N   1      29.520  15.450   3.119  0.00  0.00     0.291 C 
HETATM    9  C   UNK N   1      27.755  18.475   5.311  0.00  0.00    -0.027 A 
HETATM   10  C   UNK N   1      30.294  17.093   6.475  0.00  0.00     0.110 A 
HETATM   11  C   UNK N   1      27.880  19.049   6.583  0.00  0.00    -0.045 A 
HETATM   12  C   UNK N   1      28.343  18.223   7.721  0.00  0.00     0.081 C 
HETATM   13  C   UNK N   1      29.771  17.830   7.574  0.00  0.00    -0.010 A 
HETATM   14  C   UNK N   1      27.547  15.004   2.004  0.00  0.00     0.310 C 
HETATM   15  C   UNK N   1      27.236  19.267   4.264  0.00  0.00     0.010 A 
HETATM   16  C   UNK N   1      27.503  20.379   6.807  0.00  0.00     0.008 A 
HETATM   17  C   UNK N   1      30.624  18.190   8.621  0.00  0.00     0.012 A 
HETATM   18  C   UNK N   1      26.866  20.596   4.487  0.00  0.00     0.001 A 
HETATM   19  C   UNK N   1      27.001  21.153   5.759  0.00  0.00     0.001 A 
HETATM   20  C   UNK N   1      31.968  17.832   8.599  0.00  0.00     0.018 A 
HETATM   21  C   UNK N   1      32.454  17.104   7.522  0.00  0.00     0.089 A 
ENDROOT
TORSDOF 0
ENDMDL
MODEL 3
REMARK VINA RESULT:      -6.9      1.675      2.781
REMARK  0 active torsions:
REMARK  status: ('A' for Active; 'I' for Inactive)
ROOT
HETATM    1  N   UNK N   1      36.804  11.162  14.520  0.00  0.00    -0.354 N 
HETATM    2  N   UNK N   1      35.510  12.961  12.756  0.00  0.00     0.088 N 
HETATM    3  N   UNK N   1      38.611   9.576  14.683  0.00  0.00    -0.352 N 
ATOM      4  HN  UNK N   1      39.012  10.052  13.875  1.00  0.00     0.166 HD
HETATM    5  C   UNK N   1      35.537  11.801  14.956  0.00  0.00     0.147 C 
HETATM    6  C   UNK N   1      35.239  13.097  14.171  0.00  0.00     0.301 C 
HETATM    7  C   UNK N   1      37.423  11.540  13.250  0.00  0.00     0.155 C 
HETATM    8  C   UNK N   1      36.948  12.851  12.654  0.00  0.00     0.291 C 
HETATM    9  C   UNK N   1      35.491  12.121  16.451  0.00  0.00    -0.027 A 
HETATM   10  C   UNK N   1      37.412  10.026  15.176  0.00  0.00     0.110 A 
HETATM   11  C   UNK N   1      35.495  11.077  17.386  0.00  0.00    -0.045 A 
HETATM   12  C   UNK N   1      35.550   9.673  16.920  0.00  0.00     0.081 C 
HETATM   13  C   UNK N   1      36.863   9.347  16.299  0.00  0.00    -0.010 A 
HETATM   14  C   UNK N   1      35.169  14.239  12.157  0.00  0.00     0.310 C 
HETATM   15  C   UNK N   1      35.358  13.445  16.922  0.00  0.00     0.010 A 
HETATM   16  C   UNK N   1      35.375  11.344  18.755  0.00  0.00     0.008 A 
HETATM   17  C   UNK N   1      37.561   8.272  16.854  0.00  0.00     0.012 A 
HETATM   18  C   UNK N   1      35.246  13.710  18.290  0.00  0.00     0.001 A 
HETATM   19  C   UNK N   1      35.256  12.659  19.207  0.00  0.00     0.001 A 
HETATM   20  C   UNK N   1      38.778   7.861  16.320  0.00  0.00     0.018 A 
HETATM   21  C   UNK N   1      39.290   8.530  15.218  0.00  0.00     0.089 A 
ENDROOT
TORSDOF 0
ENDMDL
MODEL 4
REMARK VINA RESULT:      -6.9      8.496     11.813
REMARK  0 active torsions:
REMARK  status: ('A' for Active; 'I' for Inactive)
ROOT
HETATM    1  N   UNK N   1      32.428  16.361   7.934  0.00  0.00    -0.354 N 
HETATM    2  N   UNK N   1      34.675  14.648   8.133  0.00  0.00     0.088 N 
HETATM    3  N   UNK N   1      31.080  17.935   9.164  0.00  0.00    -0.352 N 
ATOM      4  HN  UNK N   1      31.879  18.027   9.790  1.00  0.00     0.166 HD
HETATM    5  C   UNK N   1      32.719  15.432   6.812  0.00  0.00     0.147 C 
HETATM    6  C   UNK N   1      34.192  14.969   6.807  0.00  0.00     0.301 C 
HETATM    7  C   UNK N   1      33.349  16.463   9.066  0.00  0.00     0.155 C 
HETATM    8  C   UNK N   1      34.742  15.913   8.829  0.00  0.00     0.291 C 
HETATM    9  C   UNK N   1      32.389  16.006   5.434  0.00  0.00    -0.027 A 
HETATM   10  C   UNK N   1      31.180  17.072   8.101  0.00  0.00     0.110 A 
HETATM   11  C   UNK N   1      31.057  16.283   5.097  0.00  0.00    -0.045 A 
HETATM   12  C   UNK N   1      29.980  16.022   6.078  0.00  0.00     0.081 C 
HETATM   13  C   UNK N   1      30.054  16.949   7.240  0.00  0.00    -0.010 A 
HETATM   14  C   UNK N   1      36.052  14.217   7.966  0.00  0.00     0.310 C 
HETATM   15  C   UNK N   1      33.383  16.192   4.450  0.00  0.00     0.010 A 
HETATM   16  C   UNK N   1      30.724  16.736   3.815  0.00  0.00     0.008 A 
HETATM   17  C   UNK N   1      28.911  17.709   7.502  0.00  0.00     0.012 A 
HETATM   18  C   UNK N   1      33.050  16.651   3.173  0.00  0.00     0.001 A 
HETATM   19  C   UNK N   1      31.720  16.925   2.855  0.00  0.00     0.001 A 
HETATM   20  C   UNK N   1      28.864  18.574   8.590  0.00  0.00     0.018 A 
HETATM   21  C   UNK N   1      29.969  18.670   9.422  0.00  0.00     0.089 A 
ENDROOT
TORSDOF 0
ENDMDL
MODEL 5
REMARK VINA RESULT:      -6.8     14.860     15.878
REMARK  0 active torsions:
REMARK  status: ('A' for Active; 'I' for Inactive)
ROOT
HETATM    1  N   UNK N   1      23.812  13.550   7.954  0.00  0.00    -0.354 N 
HETATM    2  N   UNK N   1      24.517  14.045   5.255  0.00  0.00     0.088 N 
HETATM    3  N   UNK N   1      24.638  12.668  10.039  0.00  0.00    -0.352 N 
ATOM      4  HN  UNK N   1      25.570  12.826   9.659  1.00  0.00     0.166 HD
HETATM    5  C   UNK N   1      22.756  13.997   7.010  0.00  0.00     0.147 C 
HETATM    6  C   UNK N   1      23.344  14.713   5.776  0.00  0.00     0.301 C 
HETATM    7  C   UNK N   1      25.206  13.475   7.519  0.00  0.00     0.155 C 
HETATM    8  C   UNK N   1      25.542  14.244   6.256  0.00  0.00     0.291 C 
HETATM    9  C   UNK N   1      21.709  14.912   7.646  0.00  0.00    -0.027 A 
HETATM   10  C   UNK N   1      23.554  12.990   9.262  0.00  0.00     0.110 A 
HETATM   11  C   UNK N   1      20.859  14.410   8.642  0.00  0.00    -0.045 A 
HETATM   12  C   UNK N   1      20.985  13.001   9.074  0.00  0.00     0.081 C 
HETATM   13  C   UNK N   1      22.259  12.757   9.804  0.00  0.00    -0.010 A 
HETATM   14  C   UNK N   1      24.940  14.816   4.100  0.00  0.00     0.310 C 
HETATM   15  C   UNK N   1      21.512  16.237   7.200  0.00  0.00     0.010 A 
HETATM   16  C   UNK N   1      19.843  15.208   9.182  0.00  0.00     0.008 A 
HETATM   17  C   UNK N   1      22.145  12.228  11.092  0.00  0.00     0.012 A 
HETATM   18  C   UNK N   1      20.502  17.034   7.746  0.00  0.00     0.001 A 
HETATM   19  C   UNK N   1      19.668  16.520   8.738  0.00  0.00     0.001 A 
HETATM   20  C   UNK N   1      23.277  11.926  11.841  0.00  0.00     0.018 A 
HETATM   21  C   UNK N   1      24.530  12.150  11.288  0.00  0.00     0.089 A 
ENDROOT
TORSDOF 0
ENDMDL
MODEL 6
REMARK VINA RESULT:      -6.7     23.176     26.347
REMARK  0 active torsions:
REMARK  status: ('A' for Active; 'I' for Inactive)
ROOT
HETATM    1  N   UNK N   1      27.795  23.941  -6.250  0.00  0.00    -0.354 N 
HETATM    2  N   UNK N   1      26.108  23.745  -8.517  0.00  0.00     0.088 N 
HETATM    3  N   UNK N   1      29.947  23.296  -5.378  0.00  0.00    -0.352 N 
ATOM      4  HN  UNK N   1      30.224  23.158  -6.349  1.00  0.00     0.166 HD
HETATM    5  C   UNK N   1      26.399  24.438  -6.146  0.00  0.00     0.147 C 
HETATM    6  C   UNK N   1      25.790  24.754  -7.529  0.00  0.00     0.301 C 
HETATM    7  C   UNK N   1      28.315  23.463  -7.530  0.00  0.00     0.155 C 
HETATM    8  C   UNK N   1      27.528  23.883  -8.756  0.00  0.00     0.291 C 
HETATM    9  C   UNK N   1      26.250  25.675  -5.259  0.00  0.00    -0.027 A 
HETATM   10  C   UNK N   1      28.665  23.711  -5.118  0.00  0.00     0.110 A 
HETATM   11  C   UNK N   1      26.509  25.580  -3.885  0.00  0.00    -0.045 A 
HETATM   12  C   UNK N   1      26.930  24.286  -3.303  0.00  0.00     0.081 C 
HETATM   13  C   UNK N   1      28.292  23.893  -3.757  0.00  0.00    -0.010 A 
HETATM   14  C   UNK N   1      25.459  24.167  -9.746  0.00  0.00     0.310 C 
HETATM   15  C   UNK N   1      25.774  26.901  -5.770  0.00  0.00     0.010 A 
HETATM   16  C   UNK N   1      26.303  26.679  -3.042  0.00  0.00     0.008 A 
HETATM   17  C   UNK N   1      29.235  23.655  -2.754  0.00  0.00     0.012 A 
HETATM   18  C   UNK N   1      25.576  27.999  -4.929  0.00  0.00     0.001 A 
HETATM   19  C   UNK N   1      25.842  27.889  -3.564  0.00  0.00     0.001 A 
HETATM   20  C   UNK N   1      30.525  23.242  -3.073  0.00  0.00     0.018 A 
HETATM   21  C   UNK N   1      30.864  23.061  -4.406  0.00  0.00     0.089 A 
ENDROOT
TORSDOF 0
ENDMDL
MODEL 7
REMARK VINA RESULT:      -6.7      7.945     11.806
REMARK  0 active torsions:
REMARK  status: ('A' for Active; 'I' for Inactive)
ROOT
HETATM    1  N   UNK N   1      34.299  15.747   6.611  0.00  0.00    -0.354 N 
HETATM    2  N   UNK N   1      35.125  16.532   9.205  0.00  0.00     0.088 N 
HETATM    3  N   UNK N   1      34.829  14.281   4.773  0.00  0.00    -0.352 N 
ATOM      4  HN  UNK N   1      35.356  13.732   5.451  1.00  0.00     0.166 HD
HETATM    5  C   UNK N   1      33.632  16.908   7.252  0.00  0.00     0.147 C 
HETATM    6  C   UNK N   1      33.788  16.894   8.788  0.00  0.00     0.301 C 
HETATM    7  C   UNK N   1      35.285  14.961   7.352  0.00  0.00     0.155 C 
HETATM    8  C   UNK N   1      35.264  15.135   8.859  0.00  0.00     0.291 C 
HETATM    9  C   UNK N   1      32.143  17.024   6.919  0.00  0.00    -0.027 A 
HETATM   10  C   UNK N   1      34.191  15.416   5.208  0.00  0.00     0.110 A 
HETATM   11  C   UNK N   1      31.744  17.292   5.602  0.00  0.00    -0.045 A 
HETATM   12  C   UNK N   1      32.765  17.455   4.543  0.00  0.00     0.081 C 
HETATM   13  C   UNK N   1      33.465  16.175   4.248  0.00  0.00    -0.010 A 
HETATM   14  C   UNK N   1      35.121  16.580  10.656  0.00  0.00     0.310 C 
HETATM   15  C   UNK N   1      31.152  16.952   7.920  0.00  0.00     0.010 A 
HETATM   16  C   UNK N   1      30.392  17.479   5.290  0.00  0.00     0.008 A 
HETATM   17  C   UNK N   1      33.423  15.736   2.922  0.00  0.00     0.012 A 
HETATM   18  C   UNK N   1      29.802  17.132   7.606  0.00  0.00     0.001 A 
HETATM   19  C   UNK N   1      29.422  17.395   6.289  0.00  0.00     0.001 A 
HETATM   20  C   UNK N   1      34.081  14.573   2.536  0.00  0.00     0.018 A 
HETATM   21  C   UNK N   1      34.792  13.854   3.486  0.00  0.00     0.089 A 
ENDROOT
TORSDOF 0
ENDMDL
MODEL 8
REMARK VINA RESULT:      -6.6     22.512     26.085
REMARK  0 active torsions:
REMARK  status: ('A' for Active; 'I' for Inactive)
ROOT
HETATM    1  N   UNK N   1      28.156  23.783  -4.967  0.00  0.00    -0.354 N 
HETATM    2  N   UNK N   1      26.692  26.206  -5.073  0.00  0.00     0.088 N 
HETATM    3  N   UNK N   1      29.732  22.531  -3.641  0.00  0.00    -0.352 N 
ATOM      4  HN  UNK N   1      29.431  23.111  -2.859  1.00  0.00     0.166 HD
HETATM    5  C   UNK N   1      27.409  24.112  -6.208  0.00  0.00     0.147 C 
HETATM    6  C   UNK N   1      26.280  25.134  -5.953  0.00  0.00     0.301 C 
HETATM    7  C   UNK N   1      28.046  24.643  -3.789  0.00  0.00     0.155 C 
HETATM    8  C   UNK N   1      26.861  25.589  -3.776  0.00  0.00     0.291 C 
HETATM    9  C   UNK N   1      26.808  22.892  -6.906  0.00  0.00    -0.027 A 
HETATM   10  C   UNK N   1      29.162  22.749  -4.870  0.00  0.00     0.110 A 
HETATM   11  C   UNK N   1      27.653  21.920  -7.459  0.00  0.00    -0.045 A 
HETATM   12  C   UNK N   1      29.121  22.079  -7.357  0.00  0.00     0.081 C 
HETATM   13  C   UNK N   1      29.597  21.936  -5.954  0.00  0.00    -0.010 A 
HETATM   14  C   UNK N   1      25.544  27.085  -4.945  0.00  0.00     0.310 C 
HETATM   15  C   UNK N   1      25.415  22.753  -7.088  0.00  0.00     0.010 A 
HETATM   16  C   UNK N   1      27.126  20.835  -8.170  0.00  0.00     0.008 A 
HETATM   17  C   UNK N   1      30.565  20.955  -5.724  0.00  0.00     0.012 A 
HETATM   18  C   UNK N   1      24.889  21.666  -7.792  0.00  0.00     0.001 A 
HETATM   19  C   UNK N   1      25.745  20.706  -8.332  0.00  0.00     0.001 A 
HETATM   20  C   UNK N   1      31.105  20.771  -4.456  0.00  0.00     0.018 A 
HETATM   21  C   UNK N   1      30.675  21.582  -3.416  0.00  0.00     0.089 A 
ENDROOT
TORSDOF 0
ENDMDL
MODEL 9
REMARK VINA RESULT:      -6.4      1.684      4.767
REMARK  0 active torsions:
REMARK  status: ('A' for Active; 'I' for Inactive)
ROOT
HETATM    1  N   UNK N   1      36.988  11.297  13.217  0.00  0.00    -0.354 N 
HETATM    2  N   UNK N   1      38.668   9.109  13.858  0.00  0.00     0.088 N 
HETATM    3  N   UNK N   1      35.836  12.386  11.401  0.00  0.00    -0.352 N 
ATOM      4  HN  UNK N   1      35.916  11.498  10.907  1.00  0.00     0.166 HD
HETATM    5  C   UNK N   1      37.562  11.215  14.584  0.00  0.00     0.147 C 
HETATM    6  C   UNK N   1      37.991   9.777  14.948  0.00  0.00     0.301 C 
HETATM    7  C   UNK N   1      37.200  10.212  12.260  0.00  0.00     0.155 C 
HETATM    8  C   UNK N   1      37.649   8.891  12.856  0.00  0.00     0.291 C 
HETATM    9  C   UNK N   1      36.626  11.731  15.678  0.00  0.00    -0.027 A 
HETATM   10  C   UNK N   1      36.364  12.479  12.664  0.00  0.00     0.110 A 
HETATM   11  C   UNK N   1      36.278  13.088  15.712  0.00  0.00    -0.045 A 
HETATM   12  C   UNK N   1      36.814  14.010  14.686  0.00  0.00     0.081 C 
HETATM   13  C   UNK N   1      36.250  13.728  13.338  0.00  0.00    -0.010 A 
HETATM   14  C   UNK N   1      39.022   7.790  14.352  0.00  0.00     0.310 C 
HETATM   15  C   UNK N   1      36.163  10.892  16.714  0.00  0.00     0.010 A 
HETATM   16  C   UNK N   1      35.486  13.596  16.748  0.00  0.00     0.008 A 
HETATM   17  C   UNK N   1      35.605  14.790  12.700  0.00  0.00     0.012 A 
HETATM   18  C   UNK N   1      35.366  11.400  17.744  0.00  0.00     0.001 A 
HETATM   19  C   UNK N   1      35.026  12.753  17.760  0.00  0.00     0.001 A 
HETATM   20  C   UNK N   1      35.081  14.639  11.420  0.00  0.00     0.018 A 
HETATM   21  C   UNK N   1      35.213  13.417  10.778  0.00  0.00     0.089 A 
ENDROOT
TORSDOF 0
ENDMDL
