MODEL 1
REMARK VINA RESULT:      -6.3      0.000      0.000
REMARK  8 active torsions:
REMARK  status: ('A' for Active; 'I' for Inactive)
REMARK    1  A    between atoms: N_16  and  C_7 
REMARK    2  A    between atoms: N_17  and  C_8 
REMARK    3  A    between atoms: C_22  and  N_16 
REMARK    4  A    between atoms: C_23  and  N_17 
REMARK    5  A    between atoms: N_19  and  C_25 
REMARK    6  A    between atoms: N_20  and  C_24 
REMARK    7  A    between atoms: C_24  and  C_22 
REMARK    8  A    between atoms: C_25  and  C_23 
ROOT
HETATM    1  C   UNK N   1      21.064  15.234   7.973  0.00  0.00     0.058 A 
HETATM    2  C   UNK N   1      22.365  15.002   7.435  0.00  0.00     0.058 A 
HETATM    3  C   UNK N   1      20.586  14.400   9.123  0.00  0.00     0.198 A 
HETATM    4  C   UNK N   1      23.231  13.942   8.041  0.00  0.00     0.196 A 
HETATM    5  C   UNK N   1      21.459  13.356   9.699  0.00  0.00     0.044 A 
HETATM    6  C   UNK N   1      22.742  13.135   9.178  0.00  0.00     0.032 A 
HETATM    7  C   UNK N   1      20.249  16.255   7.414  0.00  0.00     0.043 A 
HETATM    8  C   UNK N   1      22.809  15.778   6.329  0.00  0.00     0.043 A 
HETATM    9  O   UNK N   1      19.470  14.569   9.594  0.00  0.00    -0.286 OA
HETATM   10  O   UNK N   1      24.356  13.733   7.605  0.00  0.00    -0.286 OA
HETATM   11  N   UNK N   1      21.825  11.616  11.307  0.00  0.00    -0.374 N 
ATOM     12  HN  UNK N   1      21.486  11.056  12.090  1.00  0.00     0.164 HD
HETATM   13  C   UNK N   1      21.974  16.760   5.797  0.00  0.00     0.032 A 
HETATM   14  C   UNK N   1      20.727  17.007   6.339  0.00  0.00     0.032 A 
HETATM   15  C   UNK N   1      21.018  12.574  10.776  0.00  0.00     0.104 A 
HETATM   16  C   UNK N   1      23.551  12.144   9.745  0.00  0.00     0.033 A 
HETATM   17  C   UNK N   1      23.072  11.390  10.818  0.00  0.00     0.088 A 
ENDROOT
BRANCH   7  18
HETATM   18  N   UNK N   1      18.958  16.538   7.945  0.00  0.00    -0.388 N 
HETATM   19  H   UNK N   1      18.198  15.990   7.644  0.00  0.00     0.159 HD
BRANCH  18  20
HETATM   20  C   UNK N   1      18.711  17.593   8.905  0.00  0.00     0.139 C 
BRANCH  20  21
HETATM   21  C   UNK N   1      17.332  17.478   9.531  0.00  0.00     0.130 C 
BRANCH  21  22
HETATM   22  N   UNK N   1      17.174  18.526  10.522  0.00  0.00    -0.429 N 
HETATM   23  H   UNK N   1      17.631  18.569  11.433  0.00  0.00     0.149 HD
HETATM   24  H   UNK N   1      16.544  19.293  10.286  0.00  0.00     0.149 HD
ENDBRANCH  21  22
ENDBRANCH  20  21
ENDBRANCH  18  20
ENDBRANCH   7  18
BRANCH   8  25
HETATM   25  N   UNK N   1      24.089  15.556   5.744  0.00  0.00    -0.388 N 
HETATM   26  H   UNK N   1      24.506  14.670   5.852  0.00  0.00     0.159 HD
BRANCH  25  27
HETATM   27  C   UNK N   1      24.804  16.570   4.999  0.00  0.00     0.139 C 
BRANCH  27  28
HETATM   28  C   UNK N   1      26.181  16.835   5.583  0.00  0.00     0.130 C 
BRANCH  28  29
HETATM   29  N   UNK N   1      26.329  16.073   6.810  0.00  0.00    -0.429 N 
HETATM   30  H   UNK N   1      25.836  16.239   7.688  0.00  0.00     0.149 HD
HETATM   31  H   UNK N   1      26.992  15.297   6.794  0.00  0.00     0.149 HD
ENDBRANCH  28  29
ENDBRANCH  27  28
ENDBRANCH  25  27
ENDBRANCH   8  25
TORSDOF 8
ENDMDL
MODEL 2
REMARK VINA RESULT:      -6.1      7.884     10.410
REMARK  8 active torsions:
REMARK  status: ('A' for Active; 'I' for Inactive)
REMARK    1  A    between atoms: N_16  and  C_7 
REMARK    2  A    between atoms: N_17  and  C_8 
REMARK    3  A    between atoms: C_22  and  N_16 
REMARK    4  A    between atoms: C_23  and  N_17 
REMARK    5  A    between atoms: N_19  and  C_25 
REMARK    6  A    between atoms: N_20  and  C_24 
REMARK    7  A    between atoms: C_24  and  C_22 
REMARK    8  A    between atoms: C_25  and  C_23 
ROOT
HETATM    1  C   UNK N   1      30.324  16.907   7.087  0.00  0.00     0.058 A 
HETATM    2  C   UNK N   1      29.164  17.603   6.632  0.00  0.00     0.058 A 
HETATM    3  C   UNK N   1      30.900  15.812   6.242  0.00  0.00     0.198 A 
HETATM    4  C   UNK N   1      28.556  17.234   5.314  0.00  0.00     0.196 A 
HETATM    5  C   UNK N   1      30.279  15.465   4.947  0.00  0.00     0.044 A 
HETATM    6  C   UNK N   1      29.146  16.154   4.495  0.00  0.00     0.032 A 
HETATM    7  C   UNK N   1      30.915  17.272   8.326  0.00  0.00     0.043 A 
HETATM    8  C   UNK N   1      28.604  18.626   7.445  0.00  0.00     0.043 A 
HETATM    9  O   UNK N   1      31.887  15.192   6.614  0.00  0.00    -0.286 OA
HETATM   10  O   UNK N   1      27.568  17.825   4.897  0.00  0.00    -0.286 OA
HETATM   11  N   UNK N   1      30.244  14.126   2.959  0.00  0.00    -0.374 N 
ATOM     12  HN  UNK N   1      30.647  13.378   2.394  1.00  0.00     0.164 HD
HETATM   13  C   UNK N   1      29.203  18.944   8.664  0.00  0.00     0.032 A 
HETATM   14  C   UNK N   1      30.345  18.293   9.088  0.00  0.00     0.032 A 
HETATM   15  C   UNK N   1      30.816  14.442   4.152  0.00  0.00     0.104 A 
HETATM   16  C   UNK N   1      28.579  15.810   3.262  0.00  0.00     0.033 A 
HETATM   17  C   UNK N   1      29.146  14.786   2.502  0.00  0.00     0.088 A 
ENDROOT
BRANCH   7  18
HETATM   18  N   UNK N   1      32.092  16.623   8.798  0.00  0.00    -0.388 N 
HETATM   19  H   UNK N   1      32.014  15.708   9.151  0.00  0.00     0.159 HD
BRANCH  18  20
HETATM   20  C   UNK N   1      33.400  17.246   8.781  0.00  0.00     0.139 C 
BRANCH  20  21
HETATM   21  C   UNK N   1      34.453  16.368   9.434  0.00  0.00     0.130 C 
BRANCH  21  22
HETATM   22  N   UNK N   1      34.977  17.050  10.604  0.00  0.00    -0.429 N 
HETATM   23  H   UNK N   1      34.790  16.807  11.577  0.00  0.00     0.149 HD
HETATM   24  H   UNK N   1      35.590  17.848  10.437  0.00  0.00     0.149 HD
ENDBRANCH  21  22
ENDBRANCH  20  21
ENDBRANCH  18  20
ENDBRANCH   7  18
BRANCH   8  25
HETATM   25  N   UNK N   1      27.427  19.322   7.041  0.00  0.00    -0.388 N 
HETATM   26  H   UNK N   1      26.557  18.875   7.153  0.00  0.00     0.159 HD
BRANCH  25  27
HETATM   27  C   UNK N   1      27.452  20.654   6.475  0.00  0.00     0.139 C 
BRANCH  27  28
HETATM   28  C   UNK N   1      26.267  21.485   6.933  0.00  0.00     0.130 C 
BRANCH  28  29
HETATM   29  N   UNK N   1      25.834  21.014   8.236  0.00  0.00    -0.429 N 
HETATM   30  H   UNK N   1      26.027  20.099   8.643  0.00  0.00     0.149 HD
HETATM   31  H   UNK N   1      25.281  21.661   8.800  0.00  0.00     0.149 HD
ENDBRANCH  28  29
ENDBRANCH  27  28
ENDBRANCH  25  27
ENDBRANCH   8  25
TORSDOF 8
ENDMDL
MODEL 3
REMARK VINA RESULT:      -6.1      7.727      9.464
REMARK  8 active torsions:
REMARK  status: ('A' for Active; 'I' for Inactive)
REMARK    1  A    between atoms: N_16  and  C_7 
REMARK    2  A    between atoms: N_17  and  C_8 
REMARK    3  A    between atoms: C_22  and  N_16 
REMARK    4  A    between atoms: C_23  and  N_17 
REMARK    5  A    between atoms: N_19  and  C_25 
REMARK    6  A    between atoms: N_20  and  C_24 
REMARK    7  A    between atoms: C_24  and  C_22 
REMARK    8  A    between atoms: C_25  and  C_23 
ROOT
HETATM    1  C   UNK N   1      29.302  17.381   6.704  0.00  0.00     0.058 A 
HETATM    2  C   UNK N   1      30.527  16.813   7.167  0.00  0.00     0.058 A 
HETATM    3  C   UNK N   1      28.719  16.910   5.407  0.00  0.00     0.198 A 
HETATM    4  C   UNK N   1      31.195  15.748   6.354  0.00  0.00     0.196 A 
HETATM    5  C   UNK N   1      29.401  15.861   4.621  0.00  0.00     0.044 A 
HETATM    6  C   UNK N   1      30.598  15.294   5.080  0.00  0.00     0.032 A 
HETATM    7  C   UNK N   1      28.655  18.375   7.486  0.00  0.00     0.043 A 
HETATM    8  C   UNK N   1      31.092  17.276   8.386  0.00  0.00     0.043 A 
HETATM    9  O   UNK N   1      27.678  17.390   4.982  0.00  0.00    -0.286 OA
HETATM   10  O   UNK N   1      32.239  15.236   6.736  0.00  0.00    -0.286 OA
HETATM   11  N   UNK N   1      29.486  14.446   2.687  0.00  0.00    -0.374 N 
ATOM     12  HN  UNK N   1      29.078  14.136   1.806  1.00  0.00     0.164 HD
HETATM   13  C   UNK N   1      30.435  18.266   9.117  0.00  0.00     0.032 A 
HETATM   14  C   UNK N   1      29.233  18.793   8.686  0.00  0.00     0.032 A 
HETATM   15  C   UNK N   1      28.858  15.415   3.407  0.00  0.00     0.104 A 
HETATM   16  C   UNK N   1      31.222  14.298   4.320  0.00  0.00     0.033 A 
HETATM   17  C   UNK N   1      30.647  13.884   3.117  0.00  0.00     0.088 A 
ENDROOT
BRANCH   7  18
HETATM   18  N   UNK N   1      27.416  18.943   7.074  0.00  0.00    -0.388 N 
HETATM   19  H   UNK N   1      26.637  18.349   6.980  0.00  0.00     0.159 HD
BRANCH  18  20
HETATM   20  C   UNK N   1      27.246  20.352   6.786  0.00  0.00     0.139 C 
BRANCH  20  21
HETATM   21  C   UNK N   1      26.303  20.583   5.619  0.00  0.00     0.130 C 
BRANCH  21  22
HETATM   22  N   UNK N   1      25.459  19.414   5.455  0.00  0.00    -0.429 N 
HETATM   23  H   UNK N   1      25.281  18.695   6.157  0.00  0.00     0.149 HD
HETATM   24  H   UNK N   1      25.000  19.299   4.551  0.00  0.00     0.149 HD
ENDBRANCH  21  22
ENDBRANCH  20  21
ENDBRANCH  18  20
ENDBRANCH   7  18
BRANCH   8  25
HETATM   25  N   UNK N   1      32.329  16.757   8.866  0.00  0.00    -0.388 N 
HETATM   26  H   UNK N   1      32.334  15.858   9.268  0.00  0.00     0.159 HD
BRANCH  25  27
HETATM   27  C   UNK N   1      33.575  17.488   8.792  0.00  0.00     0.139 C 
BRANCH  27  28
HETATM   28  C   UNK N   1      34.739  16.678   9.336  0.00  0.00     0.130 C 
BRANCH  28  29
HETATM   29  N   UNK N   1      34.952  17.032  10.727  0.00  0.00    -0.429 N 
HETATM   30  H   UNK N   1      35.553  16.542  11.390  0.00  0.00     0.149 HD
HETATM   31  H   UNK N   1      34.452  17.850  11.077  0.00  0.00     0.149 HD
ENDBRANCH  28  29
ENDBRANCH  27  28
ENDBRANCH  25  27
ENDBRANCH   8  25
TORSDOF 8
ENDMDL
MODEL 4
REMARK VINA RESULT:      -6.0     14.521     16.860
REMARK  8 active torsions:
REMARK  status: ('A' for Active; 'I' for Inactive)
REMARK    1  A    between atoms: N_16  and  C_7 
REMARK    2  A    between atoms: N_17  and  C_8 
REMARK    3  A    between atoms: C_22  and  N_16 
REMARK    4  A    between atoms: C_23  and  N_17 
REMARK    5  A    between atoms: N_19  and  C_25 
REMARK    6  A    between atoms: N_20  and  C_24 
REMARK    7  A    between atoms: C_24  and  C_22 
REMARK    8  A    between atoms: C_25  and  C_23 
ROOT
HETATM    1  C   UNK N   1      35.092  11.119  14.884  0.00  0.00     0.058 A 
HETATM    2  C   UNK N   1      35.465   9.886  15.497  0.00  0.00     0.058 A 
HETATM    3  C   UNK N   1      34.935  12.343  15.734  0.00  0.00     0.198 A 
HETATM    4  C   UNK N   1      35.708   9.845  16.974  0.00  0.00     0.196 A 
HETATM    5  C   UNK N   1      35.175  12.275  17.190  0.00  0.00     0.044 A 
HETATM    6  C   UNK N   1      35.553  11.066  17.792  0.00  0.00     0.032 A 
HETATM    7  C   UNK N   1      34.884  11.165  13.479  0.00  0.00     0.043 A 
HETATM    8  C   UNK N   1      35.592   8.720  14.694  0.00  0.00     0.043 A 
HETATM    9  O   UNK N   1      34.603  13.409  15.235  0.00  0.00    -0.286 OA
HETATM   10  O   UNK N   1      36.041   8.801  17.521  0.00  0.00    -0.286 OA
HETATM   11  N   UNK N   1      35.256  13.352  19.330  0.00  0.00    -0.374 N 
ATOM     12  HN  UNK N   1      35.145  14.193  19.896  1.00  0.00     0.164 HD
HETATM   13  C   UNK N   1      35.363   8.801  13.320  0.00  0.00     0.032 A 
HETATM   14  C   UNK N   1      35.034  10.002  12.722  0.00  0.00     0.032 A 
HETATM   15  C   UNK N   1      35.031  13.418  17.990  0.00  0.00     0.104 A 
HETATM   16  C   UNK N   1      35.779  11.028  19.173  0.00  0.00     0.033 A 
HETATM   17  C   UNK N   1      35.626  12.190  19.931  0.00  0.00     0.088 A 
ENDROOT
BRANCH   7  18
HETATM   18  N   UNK N   1      34.542  12.384  12.826  0.00  0.00    -0.388 N 
HETATM   19  H   UNK N   1      33.732  12.860  13.118  0.00  0.00     0.159 HD
BRANCH  18  20
HETATM   20  C   UNK N   1      35.331  12.956  11.755  0.00  0.00     0.139 C 
BRANCH  20  21
HETATM   21  C   UNK N   1      35.864  14.331  12.116  0.00  0.00     0.130 C 
BRANCH  21  22
HETATM   22  N   UNK N   1      36.795  14.201  13.222  0.00  0.00    -0.429 N 
HETATM   23  H   UNK N   1      37.426  14.925  13.567  0.00  0.00     0.149 HD
HETATM   24  H   UNK N   1      36.822  13.300  13.699  0.00  0.00     0.149 HD
ENDBRANCH  21  22
ENDBRANCH  20  21
ENDBRANCH  18  20
ENDBRANCH   7  18
BRANCH   8  25
HETATM   25  N   UNK N   1      35.932   7.463  15.273  0.00  0.00    -0.388 N 
HETATM   26  H   UNK N   1      35.346   7.097  15.974  0.00  0.00     0.159 HD
BRANCH  25  27
HETATM   27  C   UNK N   1      37.098   6.701  14.879  0.00  0.00     0.139 C 
BRANCH  27  28
HETATM   28  C   UNK N   1      38.387   7.460  15.146  0.00  0.00     0.130 C 
BRANCH  28  29
HETATM   29  N   UNK N   1      38.601   7.540  16.580  0.00  0.00    -0.429 N 
HETATM   30  H   UNK N   1      39.496   7.670  17.051  0.00  0.00     0.149 HD
HETATM   31  H   UNK N   1      37.775   7.458  17.175  0.00  0.00     0.149 HD
ENDBRANCH  28  29
ENDBRANCH  27  28
ENDBRANCH  25  27
ENDBRANCH   8  25
TORSDOF 8
ENDMDL
MODEL 5
REMARK VINA RESULT:      -6.0      3.837      6.999
REMARK  8 active torsions:
REMARK  status: ('A' for Active; 'I' for Inactive)
REMARK    1  A    between atoms: N_16  and  C_7 
REMARK    2  A    between atoms: N_17  and  C_8 
REMARK    3  A    between atoms: C_22  and  N_16 
REMARK    4  A    between atoms: C_23  and  N_17 
REMARK    5  A    between atoms: N_19  and  C_25 
REMARK    6  A    between atoms: N_20  and  C_24 
REMARK    7  A    between atoms: C_24  and  C_22 
REMARK    8  A    between atoms: C_25  and  C_23 
ROOT
HETATM    1  C   UNK N   1      24.632  18.277   4.389  0.00  0.00     0.058 A 
HETATM    2  C   UNK N   1      23.233  18.503   4.217  0.00  0.00     0.058 A 
HETATM    3  C   UNK N   1      25.091  17.102   5.197  0.00  0.00     0.198 A 
HETATM    4  C   UNK N   1      22.255  17.552   4.835  0.00  0.00     0.196 A 
HETATM    5  C   UNK N   1      24.106  16.181   5.801  0.00  0.00     0.044 A 
HETATM    6  C   UNK N   1      22.731  16.396   5.624  0.00  0.00     0.032 A 
HETATM    7  C   UNK N   1      25.561  19.165   3.784  0.00  0.00     0.043 A 
HETATM    8  C   UNK N   1      22.798  19.631   3.470  0.00  0.00     0.043 A 
HETATM    9  O   UNK N   1      26.284  16.893   5.370  0.00  0.00    -0.286 OA
HETATM   10  O   UNK N   1      21.051  17.718   4.691  0.00  0.00    -0.286 OA
HETATM   11  N   UNK N   1      23.620  14.232   7.108  0.00  0.00    -0.374 N 
ATOM     12  HN  UNK N   1      23.948  13.436   7.656  1.00  0.00     0.164 HD
HETATM   13  C   UNK N   1      23.740  20.489   2.905  0.00  0.00     0.032 A 
HETATM   14  C   UNK N   1      25.094  20.252   3.043  0.00  0.00     0.032 A 
HETATM   15  C   UNK N   1      24.530  15.079   6.557  0.00  0.00     0.104 A 
HETATM   16  C   UNK N   1      21.818  15.507   6.201  0.00  0.00     0.033 A 
HETATM   17  C   UNK N   1      22.284  14.422   6.945  0.00  0.00     0.088 A 
ENDROOT
BRANCH   7  18
HETATM   18  N   UNK N   1      26.965  18.954   3.905  0.00  0.00    -0.388 N 
HETATM   19  H   UNK N   1      27.349  18.130   3.530  0.00  0.00     0.159 HD
BRANCH  18  20
HETATM   20  C   UNK N   1      27.853  19.896   4.555  0.00  0.00     0.139 C 
BRANCH  20  21
HETATM   21  C   UNK N   1      27.331  20.321   5.916  0.00  0.00     0.130 C 
BRANCH  21  22
HETATM   22  N   UNK N   1      27.518  19.231   6.855  0.00  0.00    -0.429 N 
HETATM   23  H   UNK N   1      28.214  19.189   7.600  0.00  0.00     0.149 HD
HETATM   24  H   UNK N   1      26.893  18.430   6.763  0.00  0.00     0.149 HD
ENDBRANCH  21  22
ENDBRANCH  20  21
ENDBRANCH  18  20
ENDBRANCH   7  18
BRANCH   8  25
HETATM   25  N   UNK N   1      21.410  19.908   3.302  0.00  0.00    -0.388 N 
HETATM   26  H   UNK N   1      20.865  20.071   4.105  0.00  0.00     0.159 HD
BRANCH  25  27
HETATM   27  C   UNK N   1      20.765  19.961   2.007  0.00  0.00     0.139 C 
BRANCH  27  28
HETATM   28  C   UNK N   1      20.267  18.595   1.568  0.00  0.00     0.130 C 
BRANCH  28  29
HETATM   29  N   UNK N   1      19.059  18.271   2.305  0.00  0.00    -0.429 N 
HETATM   30  H   UNK N   1      18.975  17.587   3.056  0.00  0.00     0.149 HD
HETATM   31  H   UNK N   1      18.211  18.778   2.047  0.00  0.00     0.149 HD
ENDBRANCH  28  29
ENDBRANCH  27  28
ENDBRANCH  25  27
ENDBRANCH   8  25
TORSDOF 8
ENDMDL
MODEL 6
REMARK VINA RESULT:      -6.0      7.787     10.361
REMARK  8 active torsions:
REMARK  status: ('A' for Active; 'I' for Inactive)
REMARK    1  A    between atoms: N_16  and  C_7 
REMARK    2  A    between atoms: N_17  and  C_8 
REMARK    3  A    between atoms: C_22  and  N_16 
REMARK    4  A    between atoms: C_23  and  N_17 
REMARK    5  A    between atoms: N_19  and  C_25 
REMARK    6  A    between atoms: N_20  and  C_24 
REMARK    7  A    between atoms: C_24  and  C_22 
REMARK    8  A    between atoms: C_25  and  C_23 
ROOT
HETATM    1  C   UNK N   1      30.643  16.977   5.029  0.00  0.00     0.058 A 
HETATM    2  C   UNK N   1      31.831  16.997   5.820  0.00  0.00     0.058 A 
HETATM    3  C   UNK N   1      29.334  17.334   5.663  0.00  0.00     0.198 A 
HETATM    4  C   UNK N   1      31.745  17.390   7.263  0.00  0.00     0.196 A 
HETATM    5  C   UNK N   1      29.275  17.714   7.090  0.00  0.00     0.044 A 
HETATM    6  C   UNK N   1      30.443  17.744   7.865  0.00  0.00     0.032 A 
HETATM    7  C   UNK N   1      30.727  16.627   3.655  0.00  0.00     0.043 A 
HETATM    8  C   UNK N   1      33.070  16.637   5.225  0.00  0.00     0.043 A 
HETATM    9  O   UNK N   1      28.299  17.312   5.011  0.00  0.00    -0.286 OA
HETATM   10  O   UNK N   1      32.752  17.428   7.958  0.00  0.00    -0.286 OA
HETATM   11  N   UNK N   1      28.002  18.402   9.001  0.00  0.00    -0.374 N 
ATOM     12  HN  UNK N   1      27.103  18.643   9.419  1.00  0.00     0.164 HD
HETATM   13  C   UNK N   1      33.109  16.282   3.876  0.00  0.00     0.032 A 
HETATM   14  C   UNK N   1      31.965  16.295   3.102  0.00  0.00     0.032 A 
HETATM   15  C   UNK N   1      28.052  18.050   7.688  0.00  0.00     0.104 A 
HETATM   16  C   UNK N   1      30.362  18.112   9.214  0.00  0.00     0.033 A 
HETATM   17  C   UNK N   1      29.124  18.441   9.768  0.00  0.00     0.088 A 
ENDROOT
BRANCH   7  18
HETATM   18  N   UNK N   1      29.569  16.627   2.825  0.00  0.00    -0.388 N 
HETATM   19  H   UNK N   1      29.109  17.481   2.662  0.00  0.00     0.159 HD
BRANCH  18  20
HETATM   20  C   UNK N   1      29.037  15.429   2.209  0.00  0.00     0.139 C 
BRANCH  20  21
HETATM   21  C   UNK N   1      27.531  15.329   2.373  0.00  0.00     0.130 C 
BRANCH  21  22
HETATM   22  N   UNK N   1      27.231  14.846   3.708  0.00  0.00    -0.429 N 
HETATM   23  H   UNK N   1      26.557  14.119   3.950  0.00  0.00     0.149 HD
HETATM   24  H   UNK N   1      27.743  15.275   4.480  0.00  0.00     0.149 HD
ENDBRANCH  21  22
ENDBRANCH  20  21
ENDBRANCH  18  20
ENDBRANCH   7  18
BRANCH   8  25
HETATM   25  N   UNK N   1      34.273  16.614   5.988  0.00  0.00    -0.388 N 
HETATM   26  H   UNK N   1      34.547  17.438   6.454  0.00  0.00     0.159 HD
BRANCH  25  27
HETATM   27  C   UNK N   1      35.110  15.440   6.111  0.00  0.00     0.139 C 
BRANCH  27  28
HETATM   28  C   UNK N   1      34.802  14.656   7.375  0.00  0.00     0.130 C 
BRANCH  28  29
HETATM   29  N   UNK N   1      34.992  15.520   8.526  0.00  0.00    -0.429 N 
HETATM   30  H   UNK N   1      35.819  16.080   8.731  0.00  0.00     0.149 HD
HETATM   31  H   UNK N   1      34.223  15.572   9.196  0.00  0.00     0.149 HD
ENDBRANCH  28  29
ENDBRANCH  27  28
ENDBRANCH  25  27
ENDBRANCH   8  25
TORSDOF 8
ENDMDL
MODEL 7
REMARK VINA RESULT:      -5.9      7.533      8.533
REMARK  8 active torsions:
REMARK  status: ('A' for Active; 'I' for Inactive)
REMARK    1  A    between atoms: N_16  and  C_7 
REMARK    2  A    between atoms: N_17  and  C_8 
REMARK    3  A    between atoms: C_22  and  N_16 
REMARK    4  A    between atoms: C_23  and  N_17 
REMARK    5  A    between atoms: N_19  and  C_25 
REMARK    6  A    between atoms: N_20  and  C_24 
REMARK    7  A    between atoms: C_24  and  C_22 
REMARK    8  A    between atoms: C_25  and  C_23 
ROOT
HETATM    1  C   UNK N   1      28.347  17.660   5.672  0.00  0.00     0.058 A 
HETATM    2  C   UNK N   1      29.069  16.766   4.826  0.00  0.00     0.058 A 
HETATM    3  C   UNK N   1      28.911  18.016   7.014  0.00  0.00     0.198 A 
HETATM    4  C   UNK N   1      30.382  16.215   5.290  0.00  0.00     0.196 A 
HETATM    5  C   UNK N   1      30.206  17.455   7.450  0.00  0.00     0.044 A 
HETATM    6  C   UNK N   1      30.922  16.585   6.616  0.00  0.00     0.032 A 
HETATM    7  C   UNK N   1      27.113  18.201   5.223  0.00  0.00     0.043 A 
HETATM    8  C   UNK N   1      28.523  16.410   3.562  0.00  0.00     0.043 A 
HETATM    9  O   UNK N   1      28.306  18.770   7.763  0.00  0.00    -0.286 OA
HETATM   10  O   UNK N   1      31.026  15.457   4.577  0.00  0.00    -0.286 OA
HETATM   11  N   UNK N   1      31.933  17.272   9.103  0.00  0.00    -0.374 N 
ATOM     12  HN  UNK N   1      32.305  17.523  10.019  1.00  0.00     0.164 HD
HETATM   13  C   UNK N   1      27.300  16.949   3.164  0.00  0.00     0.032 A 
HETATM   14  C   UNK N   1      26.617  17.840   3.969  0.00  0.00     0.032 A 
HETATM   15  C   UNK N   1      30.739  17.787   8.704  0.00  0.00     0.104 A 
HETATM   16  C   UNK N   1      32.149  16.072   7.050  0.00  0.00     0.033 A 
HETATM   17  C   UNK N   1      32.643  16.429   8.306  0.00  0.00     0.088 A 
ENDROOT
BRANCH   7  18
HETATM   18  N   UNK N   1      26.379  19.121   6.025  0.00  0.00    -0.388 N 
HETATM   19  H   UNK N   1      26.030  18.813   6.891  0.00  0.00     0.159 HD
BRANCH  18  20
HETATM   20  C   UNK N   1      26.123  20.490   5.626  0.00  0.00     0.139 C 
BRANCH  20  21
HETATM   21  C   UNK N   1      26.486  21.477   6.721  0.00  0.00     0.130 C 
BRANCH  21  22
HETATM   22  N   UNK N   1      26.029  20.957   7.997  0.00  0.00    -0.429 N 
HETATM   23  H   UNK N   1      26.455  21.132   8.907  0.00  0.00     0.149 HD
HETATM   24  H   UNK N   1      25.202  20.359   7.981  0.00  0.00     0.149 HD
ENDBRANCH  21  22
ENDBRANCH  20  21
ENDBRANCH  18  20
ENDBRANCH   7  18
BRANCH   8  25
HETATM   25  N   UNK N   1      29.198  15.496   2.702  0.00  0.00    -0.388 N 
HETATM   26  H   UNK N   1      30.182  15.521   2.673  0.00  0.00     0.159 HD
BRANCH  25  27
HETATM   27  C   UNK N   1      28.507  14.535   1.871  0.00  0.00     0.139 C 
BRANCH  27  28
HETATM   28  C   UNK N   1      29.247  13.211   1.800  0.00  0.00     0.130 C 
BRANCH  28  29
HETATM   29  N   UNK N   1      30.483  13.319   2.555  0.00  0.00    -0.429 N 
HETATM   30  H   UNK N   1      30.706  14.031   3.250  0.00  0.00     0.149 HD
HETATM   31  H   UNK N   1      31.199  12.614   2.371  0.00  0.00     0.149 HD
ENDBRANCH  28  29
ENDBRANCH  27  28
ENDBRANCH  25  27
ENDBRANCH   8  25
TORSDOF 8
ENDMDL
MODEL 8
REMARK VINA RESULT:      -5.9      3.960      5.906
REMARK  8 active torsions:
REMARK  status: ('A' for Active; 'I' for Inactive)
REMARK    1  A    between atoms: N_16  and  C_7 
REMARK    2  A    between atoms: N_17  and  C_8 
REMARK    3  A    between atoms: C_22  and  N_16 
REMARK    4  A    between atoms: C_23  and  N_17 
REMARK    5  A    between atoms: N_19  and  C_25 
REMARK    6  A    between atoms: N_20  and  C_24 
REMARK    7  A    between atoms: C_24  and  C_22 
REMARK    8  A    between atoms: C_25  and  C_23 
ROOT
HETATM    1  C   UNK N   1      23.586  18.374   4.300  0.00  0.00     0.058 A 
HETATM    2  C   UNK N   1      24.995  18.205   4.454  0.00  0.00     0.058 A 
HETATM    3  C   UNK N   1      22.656  17.368   4.907  0.00  0.00     0.198 A 
HETATM    4  C   UNK N   1      25.512  17.035   5.233  0.00  0.00     0.196 A 
HETATM    5  C   UNK N   1      23.192  16.220   5.667  0.00  0.00     0.044 A 
HETATM    6  C   UNK N   1      24.576  16.059   5.828  0.00  0.00     0.032 A 
HETATM    7  C   UNK N   1      23.093  19.495   3.581  0.00  0.00     0.043 A 
HETATM    8  C   UNK N   1      25.878  19.146   3.858  0.00  0.00     0.043 A 
HETATM    9  O   UNK N   1      21.445  17.483   4.778  0.00  0.00    -0.286 OA
HETATM   10  O   UNK N   1      26.716  16.876   5.390  0.00  0.00    -0.286 OA
HETATM   11  N   UNK N   1      22.823  14.223   6.941  0.00  0.00    -0.374 N 
ATOM     12  HN  UNK N   1      22.178  13.547   7.348  1.00  0.00     0.164 HD
HETATM   13  C   UNK N   1      25.356  20.225   3.145  0.00  0.00     0.032 A 
HETATM   14  C   UNK N   1      23.991  20.407   3.024  0.00  0.00     0.032 A 
HETATM   15  C   UNK N   1      22.326  15.278   6.239  0.00  0.00     0.104 A 
HETATM   16  C   UNK N   1      25.059  14.966   6.557  0.00  0.00     0.033 A 
HETATM   17  C   UNK N   1      24.161  14.052   7.110  0.00  0.00     0.088 A 
ENDROOT
BRANCH   7  18
HETATM   18  N   UNK N   1      21.694  19.716   3.433  0.00  0.00    -0.388 N 
HETATM   19  H   UNK N   1      21.074  19.160   3.957  0.00  0.00     0.159 HD
BRANCH  18  20
HETATM   20  C   UNK N   1      21.139  20.720   2.549  0.00  0.00     0.139 C 
BRANCH  20  21
HETATM   21  C   UNK N   1      20.779  20.143   1.191  0.00  0.00     0.130 C 
BRANCH  21  22
HETATM   22  N   UNK N   1      20.380  21.224   0.309  0.00  0.00    -0.429 N 
HETATM   23  H   UNK N   1      20.881  22.102   0.166  0.00  0.00     0.149 HD
HETATM   24  H   UNK N   1      19.516  21.095  -0.218  0.00  0.00     0.149 HD
ENDBRANCH  21  22
ENDBRANCH  20  21
ENDBRANCH  18  20
ENDBRANCH   7  18
BRANCH   8  25
HETATM   25  N   UNK N   1      27.291  18.995   3.963  0.00  0.00    -0.388 N 
HETATM   26  H   UNK N   1      27.710  18.209   3.544  0.00  0.00     0.159 HD
BRANCH  25  27
HETATM   27  C   UNK N   1      28.138  19.942   4.656  0.00  0.00     0.139 C 
BRANCH  27  28
HETATM   28  C   UNK N   1      27.630  20.235   6.057  0.00  0.00     0.130 C 
BRANCH  28  29
HETATM   29  N   UNK N   1      27.267  21.638   6.145  0.00  0.00    -0.429 N 
HETATM   30  H   UNK N   1      27.209  22.194   6.998  0.00  0.00     0.149 HD
HETATM   31  H   UNK N   1      27.047  22.113   5.269  0.00  0.00     0.149 HD
ENDBRANCH  28  29
ENDBRANCH  27  28
ENDBRANCH  25  27
ENDBRANCH   8  25
TORSDOF 8
ENDMDL
MODEL 9
REMARK VINA RESULT:      -5.9      7.827     11.630
REMARK  8 active torsions:
REMARK  status: ('A' for Active; 'I' for Inactive)
REMARK    1  A    between atoms: N_16  and  C_7 
REMARK    2  A    between atoms: N_17  and  C_8 
REMARK    3  A    between atoms: C_22  and  N_16 
REMARK    4  A    between atoms: C_23  and  N_17 
REMARK    5  A    between atoms: N_19  and  C_25 
REMARK    6  A    between atoms: N_20  and  C_24 
REMARK    7  A    between atoms: C_24  and  C_22 
REMARK    8  A    between atoms: C_25  and  C_23 
ROOT
HETATM    1  C   UNK N   1      32.197  16.863   7.076  0.00  0.00     0.058 A 
HETATM    2  C   UNK N   1      32.146  16.720   5.657  0.00  0.00     0.058 A 
HETATM    3  C   UNK N   1      30.975  17.325   7.810  0.00  0.00     0.198 A 
HETATM    4  C   UNK N   1      30.869  17.018   4.934  0.00  0.00     0.196 A 
HETATM    5  C   UNK N   1      29.729  17.617   7.073  0.00  0.00     0.044 A 
HETATM    6  C   UNK N   1      29.675  17.466   5.681  0.00  0.00     0.032 A 
HETATM    7  C   UNK N   1      33.401  16.558   7.765  0.00  0.00     0.043 A 
HETATM    8  C   UNK N   1      33.312  16.303   4.958  0.00  0.00     0.043 A 
HETATM    9  O   UNK N   1      30.996  17.468   9.025  0.00  0.00    -0.286 OA
HETATM   10  O   UNK N   1      30.797  16.890   3.719  0.00  0.00    -0.286 OA
HETATM   11  N   UNK N   1      27.435  18.313   7.075  0.00  0.00    -0.374 N 
ATOM     12  HN  UNK N   1      26.611  18.627   7.589  1.00  0.00     0.164 HD
HETATM   13  C   UNK N   1      34.480  16.030   5.668  0.00  0.00     0.032 A 
HETATM   14  C   UNK N   1      34.520  16.137   7.045  0.00  0.00     0.032 A 
HETATM   15  C   UNK N   1      28.582  18.048   7.756  0.00  0.00     0.104 A 
HETATM   16  C   UNK N   1      28.480  17.745   5.006  0.00  0.00     0.033 A 
HETATM   17  C   UNK N   1      27.362  18.170   5.726  0.00  0.00     0.088 A 
ENDROOT
BRANCH   7  18
HETATM   18  N   UNK N   1      33.481  16.658   9.183  0.00  0.00    -0.388 N 
HETATM   19  H   UNK N   1      32.928  17.333   9.638  0.00  0.00     0.159 HD
BRANCH  18  20
HETATM   20  C   UNK N   1      34.338  15.813   9.989  0.00  0.00     0.139 C 
BRANCH  20  21
HETATM   21  C   UNK N   1      35.363  16.621  10.765  0.00  0.00     0.130 C 
BRANCH  21  22
HETATM   22  N   UNK N   1      36.517  15.783  11.037  0.00  0.00    -0.429 N 
HETATM   23  H   UNK N   1      36.498  14.824  11.384  0.00  0.00     0.149 HD
HETATM   24  H   UNK N   1      37.436  16.193  10.864  0.00  0.00     0.149 HD
ENDBRANCH  21  22
ENDBRANCH  20  21
ENDBRANCH  18  20
ENDBRANCH   7  18
BRANCH   8  25
HETATM   25  N   UNK N   1      33.311  16.178   3.538  0.00  0.00    -0.388 N 
HETATM   26  H   UNK N   1      33.094  16.973   2.998  0.00  0.00     0.159 HD
BRANCH  25  27
HETATM   27  C   UNK N   1      33.612  14.940   2.853  0.00  0.00     0.139 C 
BRANCH  27  28
HETATM   28  C   UNK N   1      32.702  13.809   3.301  0.00  0.00     0.130 C 
BRANCH  28  29
HETATM   29  N   UNK N   1      31.356  14.068   2.825  0.00  0.00    -0.429 N 
HETATM   30  H   UNK N   1      30.902  14.980   2.762  0.00  0.00     0.149 HD
HETATM   31  H   UNK N   1      30.809  13.260   2.525  0.00  0.00     0.149 HD
ENDBRANCH  28  29
ENDBRANCH  27  28
ENDBRANCH  25  27
ENDBRANCH   8  25
TORSDOF 8
ENDMDL
