MODEL 1
REMARK VINA RESULT:      -7.8      0.000      0.000
REMARK  13 active torsions:
REMARK  status: ('A' for Active; 'I' for Inactive)
REMARK    1  A    between atoms: C_3  and  C_24 
REMARK    2  A    between atoms: C_4  and  S_14 
REMARK    3  A    between atoms: C_7  and  N_9 
REMARK       I    between atoms: N_9  and  C_10 
REMARK    4  A    between atoms: C_10  and  C_13 
REMARK    5  A    between atoms: C_13  and  C_15 
REMARK    6  A    between atoms: S_14  and  C_35 
REMARK    7  A    between atoms: C_19  and  N_27 
REMARK    8  A    between atoms: N_22  and  O_28 
REMARK    9  A    between atoms: N_27  and  P_31 
REMARK   10  A    between atoms: O_28  and  C_29 
REMARK   11  A    between atoms: P_31  and  O_32 
REMARK   12  A    between atoms: P_31  and  O_33 
REMARK   13  A    between atoms: C_38  and  C_41 
ROOT
HETATM    1  C   UNK N   1      33.516  14.501   7.419  0.00  0.00     0.187 C 
HETATM    2  N   UNK N   1      34.089  15.497   8.258  0.00  0.00    -0.292 N 
HETATM    3  C   UNK N   1      35.237  15.418   9.086  0.00  0.00     0.129 C 
HETATM    4  C   UNK N   1      36.252  14.640   8.629  0.00  0.00     0.028 C 
HETATM    5  C   UNK N   1      36.223  14.257   7.154  0.00  0.00     0.124 C 
HETATM    6  S   UNK N   1      34.703  13.614   6.375  0.00  0.00    -0.135 SA
HETATM    7  C   UNK N   1      32.626  15.692   6.768  0.00  0.00     0.211 C 
HETATM    8  C   UNK N   1      33.292  16.441   7.875  0.00  0.00     0.251 C 
HETATM    9  O   UNK N   1      33.328  17.623   8.172  0.00  0.00    -0.271 OA
ENDROOT
BRANCH   7  10
HETATM   10  N   UNK N   1      33.270  16.238   5.595  0.00  0.00    -0.339 N 
HETATM   11  C   UNK N   1      32.631  16.403   4.420  0.00  0.00     0.274 C 
HETATM   12  O   UNK N   1      33.123  17.133   3.572  0.00  0.00    -0.266 OA
HETATM   13  H   UNK N   1      34.216  16.500   5.658  0.00  0.00     0.163 HD
BRANCH  11  14
HETATM   14  C   UNK N   1      31.338  15.752   4.154  0.00  0.00     0.166 C 
HETATM   15  N   UNK N   1      31.258  14.488   3.862  0.00  0.00    -0.258 N 
ATOM     16  HN  UNK N   1      30.329  14.078   3.763  1.00  0.00     0.194 HD
BRANCH  14  17
HETATM   17  C   UNK N   1      30.099  16.491   4.426  0.00  0.00     0.148 A 
HETATM   18  N   UNK N   1      29.324  16.995   3.414  0.00  0.00    -0.307 N 
HETATM   19  S   UNK N   1      27.982  17.531   4.183  0.00  0.00     0.024 SA
ATOM     20  HN  UNK N   1      29.536  17.028   2.416  1.00  0.00     0.176 HD
HETATM   21  C   UNK N   1      28.352  17.135   5.719  0.00  0.00     0.171 A 
HETATM   22  N   UNK N   1      29.574  16.556   5.717  0.00  0.00    -0.319 N 
ATOM     23  HN  UNK N   1      30.050  16.212   6.550  1.00  0.00     0.169 HD
BRANCH  21  24
HETATM   24  N   UNK N   1      27.499  17.176   6.847  0.00  0.00    -0.278 N 
HETATM   25  H   UNK N   1      26.576  16.844   6.766  0.00  0.00     0.173 HD
BRANCH  24  26
HETATM   26  P   UNK N   1      28.064  17.818   8.412  0.00  0.00     0.349 P 
HETATM   27  O   UNK N   1      27.541  16.860   9.514  0.00  0.00    -0.637 OA
BRANCH  26  28
HETATM   28  O   UNK N   1      29.798  17.829   8.471  0.00  0.00    -0.313 OA
HETATM   29  H   UNK N   1      30.443  18.029   7.776  0.00  0.00     0.221 HD
ENDBRANCH  26  28
BRANCH  26  30
HETATM   30  O   UNK N   1      27.386  19.392   8.699  0.00  0.00    -0.313 OA
HETATM   31  H   UNK N   1      26.768  20.102   8.933  0.00  0.00     0.221 HD
ENDBRANCH  26  30
ENDBRANCH  24  26
ENDBRANCH  21  24
ENDBRANCH  14  17
BRANCH  15  32
HETATM   32  O   UNK N   1      32.307  13.695   3.682  0.00  0.00    -0.280 OA
BRANCH  32  33
HETATM   33  C   UNK N   1      32.783  13.332   2.441  0.00  0.00     0.196 C 
HETATM   34  C   UNK N   1      34.204  13.831   2.280  0.00  0.00     0.036 C 
ENDBRANCH  32  33
ENDBRANCH  15  32
ENDBRANCH  11  14
ENDBRANCH   7  10
BRANCH   3  35
HETATM   35  C   UNK N   1      35.296  16.217  10.348  0.00  0.00     0.228 C 
HETATM   36  O   UNK N   1      35.749  17.484  10.359  0.00  0.00    -0.643 OA
HETATM   37  O   UNK N   1      34.852  15.745  11.382  0.00  0.00    -0.643 OA
ENDBRANCH   3  35
BRANCH   4  38
HETATM   38  S   UNK N   1      37.768  14.302   9.601  0.00  0.00    -0.066 SA
BRANCH  38  39
HETATM   39  C   UNK N   1      37.062  13.281  10.909  0.00  0.00     0.117 A 
HETATM   40  S   UNK N   1      36.375  11.794  10.733  0.00  0.00    -0.074 SA
HETATM   41  C   UNK N   1      35.911  11.558  12.316  0.00  0.00     0.082 A 
HETATM   42  C   UNK N   1      36.317  12.735  12.982  0.00  0.00     0.050 A 
HETATM   43  N   UNK N   1      36.964  13.658  12.199  0.00  0.00    -0.344 N 
ATOM     44  HN  UNK N   1      37.333  14.539  12.557  1.00  0.00     0.167 HD
BRANCH  42  45
HETATM   45  C   UNK N   1      36.094  13.015  14.408  0.00  0.00    -0.006 A 
HETATM   46  C   UNK N   1      36.795  14.019  15.080  0.00  0.00     0.031 A 
HETATM   47  C   UNK N   1      36.480  14.294  16.415  0.00  0.00     0.090 A 
HETATM   48  N   UNK N   1      35.517  13.576  17.057  0.00  0.00    -0.371 N 
HETATM   49  C   UNK N   1      34.850  12.572  16.431  0.00  0.00     0.090 A 
HETATM   50  C   UNK N   1      35.177  13.900  18.429  0.00  0.00     0.154 C 
HETATM   51  C   UNK N   1      35.121  12.281  15.097  0.00  0.00     0.031 A 
ENDBRANCH  42  45
ENDBRANCH  38  39
ENDBRANCH   4  38
TORSDOF 13
ENDMDL
MODEL 2
REMARK VINA RESULT:      -7.7      1.611      2.022
REMARK  13 active torsions:
REMARK  status: ('A' for Active; 'I' for Inactive)
REMARK    1  A    between atoms: C_3  and  C_24 
REMARK    2  A    between atoms: C_4  and  S_14 
REMARK    3  A    between atoms: C_7  and  N_9 
REMARK       I    between atoms: N_9  and  C_10 
REMARK    4  A    between atoms: C_10  and  C_13 
REMARK    5  A    between atoms: C_13  and  C_15 
REMARK    6  A    between atoms: S_14  and  C_35 
REMARK    7  A    between atoms: C_19  and  N_27 
REMARK    8  A    between atoms: N_22  and  O_28 
REMARK    9  A    between atoms: N_27  and  P_31 
REMARK   10  A    between atoms: O_28  and  C_29 
REMARK   11  A    between atoms: P_31  and  O_32 
REMARK   12  A    between atoms: P_31  and  O_33 
REMARK   13  A    between atoms: C_38  and  C_41 
ROOT
HETATM    1  C   UNK N   1      33.246  14.067   8.239  0.00  0.00     0.187 C 
HETATM    2  N   UNK N   1      33.901  15.195   8.805  0.00  0.00    -0.292 N 
HETATM    3  C   UNK N   1      35.175  15.276   9.422  0.00  0.00     0.129 C 
HETATM    4  C   UNK N   1      36.136  14.461   8.916  0.00  0.00     0.028 C 
HETATM    5  C   UNK N   1      35.878  13.850   7.544  0.00  0.00     0.124 C 
HETATM    6  S   UNK N   1      34.284  13.056   7.149  0.00  0.00    -0.135 SA
HETATM    7  C   UNK N   1      32.198  15.118   7.582  0.00  0.00     0.211 C 
HETATM    8  C   UNK N   1      33.003  16.048   8.430  0.00  0.00     0.251 C 
HETATM    9  O   UNK N   1      33.028  17.263   8.535  0.00  0.00    -0.271 OA
ENDROOT
BRANCH   7  10
HETATM   10  N   UNK N   1      32.606  15.489   6.246  0.00  0.00    -0.339 N 
HETATM   11  C   UNK N   1      31.753  15.516   5.203  0.00  0.00     0.274 C 
HETATM   12  O   UNK N   1      32.074  16.116   4.188  0.00  0.00    -0.266 OA
HETATM   13  H   UNK N   1      33.547  15.731   6.092  0.00  0.00     0.163 HD
BRANCH  11  14
HETATM   14  C   UNK N   1      30.432  14.872   5.278  0.00  0.00     0.166 C 
HETATM   15  N   UNK N   1      30.304  13.578   5.298  0.00  0.00    -0.258 N 
ATOM     16  HN  UNK N   1      29.369  13.192   5.426  1.00  0.00     0.194 HD
BRANCH  14  17
HETATM   17  C   UNK N   1      29.249  15.699   5.542  0.00  0.00     0.148 A 
HETATM   18  N   UNK N   1      28.014  15.144   5.751  0.00  0.00    -0.307 N 
HETATM   19  S   UNK N   1      27.088  16.416   6.204  0.00  0.00     0.024 SA
ATOM     20  HN  UNK N   1      27.737  14.167   5.649  1.00  0.00     0.176 HD
HETATM   21  C   UNK N   1      28.194  17.611   6.152  0.00  0.00     0.171 A 
HETATM   22  N   UNK N   1      29.372  17.071   5.763  0.00  0.00    -0.319 N 
ATOM     23  HN  UNK N   1      30.236  17.598   5.647  1.00  0.00     0.169 HD
BRANCH  21  24
HETATM   24  N   UNK N   1      28.049  18.938   6.621  0.00  0.00    -0.278 N 
HETATM   25  H   UNK N   1      28.468  19.197   7.474  0.00  0.00     0.173 HD
BRANCH  24  26
HETATM   26  P   UNK N   1      27.122  20.150   5.697  0.00  0.00     0.349 P 
HETATM   27  O   UNK N   1      27.695  20.160   4.256  0.00  0.00    -0.637 OA
BRANCH  26  28
HETATM   28  O   UNK N   1      25.449  19.701   5.622  0.00  0.00    -0.313 OA
HETATM   29  H   UNK N   1      24.669  20.138   5.997  0.00  0.00     0.221 HD
ENDBRANCH  26  28
BRANCH  26  30
HETATM   30  O   UNK N   1      27.350  21.732   6.379  0.00  0.00    -0.313 OA
HETATM   31  H   UNK N   1      27.248  22.676   6.574  0.00  0.00     0.221 HD
ENDBRANCH  26  30
ENDBRANCH  24  26
ENDBRANCH  21  24
ENDBRANCH  14  17
BRANCH  15  32
HETATM   32  O   UNK N   1      31.312  12.725   5.160  0.00  0.00    -0.280 OA
BRANCH  32  33
HETATM   33  C   UNK N   1      31.570  12.033   3.997  0.00  0.00     0.196 C 
HETATM   34  C   UNK N   1      32.776  12.635   3.308  0.00  0.00     0.036 C 
ENDBRANCH  32  33
ENDBRANCH  15  32
ENDBRANCH  11  14
ENDBRANCH   7  10
BRANCH   3  35
HETATM   35  C   UNK N   1      35.405  16.264  10.519  0.00  0.00     0.228 C 
HETATM   36  O   UNK N   1      35.675  17.556  10.258  0.00  0.00    -0.643 OA
HETATM   37  O   UNK N   1      35.270  15.918  11.682  0.00  0.00    -0.643 OA
ENDBRANCH   3  35
BRANCH   4  38
HETATM   38  S   UNK N   1      37.810  14.316   9.648  0.00  0.00    -0.066 SA
BRANCH  38  39
HETATM   39  C   UNK N   1      37.443  13.201  11.016  0.00  0.00     0.117 A 
HETATM   40  S   UNK N   1      37.455  11.554  10.970  0.00  0.00    -0.074 SA
HETATM   41  C   UNK N   1      36.952  11.270  12.534  0.00  0.00     0.082 A 
HETATM   42  C   UNK N   1      36.758  12.558  13.081  0.00  0.00     0.050 A 
HETATM   43  N   UNK N   1      37.052  13.602  12.241  0.00  0.00    -0.344 N 
ATOM     44  HN  UNK N   1      36.982  14.582  12.516  1.00  0.00     0.167 HD
BRANCH  42  45
HETATM   45  C   UNK N   1      36.278  12.830  14.444  0.00  0.00    -0.006 A 
HETATM   46  C   UNK N   1      35.417  11.954  15.110  0.00  0.00     0.031 A 
HETATM   47  C   UNK N   1      35.061  12.226  16.436  0.00  0.00     0.090 A 
HETATM   48  N   UNK N   1      35.531  13.343  17.060  0.00  0.00    -0.371 N 
HETATM   49  C   UNK N   1      36.339  14.223  16.416  0.00  0.00     0.090 A 
HETATM   50  C   UNK N   1      35.182  13.588  18.446  0.00  0.00     0.154 C 
HETATM   51  C   UNK N   1      36.732  13.978  15.104  0.00  0.00     0.031 A 
ENDBRANCH  42  45
ENDBRANCH  38  39
ENDBRANCH   4  38
TORSDOF 13
ENDMDL
MODEL 3
REMARK VINA RESULT:      -7.7      2.039      2.366
REMARK  13 active torsions:
REMARK  status: ('A' for Active; 'I' for Inactive)
REMARK    1  A    between atoms: C_3  and  C_24 
REMARK    2  A    between atoms: C_4  and  S_14 
REMARK    3  A    between atoms: C_7  and  N_9 
REMARK       I    between atoms: N_9  and  C_10 
REMARK    4  A    between atoms: C_10  and  C_13 
REMARK    5  A    between atoms: C_13  and  C_15 
REMARK    6  A    between atoms: S_14  and  C_35 
REMARK    7  A    between atoms: C_19  and  N_27 
REMARK    8  A    between atoms: N_22  and  O_28 
REMARK    9  A    between atoms: N_27  and  P_31 
REMARK   10  A    between atoms: O_28  and  C_29 
REMARK   11  A    between atoms: P_31  and  O_32 
REMARK   12  A    between atoms: P_31  and  O_33 
REMARK   13  A    between atoms: C_38  and  C_41 
ROOT
HETATM    1  C   UNK N   1      33.453  14.067   8.415  0.00  0.00     0.187 C 
HETATM    2  N   UNK N   1      34.112  15.161   9.041  0.00  0.00    -0.292 N 
HETATM    3  C   UNK N   1      35.413  15.221   9.603  0.00  0.00     0.129 C 
HETATM    4  C   UNK N   1      36.364  14.471   8.989  0.00  0.00     0.028 C 
HETATM    5  C   UNK N   1      36.052  13.968   7.584  0.00  0.00     0.124 C 
HETATM    6  S   UNK N   1      34.457  13.171   7.199  0.00  0.00    -0.135 SA
HETATM    7  C   UNK N   1      32.355  15.143   7.896  0.00  0.00     0.211 C 
HETATM    8  C   UNK N   1      33.181  16.019   8.779  0.00  0.00     0.251 C 
HETATM    9  O   UNK N   1      33.188  17.222   8.982  0.00  0.00    -0.271 OA
ENDROOT
BRANCH   7  10
HETATM   10  N   UNK N   1      32.691  15.630   6.577  0.00  0.00    -0.339 N 
HETATM   11  C   UNK N   1      31.762  16.034   5.689  0.00  0.00     0.274 C 
HETATM   12  O   UNK N   1      32.109  16.706   4.729  0.00  0.00    -0.266 OA
HETATM   13  H   UNK N   1      33.639  15.668   6.318  0.00  0.00     0.163 HD
BRANCH  11  14
HETATM   14  C   UNK N   1      30.337  15.715   5.873  0.00  0.00     0.166 C 
HETATM   15  N   UNK N   1      29.871  14.522   5.648  0.00  0.00    -0.258 N 
ATOM     16  HN  UNK N   1      28.891  14.343   5.866  1.00  0.00     0.194 HD
BRANCH  14  17
HETATM   17  C   UNK N   1      29.463  16.701   6.518  0.00  0.00     0.148 A 
HETATM   18  N   UNK N   1      29.850  17.378   7.646  0.00  0.00    -0.307 N 
HETATM   19  S   UNK N   1      28.664  18.486   7.858  0.00  0.00     0.024 SA
ATOM     20  HN  UNK N   1      30.682  17.226   8.217  1.00  0.00     0.176 HD
HETATM   21  C   UNK N   1      27.712  18.140   6.582  0.00  0.00     0.171 A 
HETATM   22  N   UNK N   1      28.277  17.112   5.909  0.00  0.00    -0.319 N 
ATOM     23  HN  UNK N   1      27.888  16.692   5.066  1.00  0.00     0.169 HD
BRANCH  21  24
HETATM   24  N   UNK N   1      26.607  18.883   6.107  0.00  0.00    -0.278 N 
HETATM   25  H   UNK N   1      25.725  18.759   6.527  0.00  0.00     0.173 HD
BRANCH  24  26
HETATM   26  P   UNK N   1      26.780  20.042   4.761  0.00  0.00     0.349 P 
HETATM   27  O   UNK N   1      27.102  21.423   5.387  0.00  0.00    -0.637 OA
BRANCH  26  28
HETATM   28  O   UNK N   1      28.100  19.582   3.735  0.00  0.00    -0.313 OA
HETATM   29  H   UNK N   1      28.993  19.284   3.964  0.00  0.00     0.221 HD
ENDBRANCH  26  28
BRANCH  26  30
HETATM   30  O   UNK N   1      25.284  20.181   3.888  0.00  0.00    -0.313 OA
HETATM   31  H   UNK N   1      24.520  19.974   3.328  0.00  0.00     0.221 HD
ENDBRANCH  26  30
ENDBRANCH  24  26
ENDBRANCH  21  24
ENDBRANCH  14  17
BRANCH  15  32
HETATM   32  O   UNK N   1      30.588  13.521   5.152  0.00  0.00    -0.280 OA
BRANCH  32  33
HETATM   33  C   UNK N   1      30.560  13.149   3.826  0.00  0.00     0.196 C 
HETATM   34  C   UNK N   1      31.973  12.899   3.342  0.00  0.00     0.036 C 
ENDBRANCH  32  33
ENDBRANCH  15  32
ENDBRANCH  11  14
ENDBRANCH   7  10
BRANCH   3  35
HETATM   35  C   UNK N   1      35.676  16.121  10.766  0.00  0.00     0.228 C 
HETATM   36  O   UNK N   1      35.677  15.657  12.029  0.00  0.00    -0.643 OA
HETATM   37  O   UNK N   1      35.974  17.288  10.571  0.00  0.00    -0.643 OA
ENDBRANCH   3  35
BRANCH   4  38
HETATM   38  S   UNK N   1      38.074  14.307   9.628  0.00  0.00    -0.066 SA
BRANCH  38  39
HETATM   39  C   UNK N   1      37.811  13.011  10.853  0.00  0.00     0.117 A 
HETATM   40  S   UNK N   1      37.930  11.387  10.606  0.00  0.00    -0.074 SA
HETATM   41  C   UNK N   1      37.481  10.881  12.129  0.00  0.00     0.082 A 
HETATM   42  C   UNK N   1      37.216  12.076  12.833  0.00  0.00     0.050 A 
HETATM   43  N   UNK N   1      37.422  13.232  12.123  0.00  0.00    -0.344 N 
ATOM     44  HN  UNK N   1      37.294  14.164  12.518  1.00  0.00     0.167 HD
BRANCH  42  45
HETATM   45  C   UNK N   1      36.749  12.147  14.225  0.00  0.00    -0.006 A 
HETATM   46  C   UNK N   1      36.129  13.290  14.737  0.00  0.00     0.031 A 
HETATM   47  C   UNK N   1      35.633  13.268  16.045  0.00  0.00     0.090 A 
HETATM   48  N   UNK N   1      35.772  12.153  16.817  0.00  0.00    -0.371 N 
HETATM   49  C   UNK N   1      36.404  11.046  16.348  0.00  0.00     0.090 A 
HETATM   50  C   UNK N   1      35.217  12.135  18.156  0.00  0.00     0.154 C 
HETATM   51  C   UNK N   1      36.894  11.021  15.045  0.00  0.00     0.031 A 
ENDBRANCH  42  45
ENDBRANCH  38  39
ENDBRANCH   4  38
TORSDOF 13
ENDMDL
MODEL 4
REMARK VINA RESULT:      -7.5      4.460      9.292
REMARK  13 active torsions:
REMARK  status: ('A' for Active; 'I' for Inactive)
REMARK    1  A    between atoms: C_3  and  C_24 
REMARK    2  A    between atoms: C_4  and  S_14 
REMARK    3  A    between atoms: C_7  and  N_9 
REMARK       I    between atoms: N_9  and  C_10 
REMARK    4  A    between atoms: C_10  and  C_13 
REMARK    5  A    between atoms: C_13  and  C_15 
REMARK    6  A    between atoms: S_14  and  C_35 
REMARK    7  A    between atoms: C_19  and  N_27 
REMARK    8  A    between atoms: N_22  and  O_28 
REMARK    9  A    between atoms: N_27  and  P_31 
REMARK   10  A    between atoms: O_28  and  C_29 
REMARK   11  A    between atoms: P_31  and  O_32 
REMARK   12  A    between atoms: P_31  and  O_33 
REMARK   13  A    between atoms: C_38  and  C_41 
ROOT
HETATM    1  C   UNK N   1      31.145  16.705   6.146  0.00  0.00     0.187 C 
HETATM    2  N   UNK N   1      30.191  16.837   7.193  0.00  0.00    -0.292 N 
HETATM    3  C   UNK N   1      28.788  17.020   7.108  0.00  0.00     0.129 C 
HETATM    4  C   UNK N   1      28.166  16.408   6.067  0.00  0.00     0.028 C 
HETATM    5  C   UNK N   1      28.939  15.310   5.346  0.00  0.00     0.124 C 
HETATM    6  S   UNK N   1      30.669  15.558   4.825  0.00  0.00    -0.135 SA
HETATM    7  C   UNK N   1      32.191  16.212   7.284  0.00  0.00     0.211 C 
HETATM    8  C   UNK N   1      31.033  16.598   8.145  0.00  0.00     0.251 C 
HETATM    9  O   UNK N   1      30.806  16.469   9.336  0.00  0.00    -0.271 OA
ENDROOT
BRANCH   7  10
HETATM   10  N   UNK N   1      32.191  14.771   7.397  0.00  0.00    -0.339 N 
HETATM   11  C   UNK N   1      33.279  14.067   7.767  0.00  0.00     0.274 C 
HETATM   12  O   UNK N   1      33.143  12.909   8.133  0.00  0.00    -0.266 OA
HETATM   13  H   UNK N   1      31.361  14.283   7.194  0.00  0.00     0.163 HD
BRANCH  11  14
HETATM   14  C   UNK N   1      34.619  14.677   7.775  0.00  0.00     0.166 C 
HETATM   15  N   UNK N   1      35.249  14.954   6.672  0.00  0.00    -0.258 N 
ATOM     16  HN  UNK N   1      36.140  15.444   6.741  1.00  0.00     0.194 HD
BRANCH  14  17
HETATM   17  C   UNK N   1      35.169  15.171   9.042  0.00  0.00     0.148 A 
HETATM   18  N   UNK N   1      34.913  16.440   9.493  0.00  0.00    -0.307 N 
HETATM   19  S   UNK N   1      35.546  16.452  11.002  0.00  0.00     0.024 SA
ATOM     20  HN  UNK N   1      34.439  17.199   9.001  1.00  0.00     0.176 HD
HETATM   21  C   UNK N   1      36.107  14.925  11.091  0.00  0.00     0.171 A 
HETATM   22  N   UNK N   1      35.830  14.311   9.919  0.00  0.00    -0.319 N 
ATOM     23  HN  UNK N   1      36.073  13.345   9.703  1.00  0.00     0.169 HD
BRANCH  21  24
HETATM   24  N   UNK N   1      36.605  14.257  12.235  0.00  0.00    -0.278 N 
HETATM   25  H   UNK N   1      37.470  14.533  12.616  0.00  0.00     0.173 HD
BRANCH  24  26
HETATM   26  P   UNK N   1      35.697  12.925  12.999  0.00  0.00     0.349 P 
HETATM   27  O   UNK N   1      34.999  13.511  14.254  0.00  0.00    -0.637 OA
BRANCH  26  28
HETATM   28  O   UNK N   1      34.477  12.329  11.919  0.00  0.00    -0.313 OA
HETATM   29  H   UNK N   1      34.537  12.093  10.981  0.00  0.00     0.221 HD
ENDBRANCH  26  28
BRANCH  26  30
HETATM   30  O   UNK N   1      36.784  11.675  13.521  0.00  0.00    -0.313 OA
HETATM   31  H   UNK N   1      37.200  10.809  13.650  0.00  0.00     0.221 HD
ENDBRANCH  26  30
ENDBRANCH  24  26
ENDBRANCH  21  24
ENDBRANCH  14  17
BRANCH  15  32
HETATM   32  O   UNK N   1      34.808  14.639   5.460  0.00  0.00    -0.280 OA
BRANCH  32  33
HETATM   33  C   UNK N   1      35.527  13.881   4.561  0.00  0.00     0.196 C 
HETATM   34  C   UNK N   1      36.961  13.763   5.034  0.00  0.00     0.036 C 
ENDBRANCH  32  33
ENDBRANCH  15  32
ENDBRANCH  11  14
ENDBRANCH   7  10
BRANCH   3  35
HETATM   35  C   UNK N   1      28.078  17.801   8.166  0.00  0.00     0.228 C 
HETATM   36  O   UNK N   1      27.554  17.202   9.251  0.00  0.00    -0.643 OA
HETATM   37  O   UNK N   1      28.036  19.019   8.093  0.00  0.00    -0.643 OA
ENDBRANCH   3  35
BRANCH   4  38
HETATM   38  S   UNK N   1      26.383  16.621   5.702  0.00  0.00    -0.066 SA
BRANCH  38  39
HETATM   39  C   UNK N   1      25.766  15.034   6.294  0.00  0.00     0.117 A 
HETATM   40  S   UNK N   1      25.595  13.655   5.409  0.00  0.00    -0.074 SA
HETATM   41  C   UNK N   1      24.920  12.695   6.594  0.00  0.00     0.082 A 
HETATM   42  C   UNK N   1      24.825  13.541   7.721  0.00  0.00     0.050 A 
HETATM   43  N   UNK N   1      25.312  14.812   7.543  0.00  0.00    -0.344 N 
ATOM     44  HN  UNK N   1      25.330  15.516   8.281  1.00  0.00     0.167 HD
BRANCH  42  45
HETATM   45  C   UNK N   1      24.255  13.153   9.019  0.00  0.00    -0.006 A 
HETATM   46  C   UNK N   1      22.892  13.285   9.295  0.00  0.00     0.031 A 
HETATM   47  C   UNK N   1      22.396  12.822  10.518  0.00  0.00     0.090 A 
HETATM   48  N   UNK N   1      23.236  12.268  11.438  0.00  0.00    -0.371 N 
HETATM   49  C   UNK N   1      24.570  12.165  11.201  0.00  0.00     0.090 A 
HETATM   50  C   UNK N   1      22.699  11.759  12.684  0.00  0.00     0.154 C 
HETATM   51  C   UNK N   1      25.099  12.596   9.988  0.00  0.00     0.031 A 
ENDBRANCH  42  45
ENDBRANCH  38  39
ENDBRANCH   4  38
TORSDOF 13
ENDMDL
MODEL 5
REMARK VINA RESULT:      -7.5      2.532      3.481
REMARK  13 active torsions:
REMARK  status: ('A' for Active; 'I' for Inactive)
REMARK    1  A    between atoms: C_3  and  C_24 
REMARK    2  A    between atoms: C_4  and  S_14 
REMARK    3  A    between atoms: C_7  and  N_9 
REMARK       I    between atoms: N_9  and  C_10 
REMARK    4  A    between atoms: C_10  and  C_13 
REMARK    5  A    between atoms: C_13  and  C_15 
REMARK    6  A    between atoms: S_14  and  C_35 
REMARK    7  A    between atoms: C_19  and  N_27 
REMARK    8  A    between atoms: N_22  and  O_28 
REMARK    9  A    between atoms: N_27  and  P_31 
REMARK   10  A    between atoms: O_28  and  C_29 
REMARK   11  A    between atoms: P_31  and  O_32 
REMARK   12  A    between atoms: P_31  and  O_33 
REMARK   13  A    between atoms: C_38  and  C_41 
ROOT
HETATM    1  C   UNK N   1      33.345  14.049   8.521  0.00  0.00     0.187 C 
HETATM    2  N   UNK N   1      34.036  15.145   9.108  0.00  0.00    -0.292 N 
HETATM    3  C   UNK N   1      35.357  15.201   9.619  0.00  0.00     0.129 C 
HETATM    4  C   UNK N   1      36.279  14.436   8.979  0.00  0.00     0.028 C 
HETATM    5  C   UNK N   1      35.909  13.918   7.594  0.00  0.00     0.124 C 
HETATM    6  S   UNK N   1      34.294  13.130   7.280  0.00  0.00    -0.135 SA
HETATM    7  C   UNK N   1      32.236  15.128   8.031  0.00  0.00     0.211 C 
HETATM    8  C   UNK N   1      33.103  16.008   8.871  0.00  0.00     0.251 C 
HETATM    9  O   UNK N   1      33.127  17.214   9.058  0.00  0.00    -0.271 OA
ENDROOT
BRANCH   7  10
HETATM   10  N   UNK N   1      32.526  15.596   6.694  0.00  0.00    -0.339 N 
HETATM   11  C   UNK N   1      31.599  16.176   5.907  0.00  0.00     0.274 C 
HETATM   12  O   UNK N   1      31.963  16.813   4.929  0.00  0.00    -0.266 OA
HETATM   13  H   UNK N   1      33.439  15.485   6.345  0.00  0.00     0.163 HD
BRANCH  11  14
HETATM   14  C   UNK N   1      30.164  16.091   6.222  0.00  0.00     0.166 C 
HETATM   15  N   UNK N   1      29.596  16.924   7.043  0.00  0.00    -0.258 N 
ATOM     16  HN  UNK N   1      28.585  16.862   7.163  1.00  0.00     0.194 HD
BRANCH  14  17
HETATM   17  C   UNK N   1      29.315  15.183   5.442  0.00  0.00     0.148 A 
HETATM   18  N   UNK N   1      29.659  13.872   5.238  0.00  0.00    -0.307 N 
HETATM   19  S   UNK N   1      28.336  13.232   4.516  0.00  0.00     0.024 SA
ATOM     20  HN  UNK N   1      30.533  13.405   5.481  1.00  0.00     0.176 HD
HETATM   21  C   UNK N   1      27.369  14.542   4.473  0.00  0.00     0.171 A 
HETATM   22  N   UNK N   1      28.043  15.576   5.026  0.00  0.00    -0.319 N 
ATOM     23  HN  UNK N   1      27.670  16.519   5.126  1.00  0.00     0.169 HD
BRANCH  21  24
HETATM   24  N   UNK N   1      25.998  14.588   4.126  0.00  0.00    -0.278 N 
HETATM   25  H   UNK N   1      25.532  13.753   3.889  0.00  0.00     0.173 HD
BRANCH  24  26
HETATM   26  P   UNK N   1      25.098  16.128   4.109  0.00  0.00     0.349 P 
HETATM   27  O   UNK N   1      25.848  17.084   3.146  0.00  0.00    -0.637 OA
BRANCH  26  28
HETATM   28  O   UNK N   1      23.492  15.883   3.500  0.00  0.00    -0.313 OA
HETATM   29  H   UNK N   1      22.640  16.182   3.851  0.00  0.00     0.221 HD
ENDBRANCH  26  28
BRANCH  26  30
HETATM   30  O   UNK N   1      25.100  16.845   5.692  0.00  0.00    -0.313 OA
HETATM   31  H   UNK N   1      25.055  16.958   6.654  0.00  0.00     0.221 HD
ENDBRANCH  26  30
ENDBRANCH  24  26
ENDBRANCH  21  24
ENDBRANCH  14  17
BRANCH  15  32
HETATM   32  O   UNK N   1      30.246  17.850   7.737  0.00  0.00    -0.280 OA
BRANCH  32  33
HETATM   33  C   UNK N   1      29.690  18.542   8.792  0.00  0.00     0.196 C 
HETATM   34  C   UNK N   1      28.497  17.776   9.325  0.00  0.00     0.036 C 
ENDBRANCH  32  33
ENDBRANCH  15  32
ENDBRANCH  11  14
ENDBRANCH   7  10
BRANCH   3  35
HETATM   35  C   UNK N   1      35.672  16.114  10.759  0.00  0.00     0.228 C 
HETATM   36  O   UNK N   1      35.699  15.670  12.029  0.00  0.00    -0.643 OA
HETATM   37  O   UNK N   1      35.989  17.271  10.537  0.00  0.00    -0.643 OA
ENDBRANCH   3  35
BRANCH   4  38
HETATM   38  S   UNK N   1      38.010  14.265   9.554  0.00  0.00    -0.066 SA
BRANCH  38  39
HETATM   39  C   UNK N   1      37.787  12.972  10.790  0.00  0.00     0.117 A 
HETATM   40  S   UNK N   1      37.948  11.349  10.554  0.00  0.00    -0.074 SA
HETATM   41  C   UNK N   1      37.520  10.844  12.084  0.00  0.00     0.082 A 
HETATM   42  C   UNK N   1      37.227  12.036  12.780  0.00  0.00     0.050 A 
HETATM   43  N   UNK N   1      37.399  13.192  12.061  0.00  0.00    -0.344 N 
ATOM     44  HN  UNK N   1      37.248  14.124  12.449  1.00  0.00     0.167 HD
BRANCH  42  45
HETATM   45  C   UNK N   1      36.765  12.106  14.174  0.00  0.00    -0.006 A 
HETATM   46  C   UNK N   1      36.168  13.256  14.696  0.00  0.00     0.031 A 
HETATM   47  C   UNK N   1      35.674  13.233  16.005  0.00  0.00     0.090 A 
HETATM   48  N   UNK N   1      35.795  12.110  16.768  0.00  0.00    -0.371 N 
HETATM   49  C   UNK N   1      36.404  10.995  16.289  0.00  0.00     0.090 A 
HETATM   50  C   UNK N   1      35.243  12.093  18.108  0.00  0.00     0.154 C 
HETATM   51  C   UNK N   1      36.890  10.971  14.985  0.00  0.00     0.031 A 
ENDBRANCH  42  45
ENDBRANCH  38  39
ENDBRANCH   4  38
TORSDOF 13
ENDMDL
MODEL 6
REMARK VINA RESULT:      -7.4      1.951      2.312
REMARK  13 active torsions:
REMARK  status: ('A' for Active; 'I' for Inactive)
REMARK    1  A    between atoms: C_3  and  C_24 
REMARK    2  A    between atoms: C_4  and  S_14 
REMARK    3  A    between atoms: C_7  and  N_9 
REMARK       I    between atoms: N_9  and  C_10 
REMARK    4  A    between atoms: C_10  and  C_13 
REMARK    5  A    between atoms: C_13  and  C_15 
REMARK    6  A    between atoms: S_14  and  C_35 
REMARK    7  A    between atoms: C_19  and  N_27 
REMARK    8  A    between atoms: N_22  and  O_28 
REMARK    9  A    between atoms: N_27  and  P_31 
REMARK   10  A    between atoms: O_28  and  C_29 
REMARK   11  A    between atoms: P_31  and  O_32 
REMARK   12  A    between atoms: P_31  and  O_33 
REMARK   13  A    between atoms: C_38  and  C_41 
ROOT
HETATM    1  C   UNK N   1      33.348  14.169   8.426  0.00  0.00     0.187 C 
HETATM    2  N   UNK N   1      34.057  15.265   8.993  0.00  0.00    -0.292 N 
HETATM    3  C   UNK N   1      35.350  15.291   9.574  0.00  0.00     0.129 C 
HETATM    4  C   UNK N   1      36.268  14.453   9.027  0.00  0.00     0.028 C 
HETATM    5  C   UNK N   1      35.950  13.878   7.652  0.00  0.00     0.124 C 
HETATM    6  S   UNK N   1      34.319  13.145   7.289  0.00  0.00    -0.135 SA
HETATM    7  C   UNK N   1      32.319  15.267   7.819  0.00  0.00     0.211 C 
HETATM    8  C   UNK N   1      33.178  16.153   8.660  0.00  0.00     0.251 C 
HETATM    9  O   UNK N   1      33.248  17.365   8.786  0.00  0.00    -0.271 OA
ENDROOT
BRANCH   7  10
HETATM   10  N   UNK N   1      32.701  15.649   6.479  0.00  0.00    -0.339 N 
HETATM   11  C   UNK N   1      31.810  15.794   5.478  0.00  0.00     0.274 C 
HETATM   12  O   UNK N   1      32.140  16.399   4.469  0.00  0.00    -0.266 OA
HETATM   13  H   UNK N   1      33.652  15.811   6.289  0.00  0.00     0.163 HD
BRANCH  11  14
HETATM   14  C   UNK N   1      30.439  15.271   5.593  0.00  0.00     0.166 C 
HETATM   15  N   UNK N   1      30.191  13.994   5.565  0.00  0.00    -0.258 N 
ATOM     16  HN  UNK N   1      29.231  13.690   5.725  1.00  0.00     0.194 HD
BRANCH  14  17
HETATM   17  C   UNK N   1      29.352  16.190   5.951  0.00  0.00     0.148 A 
HETATM   18  N   UNK N   1      29.586  17.515   6.211  0.00  0.00    -0.307 N 
HETATM   19  S   UNK N   1      28.086  18.154   6.348  0.00  0.00     0.024 SA
ATOM     20  HN  UNK N   1      30.485  17.991   6.298  1.00  0.00     0.176 HD
HETATM   21  C   UNK N   1      27.181  16.826   6.080  0.00  0.00     0.171 A 
HETATM   22  N   UNK N   1      28.020  15.787   5.871  0.00  0.00    -0.319 N 
ATOM     23  HN  UNK N   1      27.717  14.832   5.679  1.00  0.00     0.169 HD
BRANCH  21  24
HETATM   24  N   UNK N   1      25.781  16.765   5.882  0.00  0.00    -0.278 N 
HETATM   25  H   UNK N   1      25.297  17.577   5.605  0.00  0.00     0.173 HD
BRANCH  24  26
HETATM   26  P   UNK N   1      24.877  15.247   6.128  0.00  0.00     0.349 P 
HETATM   27  O   UNK N   1      25.638  14.433   7.207  0.00  0.00    -0.637 OA
BRANCH  26  28
HETATM   28  O   UNK N   1      23.280  15.583   6.716  0.00  0.00    -0.313 OA
HETATM   29  H   UNK N   1      22.573  14.976   6.981  0.00  0.00     0.221 HD
ENDBRANCH  26  28
BRANCH  26  30
HETATM   30  O   UNK N   1      24.856  14.314   4.663  0.00  0.00    -0.313 OA
HETATM   31  H   UNK N   1      24.828  13.567   4.045  0.00  0.00     0.221 HD
ENDBRANCH  26  30
ENDBRANCH  24  26
ENDBRANCH  21  24
ENDBRANCH  14  17
BRANCH  15  32
HETATM   32  O   UNK N   1      31.107  13.060   5.342  0.00  0.00    -0.280 OA
BRANCH  32  33
HETATM   33  C   UNK N   1      31.145  12.289   4.200  0.00  0.00     0.196 C 
HETATM   34  C   UNK N   1      32.578  12.154   3.729  0.00  0.00     0.036 C 
ENDBRANCH  32  33
ENDBRANCH  15  32
ENDBRANCH  11  14
ENDBRANCH   7  10
BRANCH   3  35
HETATM   35  C   UNK N   1      35.645  16.250  10.682  0.00  0.00     0.228 C 
HETATM   36  O   UNK N   1      35.916  17.545  10.438  0.00  0.00    -0.643 OA
HETATM   37  O   UNK N   1      35.564  15.877  11.841  0.00  0.00    -0.643 OA
ENDBRANCH   3  35
BRANCH   4  38
HETATM   38  S   UNK N   1      37.956  14.239   9.706  0.00  0.00    -0.066 SA
BRANCH  38  39
HETATM   39  C   UNK N   1      37.605  13.039  11.005  0.00  0.00     0.117 A 
HETATM   40  S   UNK N   1      37.675  11.398  10.871  0.00  0.00    -0.074 SA
HETATM   41  C   UNK N   1      37.156  11.013  12.407  0.00  0.00     0.082 A 
HETATM   42  C   UNK N   1      36.909  12.261  13.019  0.00  0.00     0.050 A 
HETATM   43  N   UNK N   1      37.180  13.359  12.242  0.00  0.00    -0.344 N 
ATOM     44  HN  UNK N   1      37.072  14.319  12.569  1.00  0.00     0.167 HD
BRANCH  42  45
HETATM   45  C   UNK N   1      36.397  12.442  14.385  0.00  0.00    -0.006 A 
HETATM   46  C   UNK N   1      35.955  11.363  15.156  0.00  0.00     0.031 A 
HETATM   47  C   UNK N   1      35.556  11.588  16.478  0.00  0.00     0.090 A 
HETATM   48  N   UNK N   1      35.578  12.847  17.000  0.00  0.00    -0.371 N 
HETATM   49  C   UNK N   1      35.971  13.912  16.254  0.00  0.00     0.090 A 
HETATM   50  C   UNK N   1      35.198  13.055  18.383  0.00  0.00     0.154 C 
HETATM   51  C   UNK N   1      36.393  13.727  14.942  0.00  0.00     0.031 A 
ENDBRANCH  42  45
ENDBRANCH  38  39
ENDBRANCH   4  38
TORSDOF 13
ENDMDL
MODEL 7
REMARK VINA RESULT:      -7.4      4.756     10.580
REMARK  13 active torsions:
REMARK  status: ('A' for Active; 'I' for Inactive)
REMARK    1  A    between atoms: C_3  and  C_24 
REMARK    2  A    between atoms: C_4  and  S_14 
REMARK    3  A    between atoms: C_7  and  N_9 
REMARK       I    between atoms: N_9  and  C_10 
REMARK    4  A    between atoms: C_10  and  C_13 
REMARK    5  A    between atoms: C_13  and  C_15 
REMARK    6  A    between atoms: S_14  and  C_35 
REMARK    7  A    between atoms: C_19  and  N_27 
REMARK    8  A    between atoms: N_22  and  O_28 
REMARK    9  A    between atoms: N_27  and  P_31 
REMARK   10  A    between atoms: O_28  and  C_29 
REMARK   11  A    between atoms: P_31  and  O_32 
REMARK   12  A    between atoms: P_31  and  O_33 
REMARK   13  A    between atoms: C_38  and  C_41 
ROOT
HETATM    1  C   UNK N   1      27.773  15.222   5.790  0.00  0.00     0.187 C 
HETATM    2  N   UNK N   1      27.629  14.452   4.603  0.00  0.00    -0.292 N 
HETATM    3  C   UNK N   1      26.456  14.162   3.861  0.00  0.00     0.129 C 
HETATM    4  C   UNK N   1      25.511  15.136   3.830  0.00  0.00     0.028 C 
HETATM    5  C   UNK N   1      25.944  16.537   4.248  0.00  0.00     0.124 C 
HETATM    6  S   UNK N   1      26.904  16.813   5.774  0.00  0.00    -0.135 SA
HETATM    7  C   UNK N   1      29.371  15.190   5.508  0.00  0.00     0.211 C 
HETATM    8  C   UNK N   1      28.897  14.273   4.428  0.00  0.00     0.251 C 
HETATM    9  O   UNK N   1      29.460  13.743   3.484  0.00  0.00    -0.271 OA
ENDROOT
BRANCH   7  10
HETATM   10  N   UNK N   1      29.788  16.355   4.762  0.00  0.00    -0.339 N 
HETATM   11  C   UNK N   1      30.866  17.090   5.098  0.00  0.00     0.274 C 
HETATM   12  O   UNK N   1      31.339  17.863   4.278  0.00  0.00    -0.266 OA
HETATM   13  H   UNK N   1      29.262  16.623   3.975  0.00  0.00     0.163 HD
BRANCH  11  14
HETATM   14  C   UNK N   1      31.506  16.953   6.416  0.00  0.00     0.166 C 
HETATM   15  N   UNK N   1      30.905  17.324   7.508  0.00  0.00    -0.258 N 
ATOM     16  HN  UNK N   1      31.367  17.134   8.397  1.00  0.00     0.194 HD
BRANCH  14  17
HETATM   17  C   UNK N   1      32.758  16.195   6.526  0.00  0.00     0.148 A 
HETATM   18  N   UNK N   1      33.554  15.958   5.436  0.00  0.00    -0.307 N 
HETATM   19  S   UNK N   1      34.900  15.282   6.078  0.00  0.00     0.024 SA
ATOM     20  HN  UNK N   1      33.354  16.156   4.455  1.00  0.00     0.176 HD
HETATM   21  C   UNK N   1      34.505  15.298   7.659  0.00  0.00     0.171 A 
HETATM   22  N   UNK N   1      33.270  15.838   7.773  0.00  0.00    -0.319 N 
ATOM     23  HN  UNK N   1      32.778  15.968   8.656  1.00  0.00     0.169 HD
BRANCH  21  24
HETATM   24  N   UNK N   1      35.347  15.010   8.758  0.00  0.00    -0.278 N 
HETATM   25  H   UNK N   1      35.983  14.261   8.696  0.00  0.00     0.173 HD
BRANCH  24  26
HETATM   26  P   UNK N   1      35.277  15.976  10.256  0.00  0.00     0.349 P 
HETATM   27  O   UNK N   1      34.810  17.401   9.859  0.00  0.00    -0.637 OA
BRANCH  26  28
HETATM   28  O   UNK N   1      34.116  15.304  11.356  0.00  0.00    -0.313 OA
HETATM   29  H   UNK N   1      34.109  14.445  11.806  0.00  0.00     0.221 HD
ENDBRANCH  26  28
BRANCH  26  30
HETATM   30  O   UNK N   1      36.858  16.105  10.965  0.00  0.00    -0.313 OA
HETATM   31  H   UNK N   1      37.696  16.468  11.291  0.00  0.00     0.221 HD
ENDBRANCH  26  30
ENDBRANCH  24  26
ENDBRANCH  21  24
ENDBRANCH  14  17
BRANCH  15  32
HETATM   32  O   UNK N   1      29.727  17.936   7.542  0.00  0.00    -0.280 OA
BRANCH  32  33
HETATM   33  C   UNK N   1      28.952  18.033   8.677  0.00  0.00     0.196 C 
HETATM   34  C   UNK N   1      29.751  18.697   9.779  0.00  0.00     0.036 C 
ENDBRANCH  32  33
ENDBRANCH  15  32
ENDBRANCH  11  14
ENDBRANCH   7  10
BRANCH   3  35
HETATM   35  C   UNK N   1      26.348  12.866   3.124  0.00  0.00     0.228 C 
HETATM   36  O   UNK N   1      26.621  12.779   1.809  0.00  0.00    -0.643 OA
HETATM   37  O   UNK N   1      26.083  11.844   3.736  0.00  0.00    -0.643 OA
ENDBRANCH   3  35
BRANCH   4  38
HETATM   38  S   UNK N   1      23.873  14.917   3.038  0.00  0.00    -0.066 SA
BRANCH  38  39
HETATM   39  C   UNK N   1      22.838  14.831   4.511  0.00  0.00     0.117 A 
HETATM   40  S   UNK N   1      21.343  15.496   4.701  0.00  0.00    -0.074 SA
HETATM   41  C   UNK N   1      21.093  15.068   6.293  0.00  0.00     0.082 A 
HETATM   42  C   UNK N   1      22.273  14.387   6.663  0.00  0.00     0.050 A 
HETATM   43  N   UNK N   1      23.208  14.249   5.668  0.00  0.00    -0.344 N 
ATOM     44  HN  UNK N   1      24.092  13.755   5.792  1.00  0.00     0.167 HD
BRANCH  42  45
HETATM   45  C   UNK N   1      22.544  13.839   8.001  0.00  0.00    -0.006 A 
HETATM   46  C   UNK N   1      21.538  13.711   8.962  0.00  0.00     0.031 A 
HETATM   47  C   UNK N   1      21.840  13.107  10.187  0.00  0.00     0.090 A 
HETATM   48  N   UNK N   1      23.105  12.670  10.447  0.00  0.00    -0.371 N 
HETATM   49  C   UNK N   1      24.103  12.820   9.538  0.00  0.00     0.090 A 
HETATM   50  C   UNK N   1      23.390  12.012  11.707  0.00  0.00     0.154 C 
HETATM   51  C   UNK N   1      23.838  13.397   8.301  0.00  0.00     0.031 A 
ENDBRANCH  42  45
ENDBRANCH  38  39
ENDBRANCH   4  38
TORSDOF 13
ENDMDL
MODEL 8
REMARK VINA RESULT:      -7.3      6.217     13.088
REMARK  13 active torsions:
REMARK  status: ('A' for Active; 'I' for Inactive)
REMARK    1  A    between atoms: C_3  and  C_24 
REMARK    2  A    between atoms: C_4  and  S_14 
REMARK    3  A    between atoms: C_7  and  N_9 
REMARK       I    between atoms: N_9  and  C_10 
REMARK    4  A    between atoms: C_10  and  C_13 
REMARK    5  A    between atoms: C_13  and  C_15 
REMARK    6  A    between atoms: S_14  and  C_35 
REMARK    7  A    between atoms: C_19  and  N_27 
REMARK    8  A    between atoms: N_22  and  O_28 
REMARK    9  A    between atoms: N_27  and  P_31 
REMARK   10  A    between atoms: O_28  and  C_29 
REMARK   11  A    between atoms: P_31  and  O_32 
REMARK   12  A    between atoms: P_31  and  O_33 
REMARK   13  A    between atoms: C_38  and  C_41 
ROOT
HETATM    1  C   UNK N   1      25.904  17.041   3.757  0.00  0.00     0.187 C 
HETATM    2  N   UNK N   1      25.580  18.425   3.709  0.00  0.00    -0.292 N 
HETATM    3  C   UNK N   1      24.311  19.044   3.584  0.00  0.00     0.129 C 
HETATM    4  C   UNK N   1      23.273  18.405   4.181  0.00  0.00     0.028 C 
HETATM    5  C   UNK N   1      23.616  17.340   5.216  0.00  0.00     0.124 C 
HETATM    6  S   UNK N   1      24.867  16.057   4.872  0.00  0.00    -0.135 SA
HETATM    7  C   UNK N   1      27.382  17.496   4.248  0.00  0.00     0.211 C 
HETATM    8  C   UNK N   1      26.785  18.832   3.946  0.00  0.00     0.251 C 
HETATM    9  O   UNK N   1      27.170  19.974   4.132  0.00  0.00    -0.271 OA
ENDROOT
BRANCH   7  10
HETATM   10  N   UNK N   1      27.465  17.515   5.691  0.00  0.00    -0.339 N 
HETATM   11  C   UNK N   1      28.495  16.973   6.371  0.00  0.00     0.274 C 
HETATM   12  O   UNK N   1      28.661  17.279   7.543  0.00  0.00    -0.266 OA
HETATM   13  H   UNK N   1      26.738  17.942   6.198  0.00  0.00     0.163 HD
BRANCH  11  14
HETATM   14  C   UNK N   1      29.441  16.053   5.721  0.00  0.00     0.166 C 
HETATM   15  N   UNK N   1      29.071  14.880   5.298  0.00  0.00    -0.258 N 
ATOM     16  HN  UNK N   1      29.753  14.319   4.788  1.00  0.00     0.194 HD
BRANCH  14  17
HETATM   17  C   UNK N   1      30.775  16.543   5.355  0.00  0.00     0.148 A 
HETATM   18  N   UNK N   1      30.968  17.378   4.285  0.00  0.00    -0.307 N 
HETATM   19  S   UNK N   1      32.543  17.808   4.407  0.00  0.00     0.024 SA
ATOM     20  HN  UNK N   1      30.288  17.664   3.579  1.00  0.00     0.176 HD
HETATM   21  C   UNK N   1      32.962  16.990   5.753  0.00  0.00     0.171 A 
HETATM   22  N   UNK N   1      31.872  16.317   6.186  0.00  0.00    -0.319 N 
ATOM     23  HN  UNK N   1      31.855  15.722   7.013  1.00  0.00     0.169 HD
BRANCH  21  24
HETATM   24  N   UNK N   1      34.166  17.102   6.486  0.00  0.00    -0.278 N 
HETATM   25  H   UNK N   1      35.020  16.878   6.049  0.00  0.00     0.173 HD
BRANCH  24  26
HETATM   26  P   UNK N   1      34.168  17.640   8.187  0.00  0.00     0.349 P 
HETATM   27  O   UNK N   1      34.907  16.552   9.008  0.00  0.00    -0.637 OA
BRANCH  26  28
HETATM   28  O   UNK N   1      35.034  19.134   8.348  0.00  0.00    -0.313 OA
HETATM   29  H   UNK N   1      35.076  19.753   9.092  0.00  0.00     0.221 HD
ENDBRANCH  26  28
BRANCH  26  30
HETATM   30  O   UNK N   1      32.541  17.754   8.785  0.00  0.00    -0.313 OA
HETATM   31  H   UNK N   1      31.607  17.560   8.964  0.00  0.00     0.221 HD
ENDBRANCH  26  30
ENDBRANCH  24  26
ENDBRANCH  21  24
ENDBRANCH  14  17
BRANCH  15  32
HETATM   32  O   UNK N   1      27.863  14.365   5.487  0.00  0.00    -0.280 OA
BRANCH  32  33
HETATM   33  C   UNK N   1      27.389  13.265   4.806  0.00  0.00     0.196 C 
HETATM   34  C   UNK N   1      28.445  12.777   3.837  0.00  0.00     0.036 C 
ENDBRANCH  32  33
ENDBRANCH  15  32
ENDBRANCH  11  14
ENDBRANCH   7  10
BRANCH   3  35
HETATM   35  C   UNK N   1      24.194  20.355   2.876  0.00  0.00     0.228 C 
HETATM   36  O   UNK N   1      24.931  20.635   1.785  0.00  0.00    -0.643 OA
HETATM   37  O   UNK N   1      23.358  21.166   3.241  0.00  0.00    -0.643 OA
ENDBRANCH   3  35
BRANCH   4  38
HETATM   38  S   UNK N   1      21.535  18.967   4.033  0.00  0.00    -0.066 SA
BRANCH  38  39
HETATM   39  C   UNK N   1      20.994  17.907   2.678  0.00  0.00     0.117 A 
HETATM   40  S   UNK N   1      19.844  18.262   1.553  0.00  0.00    -0.074 SA
HETATM   41  C   UNK N   1      19.861  16.811   0.732  0.00  0.00     0.082 A 
HETATM   42  C   UNK N   1      20.817  16.030   1.416  0.00  0.00     0.050 A 
HETATM   43  N   UNK N   1      21.442  16.655   2.466  0.00  0.00    -0.344 N 
ATOM     44  HN  UNK N   1      22.171  16.216   3.029  1.00  0.00     0.167 HD
BRANCH  42  45
HETATM   45  C   UNK N   1      21.166  14.641   1.081  0.00  0.00    -0.006 A 
HETATM   46  C   UNK N   1      22.492  14.233   0.920  0.00  0.00     0.031 A 
HETATM   47  C   UNK N   1      22.765  12.882   0.683  0.00  0.00     0.090 A 
HETATM   48  N   UNK N   1      21.748  11.979   0.589  0.00  0.00    -0.371 N 
HETATM   49  C   UNK N   1      20.451  12.364   0.707  0.00  0.00     0.090 A 
HETATM   50  C   UNK N   1      22.052  10.577   0.381  0.00  0.00     0.154 C 
HETATM   51  C   UNK N   1      20.140  13.696   0.963  0.00  0.00     0.031 A 
ENDBRANCH  42  45
ENDBRANCH  38  39
ENDBRANCH   4  38
TORSDOF 13
ENDMDL
MODEL 9
REMARK VINA RESULT:      -7.2      2.357      4.398
REMARK  13 active torsions:
REMARK  status: ('A' for Active; 'I' for Inactive)
REMARK    1  A    between atoms: C_3  and  C_24 
REMARK    2  A    between atoms: C_4  and  S_14 
REMARK    3  A    between atoms: C_7  and  N_9 
REMARK       I    between atoms: N_9  and  C_10 
REMARK    4  A    between atoms: C_10  and  C_13 
REMARK    5  A    between atoms: C_13  and  C_15 
REMARK    6  A    between atoms: S_14  and  C_35 
REMARK    7  A    between atoms: C_19  and  N_27 
REMARK    8  A    between atoms: N_22  and  O_28 
REMARK    9  A    between atoms: N_27  and  P_31 
REMARK   10  A    between atoms: O_28  and  C_29 
REMARK   11  A    between atoms: P_31  and  O_32 
REMARK   12  A    between atoms: P_31  and  O_33 
REMARK   13  A    between atoms: C_38  and  C_41 
ROOT
HETATM    1  C   UNK N   1      33.700  14.060   8.166  0.00  0.00     0.187 C 
HETATM    2  N   UNK N   1      34.308  15.118   8.897  0.00  0.00    -0.292 N 
HETATM    3  C   UNK N   1      35.567  15.149   9.548  0.00  0.00     0.129 C 
HETATM    4  C   UNK N   1      36.563  14.437   8.959  0.00  0.00     0.028 C 
HETATM    5  C   UNK N   1      36.350  14.014   7.511  0.00  0.00     0.124 C 
HETATM    6  S   UNK N   1      34.789  13.237   6.973  0.00  0.00    -0.135 SA
HETATM    7  C   UNK N   1      32.633  15.161   7.635  0.00  0.00     0.211 C 
HETATM    8  C   UNK N   1      33.392  15.988   8.621  0.00  0.00     0.251 C 
HETATM    9  O   UNK N   1      33.378  17.178   8.891  0.00  0.00    -0.271 OA
ENDROOT
BRANCH   7  10
HETATM   10  N   UNK N   1      33.055  15.724   6.372  0.00  0.00    -0.339 N 
HETATM   11  C   UNK N   1      32.188  16.084   5.406  0.00  0.00     0.274 C 
HETATM   12  O   UNK N   1      32.570  16.817   4.506  0.00  0.00    -0.266 OA
HETATM   13  H   UNK N   1      34.018  15.848   6.211  0.00  0.00     0.163 HD
BRANCH  11  14
HETATM   14  C   UNK N   1      30.783  15.644   5.436  0.00  0.00     0.166 C 
HETATM   15  N   UNK N   1      29.889  16.264   6.147  0.00  0.00    -0.258 N 
ATOM     16  HN  UNK N   1      28.919  15.959   6.067  1.00  0.00     0.194 HD
BRANCH  14  17
HETATM   17  C   UNK N   1      30.338  14.616   4.487  0.00  0.00     0.148 A 
HETATM   18  N   UNK N   1      29.012  14.427   4.200  0.00  0.00    -0.307 N 
HETATM   19  S   UNK N   1      29.031  13.351   2.967  0.00  0.00     0.024 SA
ATOM     20  HN  UNK N   1      28.202  14.857   4.650  1.00  0.00     0.176 HD
HETATM   21  C   UNK N   1      30.637  13.141   2.793  0.00  0.00     0.171 A 
HETATM   22  N   UNK N   1      31.260  13.912   3.712  0.00  0.00    -0.319 N 
ATOM     23  HN  UNK N   1      32.271  13.971   3.825  1.00  0.00     0.169 HD
BRANCH  21  24
HETATM   24  N   UNK N   1      31.307  12.456   1.751  0.00  0.00    -0.278 N 
HETATM   25  H   UNK N   1      30.798  11.846   1.169  0.00  0.00     0.173 HD
BRANCH  24  26
HETATM   26  P   UNK N   1      33.055  12.676   1.473  0.00  0.00     0.349 P 
HETATM   27  O   UNK N   1      33.282  12.630  -0.060  0.00  0.00    -0.637 OA
BRANCH  26  28
HETATM   28  O   UNK N   1      33.570  14.225   2.059  0.00  0.00    -0.313 OA
HETATM   29  H   UNK N   1      33.936  14.983   1.579  0.00  0.00     0.221 HD
ENDBRANCH  26  28
BRANCH  26  30
HETATM   30  O   UNK N   1      33.949  11.370   2.190  0.00  0.00    -0.313 OA
HETATM   31  H   UNK N   1      34.633  10.705   2.361  0.00  0.00     0.221 HD
ENDBRANCH  26  30
ENDBRANCH  24  26
ENDBRANCH  21  24
ENDBRANCH  14  17
BRANCH  15  32
HETATM   32  O   UNK N   1      30.156  17.269   6.973  0.00  0.00    -0.280 OA
BRANCH  32  33
HETATM   33  C   UNK N   1      29.629  17.372   8.242  0.00  0.00     0.196 C 
HETATM   34  C   UNK N   1      30.196  18.598   8.926  0.00  0.00     0.036 C 
ENDBRANCH  32  33
ENDBRANCH  15  32
ENDBRANCH  11  14
ENDBRANCH   7  10
BRANCH   3  35
HETATM   35  C   UNK N   1      35.745  15.982  10.776  0.00  0.00     0.228 C 
HETATM   36  O   UNK N   1      35.677  15.445  12.008  0.00  0.00    -0.643 OA
HETATM   37  O   UNK N   1      36.036  17.162  10.667  0.00  0.00    -0.643 OA
ENDBRANCH   3  35
BRANCH   4  38
HETATM   38  S   UNK N   1      38.226  14.240   9.703  0.00  0.00    -0.066 SA
BRANCH  38  39
HETATM   39  C   UNK N   1      37.873  12.916  10.875  0.00  0.00     0.117 A 
HETATM   40  S   UNK N   1      37.868  11.300  10.558  0.00  0.00    -0.074 SA
HETATM   41  C   UNK N   1      37.392  10.765  12.064  0.00  0.00     0.082 A 
HETATM   42  C   UNK N   1      37.222  11.945  12.820  0.00  0.00     0.050 A 
HETATM   43  N   UNK N   1      37.510  13.112  12.157  0.00  0.00    -0.344 N 
ATOM     44  HN  UNK N   1      37.455  14.033  12.592  1.00  0.00     0.167 HD
BRANCH  42  45
HETATM   45  C   UNK N   1      36.770  11.992  14.218  0.00  0.00    -0.006 A 
HETATM   46  C   UNK N   1      36.169  13.130  14.761  0.00  0.00     0.031 A 
HETATM   47  C   UNK N   1      35.685  13.085  16.072  0.00  0.00     0.090 A 
HETATM   48  N   UNK N   1      35.820  11.953  16.819  0.00  0.00    -0.371 N 
HETATM   49  C   UNK N   1      36.435  10.849  16.320  0.00  0.00     0.090 A 
HETATM   50  C   UNK N   1      35.280  11.912  18.163  0.00  0.00     0.154 C 
HETATM   51  C   UNK N   1      36.911  10.847  15.012  0.00  0.00     0.031 A 
ENDBRANCH  42  45
ENDBRANCH  38  39
ENDBRANCH   4  38
TORSDOF 13
ENDMDL
