MODEL 1
REMARK VINA RESULT:      -4.8      0.000      0.000
REMARK  5 active torsions:
REMARK  status: ('A' for Active; 'I' for Inactive)
REMARK    1  A    between atoms: S_1  and  C_7 
REMARK    2  A    between atoms: O_2  and  C_8 
REMARK    3  A    between atoms: C_6  and  N_5 
REMARK       I    between atoms: N_5  and  C_9 
REMARK    4  A    between atoms: C_6  and  C_7 
REMARK    5  A    between atoms: C_6  and  C_8 
ROOT
HETATM    1  C   UNK N   1      33.352  17.476   8.715  0.00  0.00     0.191 C 
ENDROOT
BRANCH   1   2
HETATM    2  N   UNK N   1      33.972  16.544   9.649  0.00  0.00    -0.346 N 
HETATM    3  C   UNK N   1      35.070  16.542  10.443  0.00  0.00     0.214 C 
HETATM    4  O   UNK N   1      35.835  17.485  10.502  0.00  0.00    -0.274 OA
HETATM    5  C   UNK N   1      35.336  15.333  11.267  0.00  0.00     0.117 C 
HETATM    6  H   UNK N   1      33.465  15.703   9.722  0.00  0.00     0.163 HD
ENDBRANCH   1   2
BRANCH   1   7
HETATM    7  C   UNK N   1      31.865  17.826   8.469  0.00  0.00     0.106 C 
BRANCH   7   8
HETATM    8  S   UNK N   1      30.922  17.012   7.154  0.00  0.00    -0.180 SA
HETATM    9  H   UNK N   1      31.263  15.759   6.748  0.00  0.00     0.101 HD
ENDBRANCH   7   8
ENDBRANCH   1   7
BRANCH   1  10
HETATM   10  C   UNK N   1      34.373  18.187   7.875  0.00  0.00     0.164 C 
HETATM   11  O   UNK N   1      34.561  17.830   6.721  0.00  0.00    -0.648 OA
BRANCH  10  12
HETATM   12  O   UNK N   1      35.086  19.213   8.376  0.00  0.00    -0.775 OA
HETATM   13  H   UNK N   1      34.993  20.070   8.010  0.00  0.00     0.167 HD
ENDBRANCH  10  12
ENDBRANCH   1  10
TORSDOF 5
ENDMDL
MODEL 2
REMARK VINA RESULT:      -4.7      2.397      3.955
REMARK  5 active torsions:
REMARK  status: ('A' for Active; 'I' for Inactive)
REMARK    1  A    between atoms: S_1  and  C_7 
REMARK    2  A    between atoms: O_2  and  C_8 
REMARK    3  A    between atoms: C_6  and  N_5 
REMARK       I    between atoms: N_5  and  C_9 
REMARK    4  A    between atoms: C_6  and  C_7 
REMARK    5  A    between atoms: C_6  and  C_8 
ROOT
HETATM    1  C   UNK N   1      33.807  17.219   8.873  0.00  0.00     0.191 C 
ENDROOT
BRANCH   1   2
HETATM    2  N   UNK N   1      32.396  17.550   9.036  0.00  0.00    -0.346 N 
HETATM    3  C   UNK N   1      31.306  17.598   8.234  0.00  0.00     0.214 C 
HETATM    4  O   UNK N   1      31.352  17.323   7.051  0.00  0.00    -0.274 OA
HETATM    5  C   UNK N   1      30.009  18.005   8.839  0.00  0.00     0.117 C 
HETATM    6  H   UNK N   1      32.182  17.803   9.963  0.00  0.00     0.163 HD
ENDBRANCH   1   2
BRANCH   1   7
HETATM    7  C   UNK N   1      34.649  16.059   9.456  0.00  0.00     0.106 C 
BRANCH   7   8
HETATM    8  S   UNK N   1      35.585  16.270  10.993  0.00  0.00    -0.180 SA
HETATM    9  H   UNK N   1      36.583  17.193  11.060  0.00  0.00     0.101 HD
ENDBRANCH   7   8
ENDBRANCH   1   7
BRANCH   1  10
HETATM   10  C   UNK N   1      34.511  18.199   7.982  0.00  0.00     0.164 C 
HETATM   11  O   UNK N   1      35.197  19.083   8.477  0.00  0.00    -0.648 OA
BRANCH  10  12
HETATM   12  O   UNK N   1      34.399  18.121   6.643  0.00  0.00    -0.775 OA
HETATM   13  H   UNK N   1      34.782  17.401   6.182  0.00  0.00     0.167 HD
ENDBRANCH  10  12
ENDBRANCH   1  10
TORSDOF 5
ENDMDL
MODEL 3
REMARK VINA RESULT:      -4.0      5.707      6.666
REMARK  5 active torsions:
REMARK  status: ('A' for Active; 'I' for Inactive)
REMARK    1  A    between atoms: S_1  and  C_7 
REMARK    2  A    between atoms: O_2  and  C_8 
REMARK    3  A    between atoms: C_6  and  N_5 
REMARK       I    between atoms: N_5  and  C_9 
REMARK    4  A    between atoms: C_6  and  C_7 
REMARK    5  A    between atoms: C_6  and  C_8 
ROOT
HETATM    1  C   UNK N   1      36.437  13.769  12.669  0.00  0.00     0.191 C 
ENDROOT
BRANCH   1   2
HETATM    2  N   UNK N   1      36.810  14.587  13.818  0.00  0.00    -0.346 N 
HETATM    3  C   UNK N   1      36.945  14.394  15.152  0.00  0.00     0.214 C 
HETATM    4  O   UNK N   1      36.738  13.319  15.681  0.00  0.00    -0.274 OA
HETATM    5  C   UNK N   1      37.362  15.551  15.988  0.00  0.00     0.117 C 
HETATM    6  H   UNK N   1      37.015  15.514  13.558  0.00  0.00     0.163 HD
ENDBRANCH   1   2
BRANCH   1   7
HETATM    7  C   UNK N   1      37.297  13.165  11.534  0.00  0.00     0.106 C 
BRANCH   7   8
HETATM    8  S   UNK N   1      37.508  14.039   9.961  0.00  0.00    -0.180 SA
HETATM    9  H   UNK N   1      37.446  15.397   9.924  0.00  0.00     0.101 HD
ENDBRANCH   7   8
ENDBRANCH   1   7
BRANCH   1  10
HETATM   10  C   UNK N   1      34.961  13.499  12.632  0.00  0.00     0.164 C 
HETATM   11  O   UNK N   1      34.490  12.615  13.334  0.00  0.00    -0.648 OA
BRANCH  10  12
HETATM   12  O   UNK N   1      34.147  14.216  11.836  0.00  0.00    -0.775 OA
HETATM   13  H   UNK N   1      33.248  14.334  12.071  0.00  0.00     0.167 HD
ENDBRANCH  10  12
ENDBRANCH   1  10
TORSDOF 5
ENDMDL
MODEL 4
REMARK VINA RESULT:      -4.0     13.638     15.211
REMARK  5 active torsions:
REMARK  status: ('A' for Active; 'I' for Inactive)
REMARK    1  A    between atoms: S_1  and  C_7 
REMARK    2  A    between atoms: O_2  and  C_8 
REMARK    3  A    between atoms: C_6  and  N_5 
REMARK       I    between atoms: N_5  and  C_9 
REMARK    4  A    between atoms: C_6  and  C_7 
REMARK    5  A    between atoms: C_6  and  C_8 
ROOT
HETATM    1  C   UNK N   1      29.328  23.643  -3.479  0.00  0.00     0.191 C 
ENDROOT
BRANCH   1   2
HETATM    2  N   UNK N   1      28.364  24.728  -3.626  0.00  0.00    -0.346 N 
HETATM    3  C   UNK N   1      27.023  24.866  -3.498  0.00  0.00     0.214 C 
HETATM    4  O   UNK N   1      26.297  23.942  -3.186  0.00  0.00    -0.274 OA
HETATM    5  C   UNK N   1      26.430  26.207  -3.751  0.00  0.00     0.117 C 
HETATM    6  H   UNK N   1      28.798  25.574  -3.883  0.00  0.00     0.163 HD
ENDBRANCH   1   2
BRANCH   1   7
HETATM    7  C   UNK N   1      30.237  22.948  -4.521  0.00  0.00     0.106 C 
BRANCH   7   8
HETATM    8  S   UNK N   1      30.481  21.153  -4.491  0.00  0.00    -0.180 SA
HETATM    9  H   UNK N   1      30.823  20.532  -3.330  0.00  0.00     0.101 HD
ENDBRANCH   7   8
ENDBRANCH   1   7
BRANCH   1  10
HETATM   10  C   UNK N   1      29.411  23.158  -2.061  0.00  0.00     0.164 C 
HETATM   11  O   UNK N   1      30.503  23.044  -1.524  0.00  0.00    -0.648 OA
BRANCH  10  12
HETATM   12  O   UNK N   1      28.299  22.847  -1.371  0.00  0.00    -0.775 OA
HETATM   13  H   UNK N   1      27.536  23.386  -1.443  0.00  0.00     0.167 HD
ENDBRANCH  10  12
ENDBRANCH   1  10
TORSDOF 5
ENDMDL
MODEL 5
REMARK VINA RESULT:      -3.9      3.078      4.435
REMARK  5 active torsions:
REMARK  status: ('A' for Active; 'I' for Inactive)
REMARK    1  A    between atoms: S_1  and  C_7 
REMARK    2  A    between atoms: O_2  and  C_8 
REMARK    3  A    between atoms: C_6  and  N_5 
REMARK       I    between atoms: N_5  and  C_9 
REMARK    4  A    between atoms: C_6  and  C_7 
REMARK    5  A    between atoms: C_6  and  C_8 
ROOT
HETATM    1  C   UNK N   1      34.642  15.406  10.827  0.00  0.00     0.191 C 
ENDROOT
BRANCH   1   2
HETATM    2  N   UNK N   1      33.463  15.835  10.083  0.00  0.00    -0.346 N 
HETATM    3  C   UNK N   1      32.799  15.416   8.979  0.00  0.00     0.214 C 
HETATM    4  O   UNK N   1      33.152  14.450   8.332  0.00  0.00    -0.274 OA
HETATM    5  C   UNK N   1      31.594  16.179   8.556  0.00  0.00     0.117 C 
HETATM    6  H   UNK N   1      33.044  16.630  10.485  0.00  0.00     0.163 HD
ENDBRANCH   1   2
BRANCH   1   7
HETATM    7  C   UNK N   1      34.888  14.155  11.704  0.00  0.00     0.106 C 
BRANCH   7   8
HETATM    8  S   UNK N   1      35.181  12.534  10.950  0.00  0.00    -0.180 SA
HETATM    9  H   UNK N   1      36.431  12.193  10.534  0.00  0.00     0.101 HD
ENDBRANCH   7   8
ENDBRANCH   1   7
BRANCH   1  10
HETATM   10  C   UNK N   1      35.777  16.377  10.682  0.00  0.00     0.164 C 
HETATM   11  O   UNK N   1      35.548  17.528  10.338  0.00  0.00    -0.648 OA
BRANCH  10  12
HETATM   12  O   UNK N   1      37.046  16.000  10.925  0.00  0.00    -0.775 OA
HETATM   13  H   UNK N   1      37.599  15.733  10.218  0.00  0.00     0.167 HD
ENDBRANCH  10  12
ENDBRANCH   1  10
TORSDOF 5
ENDMDL
MODEL 6
REMARK VINA RESULT:      -3.9     14.575     16.083
REMARK  5 active torsions:
REMARK  status: ('A' for Active; 'I' for Inactive)
REMARK    1  A    between atoms: S_1  and  C_7 
REMARK    2  A    between atoms: O_2  and  C_8 
REMARK    3  A    between atoms: C_6  and  N_5 
REMARK       I    between atoms: N_5  and  C_9 
REMARK    4  A    between atoms: C_6  and  C_7 
REMARK    5  A    between atoms: C_6  and  C_8 
ROOT
HETATM    1  C   UNK N   1      20.271  17.718   2.717  0.00  0.00     0.191 C 
ENDROOT
BRANCH   1   2
HETATM    2  N   UNK N   1      19.697  16.721   1.820  0.00  0.00    -0.346 N 
HETATM    3  C   UNK N   1      19.720  16.479   0.487  0.00  0.00     0.214 C 
HETATM    4  O   UNK N   1      20.330  17.181  -0.295  0.00  0.00    -0.274 OA
HETATM    5  C   UNK N   1      18.963  15.304  -0.023  0.00  0.00     0.117 C 
HETATM    6  H   UNK N   1      19.157  16.057   2.306  0.00  0.00     0.163 HD
ENDBRANCH   1   2
BRANCH   1   7
HETATM    7  C   UNK N   1      21.538  17.673   3.604  0.00  0.00     0.106 C 
BRANCH   7   8
HETATM    8  S   UNK N   1      21.409  17.663   5.410  0.00  0.00    -0.180 SA
HETATM    9  H   UNK N   1      22.407  18.194   6.167  0.00  0.00     0.101 HD
ENDBRANCH   7   8
ENDBRANCH   1   7
BRANCH   1  10
HETATM   10  C   UNK N   1      19.456  18.978   2.745  0.00  0.00     0.164 C 
HETATM   11  O   UNK N   1      19.976  20.026   3.101  0.00  0.00    -0.648 OA
BRANCH  10  12
HETATM   12  O   UNK N   1      18.160  18.971   2.385  0.00  0.00    -0.775 OA
HETATM   13  H   UNK N   1      17.649  18.192   2.488  0.00  0.00     0.167 HD
ENDBRANCH  10  12
ENDBRANCH   1  10
TORSDOF 5
ENDMDL
MODEL 7
REMARK VINA RESULT:      -3.9     11.572     12.746
REMARK  5 active torsions:
REMARK  status: ('A' for Active; 'I' for Inactive)
REMARK    1  A    between atoms: S_1  and  C_7 
REMARK    2  A    between atoms: O_2  and  C_8 
REMARK    3  A    between atoms: C_6  and  N_5 
REMARK       I    between atoms: N_5  and  C_9 
REMARK    4  A    between atoms: C_6  and  C_7 
REMARK    5  A    between atoms: C_6  and  C_8 
ROOT
HETATM    1  C   UNK N   1      23.463  12.755  10.071  0.00  0.00     0.191 C 
ENDROOT
BRANCH   1   2
HETATM    2  N   UNK N   1      22.235  13.538  10.003  0.00  0.00    -0.346 N 
HETATM    3  C   UNK N   1      21.106  13.520   9.255  0.00  0.00     0.214 C 
HETATM    4  O   UNK N   1      20.918  12.703   8.374  0.00  0.00    -0.274 OA
HETATM    5  C   UNK N   1      20.065  14.546   9.533  0.00  0.00     0.117 C 
HETATM    6  H   UNK N   1      22.223  14.264  10.669  0.00  0.00     0.163 HD
ENDBRANCH   1   2
BRANCH   1   7
HETATM    7  C   UNK N   1      24.489  12.382   8.975  0.00  0.00     0.106 C 
BRANCH   7   8
HETATM    8  S   UNK N   1      24.793  13.485   7.571  0.00  0.00    -0.180 SA
HETATM    9  H   UNK N   1      24.798  14.834   7.754  0.00  0.00     0.101 HD
ENDBRANCH   7   8
ENDBRANCH   1   7
BRANCH   1  10
HETATM   10  C   UNK N   1      23.727  12.252  11.460  0.00  0.00     0.164 C 
HETATM   11  O   UNK N   1      22.791  11.903  12.165  0.00  0.00    -0.648 OA
BRANCH  10  12
HETATM   12  O   UNK N   1      24.981  12.178  11.942  0.00  0.00    -0.775 OA
HETATM   13  H   UNK N   1      25.172  11.618  12.669  0.00  0.00     0.167 HD
ENDBRANCH  10  12
ENDBRANCH   1  10
TORSDOF 5
ENDMDL
MODEL 8
REMARK VINA RESULT:      -3.8     11.842     12.618
REMARK  5 active torsions:
REMARK  status: ('A' for Active; 'I' for Inactive)
REMARK    1  A    between atoms: S_1  and  C_7 
REMARK    2  A    between atoms: O_2  and  C_8 
REMARK    3  A    between atoms: C_6  and  N_5 
REMARK       I    between atoms: N_5  and  C_9 
REMARK    4  A    between atoms: C_6  and  C_7 
REMARK    5  A    between atoms: C_6  and  C_8 
ROOT
HETATM    1  C   UNK N   1      22.587  12.323   9.521  0.00  0.00     0.191 C 
ENDROOT
BRANCH   1   2
HETATM    2  N   UNK N   1      22.651  12.181  10.971  0.00  0.00    -0.346 N 
HETATM    3  C   UNK N   1      23.630  12.030  11.895  0.00  0.00     0.214 C 
HETATM    4  O   UNK N   1      24.808  11.983  11.598  0.00  0.00    -0.274 OA
HETATM    5  C   UNK N   1      23.232  11.920  13.324  0.00  0.00     0.117 C 
HETATM    6  H   UNK N   1      21.756  12.199  11.383  0.00  0.00     0.163 HD
ENDBRANCH   1   2
BRANCH   1   7
HETATM    7  C   UNK N   1      23.669  12.116   8.434  0.00  0.00     0.106 C 
BRANCH   7   8
HETATM    8  S   UNK N   1      24.899  13.400   8.090  0.00  0.00    -0.180 SA
HETATM    9  H   UNK N   1      25.978  13.544   8.907  0.00  0.00     0.101 HD
ENDBRANCH   7   8
ENDBRANCH   1   7
BRANCH   1  10
HETATM   10  C   UNK N   1      21.221  12.741   9.061  0.00  0.00     0.164 C 
HETATM   11  O   UNK N   1      20.408  13.154   9.876  0.00  0.00    -0.648 OA
BRANCH  10  12
HETATM   12  O   UNK N   1      20.877  12.668   7.762  0.00  0.00    -0.775 OA
HETATM   13  H   UNK N   1      21.261  12.015   7.212  0.00  0.00     0.167 HD
ENDBRANCH  10  12
ENDBRANCH   1  10
TORSDOF 5
ENDMDL
MODEL 9
REMARK VINA RESULT:      -3.8     13.621     14.054
REMARK  5 active torsions:
REMARK  status: ('A' for Active; 'I' for Inactive)
REMARK    1  A    between atoms: S_1  and  C_7 
REMARK    2  A    between atoms: O_2  and  C_8 
REMARK    3  A    between atoms: C_6  and  N_5 
REMARK       I    between atoms: N_5  and  C_9 
REMARK    4  A    between atoms: C_6  and  C_7 
REMARK    5  A    between atoms: C_6  and  C_8 
ROOT
HETATM    1  C   UNK N   1      20.264  16.684   8.143  0.00  0.00     0.191 C 
ENDROOT
BRANCH   1   2
HETATM    2  N   UNK N   1      20.705  15.594   9.007  0.00  0.00    -0.346 N 
HETATM    3  C   UNK N   1      20.733  14.242   8.935  0.00  0.00     0.214 C 
HETATM    4  O   UNK N   1      20.323  13.630   7.969  0.00  0.00    -0.274 OA
HETATM    5  C   UNK N   1      21.291  13.491  10.092  0.00  0.00     0.117 C 
HETATM    6  H   UNK N   1      21.075  15.926   9.857  0.00  0.00     0.163 HD
ENDBRANCH   1   2
BRANCH   1   7
HETATM    7  C   UNK N   1      20.449  16.910   6.623  0.00  0.00     0.106 C 
BRANCH   7   8
HETATM    8  S   UNK N   1      21.717  18.042   5.999  0.00  0.00    -0.180 SA
HETATM    9  H   UNK N   1      22.991  17.601   5.811  0.00  0.00     0.101 HD
ENDBRANCH   7   8
ENDBRANCH   1   7
BRANCH   1  10
HETATM   10  C   UNK N   1      19.512  17.733   8.908  0.00  0.00     0.164 C 
HETATM   11  O   UNK N   1      20.062  18.789   9.186  0.00  0.00    -0.648 OA
BRANCH  10  12
HETATM   12  O   UNK N   1      18.239  17.528   9.293  0.00  0.00    -0.775 OA
HETATM   13  H   UNK N   1      18.058  17.097  10.105  0.00  0.00     0.167 HD
ENDBRANCH  10  12
ENDBRANCH   1  10
TORSDOF 5
ENDMDL
