MODEL 1
REMARK VINA RESULT:      -7.7      0.000      0.000
REMARK  3 active torsions:
REMARK  status: ('A' for Active; 'I' for Inactive)
REMARK    1  A    between atoms: C_14  and  O_16 
REMARK    2  A    between atoms: C_22  and  C_23 
REMARK    3  A    between atoms: C_23  and  C_24 
ROOT
HETATM    1  C   UNK N   1      31.996  15.124   7.956  0.00  0.00     0.084 C 
HETATM    2  C   UNK N   1      32.306  16.598   7.985  0.00  0.00     0.149 C 
HETATM    3  C   UNK N   1      33.448  17.104   8.778  0.00  0.00     0.053 C 
HETATM    4  C   UNK N   1      34.362  16.264   9.287  0.00  0.00    -0.065 C 
HETATM    5  C   UNK N   1      34.296  14.764   9.005  0.00  0.00     0.019 C 
HETATM    6  C   UNK N   1      32.808  14.358   9.011  0.00  0.00     0.025 C 
HETATM    7  C   UNK N   1      35.371  16.796  10.259  0.00  0.00     0.036 C 
HETATM    8  C   UNK N   1      35.323  16.047  11.599  0.00  0.00     0.013 C 
HETATM    9  C   UNK N   1      34.858  14.578  11.491  0.00  0.00     0.034 C 
HETATM   10  C   UNK N   1      35.104  13.960  10.087  0.00  0.00     0.144 C 
HETATM   11  C   UNK N   1      35.386  13.706  12.671  0.00  0.00     0.007 C 
HETATM   12  C   UNK N   1      35.871  12.297  12.297  0.00  0.00     0.004 C 
HETATM   13  C   UNK N   1      34.841  11.641  11.393  0.00  0.00     0.048 C 
HETATM   14  C   UNK N   1      34.665  12.449  10.078  0.00  0.00     0.160 C 
HETATM   15  C   UNK N   1      34.862  14.474   7.614  0.00  0.00     0.023 C 
HETATM   16  C   UNK N   1      37.222  12.284  11.542  0.00  0.00     0.019 C 
HETATM   17  F   UNK N   1      36.460  14.084   9.811  0.00  0.00    -0.239 F 
HETATM   18  O   UNK N   1      31.582  17.377   7.398  0.00  0.00    -0.293 OA
HETATM   19  C   UNK N   1      36.489  14.163  13.626  0.00  0.00     0.041 C 
HETATM   20  C   UNK N   1      36.919  12.848  14.349  0.00  0.00     0.168 C 
HETATM   21  C   UNK N   1      36.126  11.716  13.704  0.00  0.00     0.159 C 
HETATM   22  O   UNK N   1      34.960  11.640  14.477  0.00  0.00    -0.334 OA
HETATM   23  O   UNK N   1      36.532  12.870  15.687  0.00  0.00    -0.347 OA
HETATM   24  C   UNK N   1      35.325  12.139  15.750  0.00  0.00     0.159 C 
HETATM   25  C   UNK N   1      34.228  13.051  16.261  0.00  0.00     0.078 C 
HETATM   26  C   UNK N   1      35.496  10.982  16.720  0.00  0.00     0.078 C 
ENDROOT
BRANCH  21  27
HETATM   27  C   UNK N   1      36.796  10.350  13.701  0.00  0.00     0.178 C 
HETATM   28  O   UNK N   1      36.188   9.367  13.308  0.00  0.00    -0.293 OA
BRANCH  27  29
HETATM   29  C   UNK N   1      38.203  10.183  14.200  0.00  0.00     0.196 C 
HETATM   30 Cl   UNK N   1      38.318   8.960  15.495  0.00  0.00    -0.122 Cl
ENDBRANCH  27  29
ENDBRANCH  21  27
BRANCH  14  31
HETATM   31  O   UNK N   1      35.223  11.767   8.995  0.00  0.00    -0.392 OA
HETATM   32  H   UNK N   1      35.000  11.765   8.050  0.00  0.00     0.210 HD
ENDBRANCH  14  31
TORSDOF 3
ENDMDL
MODEL 2
REMARK VINA RESULT:      -7.4     18.155     21.934
REMARK  3 active torsions:
REMARK  status: ('A' for Active; 'I' for Inactive)
REMARK    1  A    between atoms: C_14  and  O_16 
REMARK    2  A    between atoms: C_22  and  C_23 
REMARK    3  A    between atoms: C_23  and  C_24 
ROOT
HETATM    1  C   UNK N   1      34.357  21.967  -5.572  0.00  0.00     0.084 C 
HETATM    2  C   UNK N   1      34.479  21.270  -4.243  0.00  0.00     0.149 C 
HETATM    3  C   UNK N   1      33.291  21.105  -3.376  0.00  0.00     0.053 C 
HETATM    4  C   UNK N   1      32.057  21.347  -3.841  0.00  0.00    -0.065 C 
HETATM    5  C   UNK N   1      31.829  21.735  -5.302  0.00  0.00     0.019 C 
HETATM    6  C   UNK N   1      32.992  22.655  -5.723  0.00  0.00     0.025 C 
HETATM    7  C   UNK N   1      30.912  21.378  -2.874  0.00  0.00     0.036 C 
HETATM    8  C   UNK N   1      30.166  22.720  -2.915  0.00  0.00     0.013 C 
HETATM    9  C   UNK N   1      30.212  23.433  -4.284  0.00  0.00     0.034 C 
HETATM   10  C   UNK N   1      30.445  22.460  -5.473  0.00  0.00     0.144 C 
HETATM   11  C   UNK N   1      29.008  24.403  -4.483  0.00  0.00     0.007 C 
HETATM   12  C   UNK N   1      28.371  24.402  -5.882  0.00  0.00     0.004 C 
HETATM   13  C   UNK N   1      29.471  24.483  -6.927  0.00  0.00     0.048 C 
HETATM   14  C   UNK N   1      30.415  23.252  -6.833  0.00  0.00     0.160 C 
HETATM   15  C   UNK N   1      31.870  20.484  -6.180  0.00  0.00     0.023 C 
HETATM   16  C   UNK N   1      27.538  23.134  -6.185  0.00  0.00     0.019 C 
HETATM   17  F   UNK N   1      29.436  21.506  -5.433  0.00  0.00    -0.239 F 
HETATM   18  O   UNK N   1      35.568  20.892  -3.859  0.00  0.00    -0.293 OA
HETATM   19  C   UNK N   1      27.770  24.401  -3.586  0.00  0.00     0.041 C 
HETATM   20  C   UNK N   1      26.728  25.237  -4.393  0.00  0.00     0.168 C 
HETATM   21  C   UNK N   1      27.382  25.577  -5.729  0.00  0.00     0.159 C 
HETATM   22  O   UNK N   1      28.024  26.798  -5.488  0.00  0.00    -0.334 OA
HETATM   23  O   UNK N   1      26.483  26.458  -3.768  0.00  0.00    -0.347 OA
HETATM   24  C   UNK N   1      27.292  27.402  -4.438  0.00  0.00     0.159 C 
HETATM   25  C   UNK N   1      28.258  28.011  -3.442  0.00  0.00     0.078 C 
HETATM   26  C   UNK N   1      26.408  28.502  -5.002  0.00  0.00     0.078 C 
ENDROOT
BRANCH  21  27
HETATM   27  C   UNK N   1      26.436  25.751  -6.909  0.00  0.00     0.178 C 
HETATM   28  O   UNK N   1      25.304  25.296  -6.862  0.00  0.00    -0.293 OA
BRANCH  27  29
HETATM   29  C   UNK N   1      26.884  26.460  -8.154  0.00  0.00     0.196 C 
HETATM   30 Cl   UNK N   1      25.901  26.012  -9.575  0.00  0.00    -0.122 Cl
ENDBRANCH  27  29
ENDBRANCH  21  27
BRANCH  14  31
HETATM   31  O   UNK N   1      30.222  22.392  -7.915  0.00  0.00    -0.392 OA
HETATM   32  H   UNK N   1      30.136  22.563  -8.867  0.00  0.00     0.210 HD
ENDBRANCH  14  31
TORSDOF 3
ENDMDL
MODEL 3
REMARK VINA RESULT:      -7.4      3.413      8.240
REMARK  3 active torsions:
REMARK  status: ('A' for Active; 'I' for Inactive)
REMARK    1  A    between atoms: C_14  and  O_16 
REMARK    2  A    between atoms: C_22  and  C_23 
REMARK    3  A    between atoms: C_23  and  C_24 
ROOT
HETATM    1  C   UNK N   1      35.711  11.528  12.520  0.00  0.00     0.084 C 
HETATM    2  C   UNK N   1      37.213  11.461  12.430  0.00  0.00     0.149 C 
HETATM    3  C   UNK N   1      37.938  12.294  11.444  0.00  0.00     0.053 C 
HETATM    4  C   UNK N   1      37.318  13.284  10.786  0.00  0.00    -0.065 C 
HETATM    5  C   UNK N   1      35.860  13.633  11.082  0.00  0.00     0.019 C 
HETATM    6  C   UNK N   1      35.111  12.310  11.342  0.00  0.00     0.025 C 
HETATM    7  C   UNK N   1      38.027  13.952   9.647  0.00  0.00     0.036 C 
HETATM    8  C   UNK N   1      37.225  13.859   8.341  0.00  0.00     0.013 C 
HETATM    9  C   UNK N   1      35.695  13.790   8.537  0.00  0.00     0.034 C 
HETATM   10  C   UNK N   1      35.221  14.415   9.878  0.00  0.00     0.144 C 
HETATM   11  C   UNK N   1      34.918  14.305   7.287  0.00  0.00     0.007 C 
HETATM   12  C   UNK N   1      33.685  15.175   7.576  0.00  0.00     0.004 C 
HETATM   13  C   UNK N   1      32.846  14.505   8.651  0.00  0.00     0.048 C 
HETATM   14  C   UNK N   1      33.651  14.365   9.973  0.00  0.00     0.160 C 
HETATM   15  C   UNK N   1      35.780  14.482  12.352  0.00  0.00     0.023 C 
HETATM   16  C   UNK N   1      34.030  16.597   8.080  0.00  0.00     0.019 C 
HETATM   17  F   UNK N   1      35.678  15.727   9.909  0.00  0.00    -0.239 F 
HETATM   18  O   UNK N   1      37.825  10.681  13.132  0.00  0.00    -0.293 OA
HETATM   19  C   UNK N   1      35.578  15.084   6.149  0.00  0.00     0.041 C 
HETATM   20  C   UNK N   1      34.371  15.691   5.368  0.00  0.00     0.168 C 
HETATM   21  C   UNK N   1      33.115  15.319   6.149  0.00  0.00     0.159 C 
HETATM   22  O   UNK N   1      32.725  14.093   5.595  0.00  0.00    -0.334 OA
HETATM   23  O   UNK N   1      34.236  15.088   4.120  0.00  0.00    -0.347 OA
HETATM   24  C   UNK N   1      33.236  14.102   4.275  0.00  0.00     0.159 C 
HETATM   25  C   UNK N   1      33.835  12.746   3.962  0.00  0.00     0.078 C 
HETATM   26  C   UNK N   1      32.108  14.381   3.296  0.00  0.00     0.078 C 
ENDROOT
BRANCH  21  27
HETATM   27  C   UNK N   1      31.949  16.292   6.040  0.00  0.00     0.178 C 
HETATM   28  O   UNK N   1      32.092  17.360   5.467  0.00  0.00    -0.293 OA
BRANCH  27  29
HETATM   29  C   UNK N   1      30.617  15.966   6.652  0.00  0.00     0.196 C 
HETATM   30 Cl   UNK N   1      30.214  17.056   8.006  0.00  0.00    -0.122 Cl
ENDBRANCH  27  29
ENDBRANCH  21  27
BRANCH  14  31
HETATM   31  O   UNK N   1      33.174  15.249  10.943  0.00  0.00    -0.392 OA
HETATM   32  H   UNK N   1      33.413  16.166  11.152  0.00  0.00     0.210 HD
ENDBRANCH  14  31
TORSDOF 3
ENDMDL
MODEL 4
REMARK VINA RESULT:      -7.1      9.167     12.118
REMARK  3 active torsions:
REMARK  status: ('A' for Active; 'I' for Inactive)
REMARK    1  A    between atoms: C_14  and  O_16 
REMARK    2  A    between atoms: C_22  and  C_23 
REMARK    3  A    between atoms: C_23  and  C_24 
ROOT
HETATM    1  C   UNK N   1      24.735  20.691   2.697  0.00  0.00     0.084 C 
HETATM    2  C   UNK N   1      23.331  20.288   3.062  0.00  0.00     0.149 C 
HETATM    3  C   UNK N   1      23.090  19.063   3.858  0.00  0.00     0.053 C 
HETATM    4  C   UNK N   1      24.101  18.424   4.466  0.00  0.00    -0.065 C 
HETATM    5  C   UNK N   1      25.524  18.978   4.418  0.00  0.00     0.019 C 
HETATM    6  C   UNK N   1      25.741  19.574   3.012  0.00  0.00     0.025 C 
HETATM    7  C   UNK N   1      23.844  17.078   5.073  0.00  0.00     0.036 C 
HETATM    8  C   UNK N   1      24.770  16.002   4.486  0.00  0.00     0.013 C 
HETATM    9  C   UNK N   1      26.139  16.532   4.006  0.00  0.00     0.034 C 
HETATM   10  C   UNK N   1      26.570  17.844   4.717  0.00  0.00     0.144 C 
HETATM   11  C   UNK N   1      27.233  15.421   4.006  0.00  0.00     0.007 C 
HETATM   12  C   UNK N   1      28.621  15.847   4.510  0.00  0.00     0.004 C 
HETATM   13  C   UNK N   1      29.006  17.160   3.850  0.00  0.00     0.048 C 
HETATM   14  C   UNK N   1      27.998  18.283   4.223  0.00  0.00     0.160 C 
HETATM   15  C   UNK N   1      25.674  20.105   5.441  0.00  0.00     0.023 C 
HETATM   16  C   UNK N   1      28.688  16.062   6.041  0.00  0.00     0.019 C 
HETATM   17  F   UNK N   1      26.574  17.594   6.084  0.00  0.00    -0.239 F 
HETATM   18  O   UNK N   1      22.391  20.943   2.656  0.00  0.00    -0.293 OA
HETATM   19  C   UNK N   1      27.059  14.070   4.702  0.00  0.00     0.041 C 
HETATM   20  C   UNK N   1      28.508  13.493   4.753  0.00  0.00     0.168 C 
HETATM   21  C   UNK N   1      29.428  14.571   4.189  0.00  0.00     0.159 C 
HETATM   22  O   UNK N   1      29.474  14.289   2.817  0.00  0.00    -0.334 OA
HETATM   23  O   UNK N   1      28.636  12.399   3.900  0.00  0.00    -0.347 OA
HETATM   24  C   UNK N   1      29.214  12.902   2.714  0.00  0.00     0.159 C 
HETATM   25  C   UNK N   1      28.260  12.657   1.563  0.00  0.00     0.078 C 
HETATM   26  C   UNK N   1      30.514  12.161   2.443  0.00  0.00     0.078 C 
ENDROOT
BRANCH  21  27
HETATM   27  C   UNK N   1      30.851  14.583   4.729  0.00  0.00     0.178 C 
HETATM   28  O   UNK N   1      31.150  13.890   5.688  0.00  0.00    -0.293 OA
BRANCH  27  29
HETATM   29  C   UNK N   1      31.900  15.461   4.110  0.00  0.00     0.196 C 
HETATM   30 Cl   UNK N   1      32.374  16.805   5.185  0.00  0.00    -0.122 Cl
ENDBRANCH  27  29
ENDBRANCH  21  27
BRANCH  14  31
HETATM   31  O   UNK N   1      28.578  19.201   5.101  0.00  0.00    -0.392 OA
HETATM   32  H   UNK N   1      29.406  19.705   5.050  0.00  0.00     0.210 HD
ENDBRANCH  14  31
TORSDOF 3
ENDMDL
MODEL 5
REMARK VINA RESULT:      -7.0      6.031     11.013
REMARK  3 active torsions:
REMARK  status: ('A' for Active; 'I' for Inactive)
REMARK    1  A    between atoms: C_14  and  O_16 
REMARK    2  A    between atoms: C_22  and  C_23 
REMARK    3  A    between atoms: C_23  and  C_24 
ROOT
HETATM    1  C   UNK N   1      33.613  15.318   9.427  0.00  0.00     0.084 C 
HETATM    2  C   UNK N   1      34.886  15.164   8.635  0.00  0.00     0.149 C 
HETATM    3  C   UNK N   1      34.901  15.460   7.185  0.00  0.00     0.053 C 
HETATM    4  C   UNK N   1      33.872  16.088   6.597  0.00  0.00    -0.065 C 
HETATM    5  C   UNK N   1      32.680  16.583   7.415  0.00  0.00     0.019 C 
HETATM    6  C   UNK N   1      32.402  15.531   8.508  0.00  0.00     0.025 C 
HETATM    7  C   UNK N   1      33.834  16.169   5.100  0.00  0.00     0.036 C 
HETATM    8  C   UNK N   1      32.552  15.547   4.527  0.00  0.00     0.013 C 
HETATM    9  C   UNK N   1      31.330  15.625   5.468  0.00  0.00     0.034 C 
HETATM   10  C   UNK N   1      31.423  16.787   6.495  0.00  0.00     0.144 C 
HETATM   11  C   UNK N   1      29.982  15.574   4.687  0.00  0.00     0.007 C 
HETATM   12  C   UNK N   1      28.883  16.527   5.183  0.00  0.00     0.004 C 
HETATM   13  C   UNK N   1      28.780  16.420   6.695  0.00  0.00     0.048 C 
HETATM   14  C   UNK N   1      30.116  16.840   7.371  0.00  0.00     0.160 C 
HETATM   15  C   UNK N   1      33.039  17.901   8.103  0.00  0.00     0.023 C 
HETATM   16  C   UNK N   1      29.148  18.013   4.842  0.00  0.00     0.019 C 
HETATM   17  F   UNK N   1      31.585  17.965   5.777  0.00  0.00    -0.239 F 
HETATM   18  O   UNK N   1      35.887  14.745   9.180  0.00  0.00    -0.293 OA
HETATM   19  C   UNK N   1      29.881  15.758   3.172  0.00  0.00     0.041 C 
HETATM   20  C   UNK N   1      28.359  16.008   2.931  0.00  0.00     0.168 C 
HETATM   21  C   UNK N   1      27.702  16.057   4.307  0.00  0.00     0.159 C 
HETATM   22  O   UNK N   1      27.340  14.727   4.554  0.00  0.00    -0.334 OA
HETATM   23  O   UNK N   1      27.778  14.928   2.271  0.00  0.00    -0.347 OA
HETATM   24  C   UNK N   1      27.170  14.144   3.276  0.00  0.00     0.159 C 
HETATM   25  C   UNK N   1      27.799  12.766   3.268  0.00  0.00     0.078 C 
HETATM   26  C   UNK N   1      25.687  14.011   2.972  0.00  0.00     0.078 C 
ENDROOT
BRANCH  21  27
HETATM   27  C   UNK N   1      26.459  16.928   4.422  0.00  0.00     0.178 C 
HETATM   28  O   UNK N   1      25.820  16.955   5.461  0.00  0.00    -0.293 OA
BRANCH  27  29
HETATM   29  C   UNK N   1      25.985  17.747   3.256  0.00  0.00     0.196 C 
HETATM   30 Cl   UNK N   1      26.104  19.499   3.571  0.00  0.00    -0.122 Cl
ENDBRANCH  27  29
ENDBRANCH  21  27
BRANCH  14  31
HETATM   31  O   UNK N   1      29.985  18.073   8.011  0.00  0.00    -0.392 OA
HETATM   32  H   UNK N   1      29.201  18.591   8.258  0.00  0.00     0.210 HD
ENDBRANCH  14  31
TORSDOF 3
ENDMDL
MODEL 6
REMARK VINA RESULT:      -6.9      4.136      9.039
REMARK  3 active torsions:
REMARK  status: ('A' for Active; 'I' for Inactive)
REMARK    1  A    between atoms: C_14  and  O_16 
REMARK    2  A    between atoms: C_22  and  C_23 
REMARK    3  A    between atoms: C_23  and  C_24 
ROOT
HETATM    1  C   UNK N   1      34.951  13.903  12.093  0.00  0.00     0.084 C 
HETATM    2  C   UNK N   1      36.278  13.234  11.843  0.00  0.00     0.149 C 
HETATM    3  C   UNK N   1      36.915  13.317  10.509  0.00  0.00     0.053 C 
HETATM    4  C   UNK N   1      36.461  14.168   9.578  0.00  0.00    -0.065 C 
HETATM    5  C   UNK N   1      35.316  15.132   9.885  0.00  0.00     0.019 C 
HETATM    6  C   UNK N   1      34.310  14.385  10.783  0.00  0.00     0.025 C 
HETATM    7  C   UNK N   1      36.992  14.062   8.181  0.00  0.00     0.036 C 
HETATM    8  C   UNK N   1      35.869  13.832   7.159  0.00  0.00     0.013 C 
HETATM    9  C   UNK N   1      34.505  14.432   7.564  0.00  0.00     0.034 C 
HETATM   10  C   UNK N   1      34.632  15.621   8.557  0.00  0.00     0.144 C 
HETATM   11  C   UNK N   1      33.602  14.730   6.329  0.00  0.00     0.007 C 
HETATM   12  C   UNK N   1      32.816  16.049   6.376  0.00  0.00     0.004 C 
HETATM   13  C   UNK N   1      32.149  16.181   7.735  0.00  0.00     0.048 C 
HETATM   14  C   UNK N   1      33.210  16.217   8.870  0.00  0.00     0.160 C 
HETATM   15  C   UNK N   1      35.849  16.335  10.666  0.00  0.00     0.023 C 
HETATM   16  C   UNK N   1      33.696  17.306   6.170  0.00  0.00     0.019 C 
HETATM   17  F   UNK N   1      35.448  16.574   7.962  0.00  0.00    -0.239 F 
HETATM   18  O   UNK N   1      36.799  12.581  12.725  0.00  0.00    -0.293 OA
HETATM   19  C   UNK N   1      34.122  14.738   4.891  0.00  0.00     0.041 C 
HETATM   20  C   UNK N   1      32.984  15.446   4.091  0.00  0.00     0.168 C 
HETATM   21  C   UNK N   1      31.943  15.888   5.114  0.00  0.00     0.159 C 
HETATM   22  O   UNK N   1      31.067  14.798   5.196  0.00  0.00    -0.334 OA
HETATM   23  O   UNK N   1      32.334  14.543   3.252  0.00  0.00    -0.347 OA
HETATM   24  C   UNK N   1      31.170  14.144   3.945  0.00  0.00     0.159 C 
HETATM   25  C   UNK N   1      31.226  12.646   4.169  0.00  0.00     0.078 C 
HETATM   26  C   UNK N   1      29.951  14.471   3.099  0.00  0.00     0.078 C 
ENDROOT
BRANCH  21  27
HETATM   27  C   UNK N   1      31.138  17.129   4.752  0.00  0.00     0.178 C 
HETATM   28  O   UNK N   1      31.571  17.926   3.936  0.00  0.00    -0.293 OA
BRANCH  27  29
HETATM   29  C   UNK N   1      29.815  17.405   5.407  0.00  0.00     0.196 C 
HETATM   30 Cl   UNK N   1      28.526  17.722   4.214  0.00  0.00    -0.122 Cl
ENDBRANCH  27  29
ENDBRANCH  21  27
BRANCH  14  31
HETATM   31  O   UNK N   1      33.307  17.497   9.420  0.00  0.00    -0.392 OA
HETATM   32  H   UNK N   1      32.804  18.310   9.251  0.00  0.00     0.210 HD
ENDBRANCH  14  31
TORSDOF 3
ENDMDL
MODEL 7
REMARK VINA RESULT:      -6.7      5.468     10.595
REMARK  3 active torsions:
REMARK  status: ('A' for Active; 'I' for Inactive)
REMARK    1  A    between atoms: C_14  and  O_16 
REMARK    2  A    between atoms: C_22  and  C_23 
REMARK    3  A    between atoms: C_23  and  C_24 
ROOT
HETATM    1  C   UNK N   1      33.830  13.799   9.492  0.00  0.00     0.084 C 
HETATM    2  C   UNK N   1      34.373  12.679   8.644  0.00  0.00     0.149 C 
HETATM    3  C   UNK N   1      34.056  12.618   7.199  0.00  0.00     0.053 C 
HETATM    4  C   UNK N   1      33.493  13.660   6.570  0.00  0.00    -0.065 C 
HETATM    5  C   UNK N   1      33.223  14.972   7.307  0.00  0.00     0.019 C 
HETATM    6  C   UNK N   1      32.770  14.614   8.736  0.00  0.00     0.025 C 
HETATM    7  C   UNK N   1      32.993  13.476   5.169  0.00  0.00     0.036 C 
HETATM    8  C   UNK N   1      31.499  13.810   5.047  0.00  0.00     0.013 C 
HETATM    9  C   UNK N   1      30.998  14.868   6.053  0.00  0.00     0.034 C 
HETATM   10  C   UNK N   1      32.125  15.811   6.560  0.00  0.00     0.144 C 
HETATM   11  C   UNK N   1      29.729  15.614   5.540  0.00  0.00     0.007 C 
HETATM   12  C   UNK N   1      29.690  17.128   5.799  0.00  0.00     0.004 C 
HETATM   13  C   UNK N   1      30.079  17.394   7.244  0.00  0.00     0.048 C 
HETATM   14  C   UNK N   1      31.525  16.898   7.527  0.00  0.00     0.160 C 
HETATM   15  C   UNK N   1      34.516  15.783   7.406  0.00  0.00     0.023 C 
HETATM   16  C   UNK N   1      30.658  17.937   4.904  0.00  0.00     0.019 C 
HETATM   17  F   UNK N   1      32.702  16.405   5.444  0.00  0.00    -0.239 F 
HETATM   18  O   UNK N   1      35.027  11.795   9.160  0.00  0.00    -0.293 OA
HETATM   19  C   UNK N   1      29.239  15.541   4.093  0.00  0.00     0.041 C 
HETATM   20  C   UNK N   1      28.216  16.715   3.991  0.00  0.00     0.168 C 
HETATM   21  C   UNK N   1      28.255  17.446   5.330  0.00  0.00     0.159 C 
HETATM   22  O   UNK N   1      27.278  16.796   6.095  0.00  0.00    -0.334 OA
HETATM   23  O   UNK N   1      26.917  16.230   3.860  0.00  0.00    -0.347 OA
HETATM   24  C   UNK N   1      26.358  16.271   5.156  0.00  0.00     0.159 C 
HETATM   25  C   UNK N   1      25.974  14.864   5.567  0.00  0.00     0.078 C 
HETATM   26  C   UNK N   1      25.108  17.136   5.131  0.00  0.00     0.078 C 
ENDROOT
BRANCH  21  27
HETATM   27  C   UNK N   1      27.929  18.932   5.288  0.00  0.00     0.178 C 
HETATM   28  O   UNK N   1      27.814  19.507   4.217  0.00  0.00    -0.293 OA
BRANCH  27  29
HETATM   29  C   UNK N   1      27.767  19.719   6.557  0.00  0.00     0.196 C 
HETATM   30 Cl   UNK N   1      27.293  21.411   6.244  0.00  0.00    -0.122 Cl
ENDBRANCH  27  29
ENDBRANCH  21  27
BRANCH  14  31
HETATM   31  O   UNK N   1      32.399  17.976   7.682  0.00  0.00    -0.392 OA
HETATM   32  H   UNK N   1      32.396  18.868   7.300  0.00  0.00     0.210 HD
ENDBRANCH  14  31
TORSDOF 3
ENDMDL
MODEL 8
REMARK VINA RESULT:      -6.7     11.122     12.927
REMARK  3 active torsions:
REMARK  status: ('A' for Active; 'I' for Inactive)
REMARK    1  A    between atoms: C_14  and  O_16 
REMARK    2  A    between atoms: C_22  and  C_23 
REMARK    3  A    between atoms: C_23  and  C_24 
ROOT
HETATM    1  C   UNK N   1      28.398  17.101   3.534  0.00  0.00     0.084 C 
HETATM    2  C   UNK N   1      29.396  16.079   3.058  0.00  0.00     0.149 C 
HETATM    3  C   UNK N   1      29.066  14.636   3.105  0.00  0.00     0.053 C 
HETATM    4  C   UNK N   1      27.812  14.222   3.340  0.00  0.00    -0.065 C 
HETATM    5  C   UNK N   1      26.668  15.223   3.496  0.00  0.00     0.019 C 
HETATM    6  C   UNK N   1      27.221  16.440   4.266  0.00  0.00     0.025 C 
HETATM    7  C   UNK N   1      27.567  12.765   3.594  0.00  0.00     0.036 C 
HETATM    8  C   UNK N   1      26.890  12.529   4.952  0.00  0.00     0.013 C 
HETATM    9  C   UNK N   1      25.993  13.693   5.428  0.00  0.00     0.034 C 
HETATM   10  C   UNK N   1      25.462  14.571   4.262  0.00  0.00     0.144 C 
HETATM   11  C   UNK N   1      24.889  13.218   6.421  0.00  0.00     0.007 C 
HETATM   12  C   UNK N   1      23.500  13.845   6.228  0.00  0.00     0.004 C 
HETATM   13  C   UNK N   1      23.652  15.349   6.072  0.00  0.00     0.048 C 
HETATM   14  C   UNK N   1      24.508  15.692   4.821  0.00  0.00     0.160 C 
HETATM   15  C   UNK N   1      26.209  15.701   2.117  0.00  0.00     0.023 C 
HETATM   16  C   UNK N   1      22.750  13.326   4.977  0.00  0.00     0.019 C 
HETATM   17  F   UNK N   1      24.781  13.733   3.388  0.00  0.00    -0.239 F 
HETATM   18  O   UNK N   1      30.495  16.438   2.685  0.00  0.00    -0.293 OA
HETATM   19  C   UNK N   1      24.530  11.747   6.637  0.00  0.00     0.041 C 
HETATM   20  C   UNK N   1      23.164  11.808   7.389  0.00  0.00     0.168 C 
HETATM   21  C   UNK N   1      22.774  13.280   7.467  0.00  0.00     0.159 C 
HETATM   22  O   UNK N   1      23.340  13.715   8.672  0.00  0.00    -0.334 OA
HETATM   23  O   UNK N   1      23.306  11.382   8.707  0.00  0.00    -0.347 OA
HETATM   24  C   UNK N   1      23.427  12.557   9.481  0.00  0.00     0.159 C 
HETATM   25  C   UNK N   1      24.767  12.541  10.187  0.00  0.00     0.078 C 
HETATM   26  C   UNK N   1      22.321  12.582  10.523  0.00  0.00     0.078 C 
ENDROOT
BRANCH  21  27
HETATM   27  C   UNK N   1      21.280  13.573   7.500  0.00  0.00     0.178 C 
HETATM   28  O   UNK N   1      20.476  12.704   7.206  0.00  0.00    -0.293 OA
BRANCH  27  29
HETATM   29  C   UNK N   1      20.773  14.938   7.869  0.00  0.00     0.196 C 
HETATM   30 Cl   UNK N   1      19.921  14.937   9.437  0.00  0.00    -0.122 Cl
ENDBRANCH  27  29
ENDBRANCH  21  27
BRANCH  14  31
HETATM   31  O   UNK N   1      23.714  16.233   3.808  0.00  0.00    -0.392 OA
HETATM   32  H   UNK N   1      23.543  15.940   2.898  0.00  0.00     0.210 HD
ENDBRANCH  14  31
TORSDOF 3
ENDMDL
MODEL 9
REMARK VINA RESULT:      -6.6      4.245      7.082
REMARK  3 active torsions:
REMARK  status: ('A' for Active; 'I' for Inactive)
REMARK    1  A    between atoms: C_14  and  O_16 
REMARK    2  A    between atoms: C_22  and  C_23 
REMARK    3  A    between atoms: C_23  and  C_24 
ROOT
HETATM    1  C   UNK N   1      35.010  11.315  12.435  0.00  0.00     0.084 C 
HETATM    2  C   UNK N   1      35.063  12.798  12.693  0.00  0.00     0.149 C 
HETATM    3  C   UNK N   1      35.344  13.309  14.054  0.00  0.00     0.053 C 
HETATM    4  C   UNK N   1      35.788  12.491  15.020  0.00  0.00    -0.065 C 
HETATM    5  C   UNK N   1      36.086  11.021  14.732  0.00  0.00     0.019 C 
HETATM    6  C   UNK N   1      35.012  10.516  13.747  0.00  0.00     0.025 C 
HETATM    7  C   UNK N   1      35.850  13.003  16.428  0.00  0.00     0.036 C 
HETATM    8  C   UNK N   1      35.020  12.136  17.387  0.00  0.00     0.013 C 
HETATM    9  C   UNK N   1      34.903  10.655  16.967  0.00  0.00     0.034 C 
HETATM   10  C   UNK N   1      36.072  10.182  16.060  0.00  0.00     0.144 C 
HETATM   11  C   UNK N   1      34.623   9.720  18.183  0.00  0.00     0.007 C 
HETATM   12  C   UNK N   1      35.385   8.385  18.191  0.00  0.00     0.004 C 
HETATM   13  C   UNK N   1      35.275   7.743  16.818  0.00  0.00     0.048 C 
HETATM   14  C   UNK N   1      35.915   8.651  15.731  0.00  0.00     0.160 C 
HETATM   15  C   UNK N   1      37.451  10.894  14.053  0.00  0.00     0.023 C 
HETATM   16  C   UNK N   1      36.891   8.531  18.513  0.00  0.00     0.019 C 
HETATM   17  F   UNK N   1      37.255  10.421  16.749  0.00  0.00    -0.239 F 
HETATM   18  O   UNK N   1      34.819  13.575  11.791  0.00  0.00    -0.293 OA
HETATM   19  C   UNK N   1      34.775  10.165  19.638  0.00  0.00     0.041 C 
HETATM   20  C   UNK N   1      34.768   8.823  20.436  0.00  0.00     0.168 C 
HETATM   21  C   UNK N   1      34.719   7.702  19.404  0.00  0.00     0.159 C 
HETATM   22  O   UNK N   1      33.349   7.478  19.215  0.00  0.00    -0.334 OA
HETATM   23  O   UNK N   1      33.601   8.700  21.187  0.00  0.00    -0.347 OA
HETATM   24  C   UNK N   1      32.736   7.887  20.423  0.00  0.00     0.159 C 
HETATM   25  C   UNK N   1      31.481   8.673  20.105  0.00  0.00     0.078 C 
HETATM   26  C   UNK N   1      32.356   6.662  21.240  0.00  0.00     0.078 C 
ENDROOT
BRANCH  21  27
HETATM   27  C   UNK N   1      35.373   6.389  19.814  0.00  0.00     0.178 C 
HETATM   28  O   UNK N   1      36.078   6.338  20.808  0.00  0.00    -0.293 OA
BRANCH  27  29
HETATM   29  C   UNK N   1      35.181   5.146  18.994  0.00  0.00     0.196 C 
HETATM   30 Cl   UNK N   1      36.684   4.641  18.174  0.00  0.00    -0.122 Cl
ENDBRANCH  27  29
ENDBRANCH  21  27
BRANCH  14  31
HETATM   31  O   UNK N   1      37.115   8.106  15.270  0.00  0.00    -0.392 OA
HETATM   32  H   UNK N   1      38.035   8.251  15.544  0.00  0.00     0.210 HD
ENDBRANCH  14  31
TORSDOF 3
ENDMDL
