MODEL 1
REMARK VINA RESULT:      -6.0      0.000      0.000
REMARK  5 active torsions:
REMARK  status: ('A' for Active; 'I' for Inactive)
REMARK    1  A    between atoms: C_2  and  C_1 
REMARK    2  A    between atoms: C_3  and  C_1 
REMARK    3  A    between atoms: S_4  and  C_1 
REMARK    4  A    between atoms: S_4  and  C_9 
REMARK    5  A    between atoms: C_15  and  C_9 
REMARK       I    between atoms: N_18  and  C_15 
ROOT
HETATM    1  C   UNK N   1      27.359  25.226  -4.952  0.00  0.00     0.145 C 
ENDROOT
BRANCH   1   2
HETATM    2  C   UNK N   1      27.124  26.709  -4.688  0.00  0.00    -0.038 A 
HETATM    3  C   UNK N   1      27.560  27.651  -5.632  0.00  0.00     0.009 A 
HETATM    4  C   UNK N   1      27.334  29.016  -5.432  0.00  0.00     0.001 A 
HETATM    5  C   UNK N   1      26.654  29.452  -4.293  0.00  0.00     0.000 A 
HETATM    6  C   UNK N   1      26.205  28.525  -3.351  0.00  0.00     0.001 A 
HETATM    7  C   UNK N   1      26.442  27.161  -3.545  0.00  0.00     0.009 A 
ENDBRANCH   1   2
BRANCH   1   8
HETATM    8  C   UNK N   1      28.375  24.579  -4.022  0.00  0.00    -0.038 A 
HETATM    9  C   UNK N   1      27.926  23.728  -3.000  0.00  0.00     0.009 A 
HETATM   10  C   UNK N   1      28.833  23.095  -2.148  0.00  0.00     0.001 A 
HETATM   11  C   UNK N   1      30.205  23.300  -2.312  0.00  0.00     0.000 A 
HETATM   12  C   UNK N   1      30.667  24.142  -3.326  0.00  0.00     0.001 A 
HETATM   13  C   UNK N   1      29.758  24.779  -4.177  0.00  0.00     0.009 A 
ENDBRANCH   1   8
BRANCH   1  14
HETATM   14  S   UNK N   1      25.808  24.226  -5.007  0.00  0.00     0.037 S 
HETATM   15  O   UNK N   1      25.132  25.129  -6.052  0.00  0.00    -0.257 OA
BRANCH  14  16
HETATM   16  C   UNK N   1      26.407  23.140  -6.338  0.00  0.00     0.212 C 
BRANCH  16  17
HETATM   17  C   UNK N   1      25.262  22.627  -7.146  0.00  0.00     0.227 C 
HETATM   18  N   UNK N   1      24.955  23.210  -8.319  0.00  0.00    -0.369 N 
HETATM   19  H   UNK N   1      25.664  23.588  -8.886  0.00  0.00     0.159 HD
HETATM   20  H   UNK N   1      24.015  23.258  -8.612  0.00  0.00     0.159 HD
HETATM   21  O   UNK N   1      24.594  21.691  -6.737  0.00  0.00    -0.273 OA
ENDBRANCH  16  17
ENDBRANCH  14  16
ENDBRANCH   1  14
TORSDOF 5
ENDMDL
MODEL 2
REMARK VINA RESULT:      -5.8      0.783      1.751
REMARK  5 active torsions:
REMARK  status: ('A' for Active; 'I' for Inactive)
REMARK    1  A    between atoms: C_2  and  C_1 
REMARK    2  A    between atoms: C_3  and  C_1 
REMARK    3  A    between atoms: S_4  and  C_1 
REMARK    4  A    between atoms: S_4  and  C_9 
REMARK    5  A    between atoms: C_15  and  C_9 
REMARK       I    between atoms: N_18  and  C_15 
ROOT
HETATM    1  C   UNK N   1      27.389  25.076  -5.184  0.00  0.00     0.145 C 
ENDROOT
BRANCH   1   2
HETATM    2  C   UNK N   1      27.040  26.532  -4.896  0.00  0.00    -0.038 A 
HETATM    3  C   UNK N   1      26.282  26.843  -3.757  0.00  0.00     0.009 A 
HETATM    4  C   UNK N   1      25.969  28.171  -3.451  0.00  0.00     0.001 A 
HETATM    5  C   UNK N   1      26.425  29.203  -4.275  0.00  0.00     0.000 A 
HETATM    6  C   UNK N   1      27.188  28.908  -5.406  0.00  0.00     0.001 A 
HETATM    7  C   UNK N   1      27.490  27.579  -5.718  0.00  0.00     0.009 A 
ENDBRANCH   1   2
BRANCH   1   8
HETATM    8  C   UNK N   1      28.398  24.472  -4.218  0.00  0.00    -0.038 A 
HETATM    9  C   UNK N   1      29.763  24.760  -4.382  0.00  0.00     0.009 A 
HETATM   10  C   UNK N   1      30.712  24.245  -3.496  0.00  0.00     0.001 A 
HETATM   11  C   UNK N   1      30.307  23.441  -2.429  0.00  0.00     0.000 A 
HETATM   12  C   UNK N   1      28.953  23.147  -2.252  0.00  0.00     0.001 A 
HETATM   13  C   UNK N   1      28.003  23.659  -3.141  0.00  0.00     0.009 A 
ENDBRANCH   1   8
BRANCH   1  14
HETATM   14  S   UNK N   1      25.916  23.976  -5.347  0.00  0.00     0.037 S 
HETATM   15  O   UNK N   1      25.261  24.830  -6.444  0.00  0.00    -0.257 OA
BRANCH  14  16
HETATM   16  C   UNK N   1      26.682  22.930  -6.623  0.00  0.00     0.212 C 
BRANCH  16  17
HETATM   17  C   UNK N   1      25.636  22.346  -7.513  0.00  0.00     0.227 C 
HETATM   18  N   UNK N   1      24.516  21.824  -6.978  0.00  0.00    -0.369 N 
HETATM   19  H   UNK N   1      24.129  22.213  -6.161  0.00  0.00     0.159 HD
HETATM   20  H   UNK N   1      24.082  21.051  -7.407  0.00  0.00     0.159 HD
HETATM   21  O   UNK N   1      25.801  22.324  -8.722  0.00  0.00    -0.273 OA
ENDBRANCH  16  17
ENDBRANCH  14  16
ENDBRANCH   1  14
TORSDOF 5
ENDMDL
MODEL 3
REMARK VINA RESULT:      -5.7     22.003     25.055
REMARK  5 active torsions:
REMARK  status: ('A' for Active; 'I' for Inactive)
REMARK    1  A    between atoms: C_2  and  C_1 
REMARK    2  A    between atoms: C_3  and  C_1 
REMARK    3  A    between atoms: S_4  and  C_1 
REMARK    4  A    between atoms: S_4  and  C_9 
REMARK    5  A    between atoms: C_15  and  C_9 
REMARK       I    between atoms: N_18  and  C_15 
ROOT
HETATM    1  C   UNK N   1      35.934  12.639  14.405  0.00  0.00     0.145 C 
ENDROOT
BRANCH   1   2
HETATM    2  C   UNK N   1      36.247  11.177  14.701  0.00  0.00    -0.038 A 
HETATM    3  C   UNK N   1      35.200  10.242  14.725  0.00  0.00     0.009 A 
HETATM    4  C   UNK N   1      35.459   8.889  14.966  0.00  0.00     0.001 A 
HETATM    5  C   UNK N   1      36.771   8.455  15.170  0.00  0.00     0.000 A 
HETATM    6  C   UNK N   1      37.823   9.373  15.139  0.00  0.00     0.001 A 
HETATM    7  C   UNK N   1      37.562  10.727  14.910  0.00  0.00     0.009 A 
ENDBRANCH   1   2
BRANCH   1   8
HETATM    8  C   UNK N   1      36.129  13.573  15.590  0.00  0.00    -0.038 A 
HETATM    9  C   UNK N   1      37.065  14.615  15.495  0.00  0.00     0.009 A 
HETATM   10  C   UNK N   1      37.249  15.508  16.553  0.00  0.00     0.001 A 
HETATM   11  C   UNK N   1      36.492  15.374  17.719  0.00  0.00     0.000 A 
HETATM   12  C   UNK N   1      35.555  14.344  17.827  0.00  0.00     0.001 A 
HETATM   13  C   UNK N   1      35.374  13.447  16.770  0.00  0.00     0.009 A 
ENDBRANCH   1   8
BRANCH   1  14
HETATM   14  S   UNK N   1      36.802  13.297  12.915  0.00  0.00     0.037 S 
HETATM   15  O   UNK N   1      36.297  12.178  11.989  0.00  0.00    -0.257 OA
BRANCH  14  16
HETATM   16  C   UNK N   1      35.402  14.343  12.407  0.00  0.00     0.212 C 
BRANCH  16  17
HETATM   17  C   UNK N   1      35.852  15.375  11.427  0.00  0.00     0.227 C 
HETATM   18  N   UNK N   1      36.942  15.149  10.670  0.00  0.00    -0.369 N 
HETATM   19  H   UNK N   1      37.157  14.237  10.369  0.00  0.00     0.159 HD
HETATM   20  H   UNK N   1      37.526  15.900  10.416  0.00  0.00     0.159 HD
HETATM   21  O   UNK N   1      35.245  16.428  11.323  0.00  0.00    -0.273 OA
ENDBRANCH  16  17
ENDBRANCH  14  16
ENDBRANCH   1  14
TORSDOF 5
ENDMDL
MODEL 4
REMARK VINA RESULT:      -5.6      1.290      4.629
REMARK  5 active torsions:
REMARK  status: ('A' for Active; 'I' for Inactive)
REMARK    1  A    between atoms: C_2  and  C_1 
REMARK    2  A    between atoms: C_3  and  C_1 
REMARK    3  A    between atoms: S_4  and  C_1 
REMARK    4  A    between atoms: S_4  and  C_9 
REMARK    5  A    between atoms: C_15  and  C_9 
REMARK       I    between atoms: N_18  and  C_15 
ROOT
HETATM    1  C   UNK N   1      27.222  24.930  -4.947  0.00  0.00     0.145 C 
ENDROOT
BRANCH   1   2
HETATM    2  C   UNK N   1      28.242  24.338  -3.981  0.00  0.00    -0.038 A 
HETATM    3  C   UNK N   1      27.791  23.659  -2.838  0.00  0.00     0.009 A 
HETATM    4  C   UNK N   1      28.701  23.081  -1.948  0.00  0.00     0.001 A 
HETATM    5  C   UNK N   1      30.072  23.160  -2.202  0.00  0.00     0.000 A 
HETATM    6  C   UNK N   1      30.534  23.824  -3.340  0.00  0.00     0.001 A 
HETATM    7  C   UNK N   1      29.624  24.413  -4.223  0.00  0.00     0.009 A 
ENDBRANCH   1   2
BRANCH   1   8
HETATM    8  C   UNK N   1      26.995  26.425  -4.777  0.00  0.00    -0.038 A 
HETATM    9  C   UNK N   1      27.648  27.321  -5.638  0.00  0.00     0.009 A 
HETATM   10  C   UNK N   1      27.439  28.698  -5.529  0.00  0.00     0.001 A 
HETATM   11  C   UNK N   1      26.567  29.196  -4.559  0.00  0.00     0.000 A 
HETATM   12  C   UNK N   1      25.908  28.317  -3.696  0.00  0.00     0.001 A 
HETATM   13  C   UNK N   1      26.120  26.939  -3.803  0.00  0.00     0.009 A 
ENDBRANCH   1   8
BRANCH   1  14
HETATM   14  S   UNK N   1      27.553  24.526  -6.717  0.00  0.00     0.037 S 
HETATM   15  O   UNK N   1      27.399  23.010  -6.515  0.00  0.00    -0.257 OA
BRANCH  14  16
HETATM   16  C   UNK N   1      25.802  24.635  -7.200  0.00  0.00     0.212 C 
BRANCH  16  17
HETATM   17  C   UNK N   1      25.519  23.715  -8.341  0.00  0.00     0.227 C 
HETATM   18  N   UNK N   1      26.434  23.555  -9.315  0.00  0.00    -0.369 N 
HETATM   19  H   UNK N   1      27.394  23.597  -9.105  0.00  0.00     0.159 HD
HETATM   20  H   UNK N   1      26.140  23.396 -10.242  0.00  0.00     0.159 HD
HETATM   21  O   UNK N   1      24.454  23.122  -8.401  0.00  0.00    -0.273 OA
ENDBRANCH  16  17
ENDBRANCH  14  16
ENDBRANCH   1  14
TORSDOF 5
ENDMDL
MODEL 5
REMARK VINA RESULT:      -5.6      3.153      4.969
REMARK  5 active torsions:
REMARK  status: ('A' for Active; 'I' for Inactive)
REMARK    1  A    between atoms: C_2  and  C_1 
REMARK    2  A    between atoms: C_3  and  C_1 
REMARK    3  A    between atoms: S_4  and  C_1 
REMARK    4  A    between atoms: S_4  and  C_9 
REMARK    5  A    between atoms: C_15  and  C_9 
REMARK       I    between atoms: N_18  and  C_15 
ROOT
HETATM    1  C   UNK N   1      27.510  24.037  -5.012  0.00  0.00     0.145 C 
ENDROOT
BRANCH   1   2
HETATM    2  C   UNK N   1      26.985  25.465  -5.101  0.00  0.00    -0.038 A 
HETATM    3  C   UNK N   1      26.289  26.010  -4.011  0.00  0.00     0.009 A 
HETATM    4  C   UNK N   1      25.821  27.327  -4.052  0.00  0.00     0.001 A 
HETATM    5  C   UNK N   1      26.058  28.118  -5.179  0.00  0.00     0.000 A 
HETATM    6  C   UNK N   1      26.758  27.592  -6.266  0.00  0.00     0.001 A 
HETATM    7  C   UNK N   1      27.216  26.271  -6.230  0.00  0.00     0.009 A 
ENDBRANCH   1   2
BRANCH   1   8
HETATM    8  C   UNK N   1      27.013  23.118  -6.118  0.00  0.00    -0.038 A 
HETATM    9  C   UNK N   1      27.946  22.458  -6.934  0.00  0.00     0.009 A 
HETATM   10  C   UNK N   1      27.524  21.585  -7.939  0.00  0.00     0.001 A 
HETATM   11  C   UNK N   1      26.162  21.355  -8.137  0.00  0.00     0.000 A 
HETATM   12  C   UNK N   1      25.221  22.002  -7.332  0.00  0.00     0.001 A 
HETATM   13  C   UNK N   1      25.643  22.879  -6.328  0.00  0.00     0.009 A 
ENDBRANCH   1   8
BRANCH   1  14
HETATM   14  S   UNK N   1      29.346  23.928  -4.860  0.00  0.00     0.037 S 
HETATM   15  O   UNK N   1      29.454  25.154  -3.939  0.00  0.00    -0.257 OA
BRANCH  14  16
HETATM   16  C   UNK N   1      29.287  22.842  -3.401  0.00  0.00     0.212 C 
BRANCH  16  17
HETATM   17  C   UNK N   1      30.567  22.925  -2.638  0.00  0.00     0.227 C 
HETATM   18  N   UNK N   1      31.741  22.910  -3.297  0.00  0.00    -0.369 N 
HETATM   19  H   UNK N   1      31.815  23.322  -4.187  0.00  0.00     0.159 HD
HETATM   20  H   UNK N   1      32.528  22.485  -2.885  0.00  0.00     0.159 HD
HETATM   21  O   UNK N   1      30.552  22.989  -1.420  0.00  0.00    -0.273 OA
ENDBRANCH  16  17
ENDBRANCH  14  16
ENDBRANCH   1  14
TORSDOF 5
ENDMDL
MODEL 6
REMARK VINA RESULT:      -5.5     11.555     13.863
REMARK  5 active torsions:
REMARK  status: ('A' for Active; 'I' for Inactive)
REMARK    1  A    between atoms: C_2  and  C_1 
REMARK    2  A    between atoms: C_3  and  C_1 
REMARK    3  A    between atoms: S_4  and  C_1 
REMARK    4  A    between atoms: S_4  and  C_9 
REMARK    5  A    between atoms: C_15  and  C_9 
REMARK       I    between atoms: N_18  and  C_15 
ROOT
HETATM    1  C   UNK N   1      28.804  18.133   5.426  0.00  0.00     0.145 C 
ENDROOT
BRANCH   1   2
HETATM    2  C   UNK N   1      29.897  17.511   4.566  0.00  0.00    -0.038 A 
HETATM    3  C   UNK N   1      29.550  16.549   3.606  0.00  0.00     0.009 A 
HETATM    4  C   UNK N   1      30.527  15.980   2.783  0.00  0.00     0.001 A 
HETATM    5  C   UNK N   1      31.860  16.382   2.900  0.00  0.00     0.000 A 
HETATM    6  C   UNK N   1      32.217  17.346   3.845  0.00  0.00     0.001 A 
HETATM    7  C   UNK N   1      31.242  17.905   4.676  0.00  0.00     0.009 A 
ENDBRANCH   1   2
BRANCH   1   8
HETATM    8  C   UNK N   1      27.612  18.660   4.640  0.00  0.00    -0.038 A 
HETATM    9  C   UNK N   1      26.469  17.858   4.507  0.00  0.00     0.009 A 
HETATM   10  C   UNK N   1      25.347  18.323   3.816  0.00  0.00     0.001 A 
HETATM   11  C   UNK N   1      25.353  19.602   3.256  0.00  0.00     0.000 A 
HETATM   12  C   UNK N   1      26.483  20.413   3.381  0.00  0.00     0.001 A 
HETATM   13  C   UNK N   1      27.607  19.946   4.069  0.00  0.00     0.009 A 
ENDBRANCH   1   8
BRANCH   1  14
HETATM   14  S   UNK N   1      28.235  17.046   6.806  0.00  0.00     0.037 S 
HETATM   15  O   UNK N   1      29.658  16.638   7.219  0.00  0.00    -0.257 OA
BRANCH  14  16
HETATM   16  C   UNK N   1      28.265  18.384   8.039  0.00  0.00     0.212 C 
BRANCH  16  17
HETATM   17  C   UNK N   1      28.567  17.835   9.394  0.00  0.00     0.227 C 
HETATM   18  N   UNK N   1      29.686  18.219  10.037  0.00  0.00    -0.369 N 
HETATM   19  H   UNK N   1      30.036  19.131   9.923  0.00  0.00     0.159 HD
HETATM   20  H   UNK N   1      30.155  17.583  10.625  0.00  0.00     0.159 HD
HETATM   21  O   UNK N   1      27.812  17.028   9.912  0.00  0.00    -0.273 OA
ENDBRANCH  16  17
ENDBRANCH  14  16
ENDBRANCH   1  14
TORSDOF 5
ENDMDL
MODEL 7
REMARK VINA RESULT:      -5.5     22.287     25.036
REMARK  5 active torsions:
REMARK  status: ('A' for Active; 'I' for Inactive)
REMARK    1  A    between atoms: C_2  and  C_1 
REMARK    2  A    between atoms: C_3  and  C_1 
REMARK    3  A    between atoms: S_4  and  C_1 
REMARK    4  A    between atoms: S_4  and  C_9 
REMARK    5  A    between atoms: C_15  and  C_9 
REMARK       I    between atoms: N_18  and  C_15 
ROOT
HETATM    1  C   UNK N   1      36.433  12.539  14.510  0.00  0.00     0.145 C 
ENDROOT
BRANCH   1   2
HETATM    2  C   UNK N   1      36.394  13.526  15.670  0.00  0.00    -0.038 A 
HETATM    3  C   UNK N   1      37.210  14.668  15.627  0.00  0.00     0.009 A 
HETATM    4  C   UNK N   1      37.175  15.606  16.663  0.00  0.00     0.001 A 
HETATM    5  C   UNK N   1      36.312  15.420  17.745  0.00  0.00     0.000 A 
HETATM    6  C   UNK N   1      35.488  14.294  17.796  0.00  0.00     0.001 A 
HETATM    7  C   UNK N   1      35.532  13.350  16.766  0.00  0.00     0.009 A 
ENDBRANCH   1   2
BRANCH   1   8
HETATM    8  C   UNK N   1      37.049  11.191  14.855  0.00  0.00    -0.038 A 
HETATM    9  C   UNK N   1      38.346  10.895  14.408  0.00  0.00     0.009 A 
HETATM   10  C   UNK N   1      38.953   9.679  14.732  0.00  0.00     0.001 A 
HETATM   11  C   UNK N   1      38.270   8.745  15.514  0.00  0.00     0.000 A 
HETATM   12  C   UNK N   1      36.979   9.026  15.967  0.00  0.00     0.001 A 
HETATM   13  C   UNK N   1      36.371  10.242  15.640  0.00  0.00     0.009 A 
ENDBRANCH   1   8
BRANCH   1  14
HETATM   14  S   UNK N   1      34.802  12.306  13.676  0.00  0.00     0.037 S 
HETATM   15  O   UNK N   1      34.781  13.722  13.077  0.00  0.00    -0.257 OA
BRANCH  14  16
HETATM   16  C   UNK N   1      35.537  11.671  12.138  0.00  0.00     0.212 C 
BRANCH  16  17
HETATM   17  C   UNK N   1      35.298  12.624  11.015  0.00  0.00     0.227 C 
HETATM   18  N   UNK N   1      34.051  12.794  10.535  0.00  0.00    -0.369 N 
HETATM   19  H   UNK N   1      33.275  12.731  11.136  0.00  0.00     0.159 HD
HETATM   20  H   UNK N   1      33.916  12.982   9.577  0.00  0.00     0.159 HD
HETATM   21  O   UNK N   1      36.230  13.236  10.520  0.00  0.00    -0.273 OA
ENDBRANCH  16  17
ENDBRANCH  14  16
ENDBRANCH   1  14
TORSDOF 5
ENDMDL
MODEL 8
REMARK VINA RESULT:      -5.5     11.437     13.616
REMARK  5 active torsions:
REMARK  status: ('A' for Active; 'I' for Inactive)
REMARK    1  A    between atoms: C_2  and  C_1 
REMARK    2  A    between atoms: C_3  and  C_1 
REMARK    3  A    between atoms: S_4  and  C_1 
REMARK    4  A    between atoms: S_4  and  C_9 
REMARK    5  A    between atoms: C_15  and  C_9 
REMARK       I    between atoms: N_18  and  C_15 
ROOT
HETATM    1  C   UNK N   1      29.129  17.057   5.865  0.00  0.00     0.145 C 
ENDROOT
BRANCH   1   2
HETATM    2  C   UNK N   1      30.643  17.185   5.751  0.00  0.00    -0.038 A 
HETATM    3  C   UNK N   1      31.222  17.376   4.487  0.00  0.00     0.009 A 
HETATM    4  C   UNK N   1      32.606  17.524   4.353  0.00  0.00     0.001 A 
HETATM    5  C   UNK N   1      33.424  17.501   5.485  0.00  0.00     0.000 A 
HETATM    6  C   UNK N   1      32.860  17.322   6.750  0.00  0.00     0.001 A 
HETATM    7  C   UNK N   1      31.477  17.161   6.882  0.00  0.00     0.009 A 
ENDBRANCH   1   2
BRANCH   1   8
HETATM    8  C   UNK N   1      28.376  18.369   5.705  0.00  0.00    -0.038 A 
HETATM    9  C   UNK N   1      28.093  19.142   6.842  0.00  0.00     0.009 A 
HETATM   10  C   UNK N   1      27.429  20.366   6.727  0.00  0.00     0.001 A 
HETATM   11  C   UNK N   1      27.045  20.835   5.470  0.00  0.00     0.000 A 
HETATM   12  C   UNK N   1      27.320  20.079   4.329  0.00  0.00     0.001 A 
HETATM   13  C   UNK N   1      27.982  18.852   4.444  0.00  0.00     0.009 A 
ENDBRANCH   1   8
BRANCH   1  14
HETATM   14  S   UNK N   1      28.407  15.762   4.764  0.00  0.00     0.037 S 
HETATM   15  O   UNK N   1      29.196  14.613   5.413  0.00  0.00    -0.257 OA
BRANCH  14  16
HETATM   16  C   UNK N   1      27.007  15.421   5.874  0.00  0.00     0.212 C 
BRANCH  16  17
HETATM   17  C   UNK N   1      25.724  15.841   5.236  0.00  0.00     0.227 C 
HETATM   18  N   UNK N   1      25.071  16.925   5.695  0.00  0.00    -0.369 N 
HETATM   19  H   UNK N   1      25.573  17.693   6.051  0.00  0.00     0.159 HD
HETATM   20  H   UNK N   1      24.087  16.950   5.673  0.00  0.00     0.159 HD
HETATM   21  O   UNK N   1      25.257  15.194   4.313  0.00  0.00    -0.273 OA
ENDBRANCH  16  17
ENDBRANCH  14  16
ENDBRANCH   1  14
TORSDOF 5
ENDMDL
MODEL 9
REMARK VINA RESULT:      -5.5     13.547     16.019
REMARK  5 active torsions:
REMARK  status: ('A' for Active; 'I' for Inactive)
REMARK    1  A    between atoms: C_2  and  C_1 
REMARK    2  A    between atoms: C_3  and  C_1 
REMARK    3  A    between atoms: S_4  and  C_1 
REMARK    4  A    between atoms: S_4  and  C_9 
REMARK    5  A    between atoms: C_15  and  C_9 
REMARK       I    between atoms: N_18  and  C_15 
ROOT
HETATM    1  C   UNK N   1      31.373  16.314   7.238  0.00  0.00     0.145 C 
ENDROOT
BRANCH   1   2
HETATM    2  C   UNK N   1      31.833  16.192   5.790  0.00  0.00    -0.038 A 
HETATM    3  C   UNK N   1      32.065  17.357   5.044  0.00  0.00     0.009 A 
HETATM    4  C   UNK N   1      32.514  17.278   3.722  0.00  0.00     0.001 A 
HETATM    5  C   UNK N   1      32.752  16.031   3.139  0.00  0.00     0.000 A 
HETATM    6  C   UNK N   1      32.534  14.864   3.873  0.00  0.00     0.001 A 
HETATM    7  C   UNK N   1      32.073  14.943   5.191  0.00  0.00     0.009 A 
ENDBRANCH   1   2
BRANCH   1   8
HETATM    8  C   UNK N   1      32.496  16.227   8.261  0.00  0.00    -0.038 A 
HETATM    9  C   UNK N   1      32.619  15.073   9.050  0.00  0.00     0.009 A 
HETATM   10  C   UNK N   1      33.656  14.949   9.978  0.00  0.00     0.001 A 
HETATM   11  C   UNK N   1      34.588  15.978  10.124  0.00  0.00     0.000 A 
HETATM   12  C   UNK N   1      34.480  17.133   9.345  0.00  0.00     0.001 A 
HETATM   13  C   UNK N   1      33.440  17.258   8.419  0.00  0.00     0.009 A 
ENDBRANCH   1   8
BRANCH   1  14
HETATM   14  S   UNK N   1      30.320  17.795   7.561  0.00  0.00     0.037 S 
HETATM   15  O   UNK N   1      29.079  17.202   6.874  0.00  0.00    -0.257 OA
BRANCH  14  16
HETATM   16  C   UNK N   1      29.722  17.176   9.164  0.00  0.00     0.212 C 
BRANCH  16  17
HETATM   17  C   UNK N   1      28.274  17.495   9.338  0.00  0.00     0.227 C 
HETATM   18  N   UNK N   1      27.804  18.699   8.960  0.00  0.00    -0.369 N 
HETATM   19  H   UNK N   1      28.192  19.162   8.184  0.00  0.00     0.159 HD
HETATM   20  H   UNK N   1      27.067  19.117   9.463  0.00  0.00     0.159 HD
HETATM   21  O   UNK N   1      27.520  16.676   9.837  0.00  0.00    -0.273 OA
ENDBRANCH  16  17
ENDBRANCH  14  16
ENDBRANCH   1  14
TORSDOF 5
ENDMDL
