REMARK  7 active torsions:
REMARK  status: ('A' for Active; 'I' for Inactive)
REMARK    1  A    between atoms: C_4  and  C_19 
REMARK    2  A    between atoms: C_5  and  N_10 
REMARK    3  A    between atoms: N_10  and  C_11 
REMARK       I    between atoms: C_19  and  N_21 
REMARK    4  A    between atoms: N_21  and  O_22 
REMARK    5  A    between atoms: O_22  and  C_23 
REMARK    6  A    between atoms: C_23  and  C_24 
REMARK    7  A    between atoms: C_24  and  O_25 
ROOT
HETATM    1  C   UNK N   1       0.102  -7.293  -0.024  0.00  0.00     0.054 C 
HETATM    2  C   UNK N   1      -0.232  -5.839  -0.015  0.00  0.00     0.007 A 
HETATM    3  C   UNK N   1       0.792  -4.910  -0.001  0.00  0.00     0.033 A 
HETATM    4  C   UNK N   1       0.528  -3.540   0.013  0.00  0.00     0.079 A 
HETATM    5  C   UNK N   1      -0.833  -3.102   0.007  0.00  0.00     0.126 A 
HETATM    6  N   UNK N   1      -1.848  -4.049  -0.009  0.00  0.00    -0.303 N 
HETATM    7  C   UNK N   1      -1.555  -5.401  -0.018  0.00  0.00     0.254 A 
HETATM    8  O   UNK N   1      -2.459  -6.226  -0.030  0.00  0.00    -0.267 OA
HETATM    9  C   UNK N   1      -3.254  -3.694  -0.019  0.00  0.00     0.161 C 
ENDROOT
BRANCH   5  10
HETATM   10  N   UNK N   1      -1.055  -1.677   0.011  0.00  0.00    -0.339 N 
HETATM   11  H   UNK N   1      -0.185  -1.217   0.016  0.00  0.00     0.167 HD
BRANCH  10  12
HETATM   12  C   UNK N   1      -2.098  -0.699   0.008  0.00  0.00     0.072 A 
HETATM   13  C   UNK N   1      -3.460  -1.012   0.017  0.00  0.00     0.034 A 
HETATM   14  C   UNK N   1      -4.431  -0.008   0.015  0.00  0.00     0.020 A 
HETATM   15  C   UNK N   1      -4.046   1.332   0.005  0.00  0.00     0.009 A 
HETATM   16  C   UNK N   1      -2.692   1.665  -0.003  0.00  0.00     0.062 A 
HETATM   17  I   UNK N   1      -5.505   2.846   0.005  0.00  0.00    -0.044 I 
HETATM   18  C   UNK N   1      -1.722   0.658  -0.001  0.00  0.00     0.144 A 
HETATM   19  F   UNK N   1      -0.411   1.002  -0.009  0.00  0.00    -0.204 F 
ENDBRANCH  10  12
ENDBRANCH   5  10
BRANCH   4  20
HETATM   20  C   UNK N   1       1.683  -2.563   0.041  0.00  0.00     0.279 C 
HETATM   21  O   UNK N   1       1.457  -1.368   0.137  0.00  0.00    -0.265 OA
HETATM   22  N   UNK N   1       2.984  -2.945  -0.034  0.00  0.00    -0.231 N 
HETATM   23  H   UNK N   1       3.673  -2.243   0.015  0.00  0.00     0.197 HD
BRANCH  22  24
HETATM   24  O   UNK N   1       3.391  -4.215  -0.172  0.00  0.00    -0.275 OA
BRANCH  24  25
HETATM   25  C   UNK N   1       4.658  -4.242   0.423  0.00  0.00     0.227 C 
BRANCH  25  26
HETATM   26  C   UNK N   1       5.700  -3.634  -0.506  0.00  0.00     0.192 C 
BRANCH  26  27
HETATM   27  O   UNK N   1       6.923  -3.544   0.157  0.00  0.00    -0.399 OA
HETATM   28  H   UNK N   1       7.402  -4.250   0.618  0.00  0.00     0.209 HD
ENDBRANCH  26  27
ENDBRANCH  25  26
ENDBRANCH  24  25
ENDBRANCH  22  24
ENDBRANCH   4  20
TORSDOF 7
