MODEL 1
REMARK VINA RESULT:      -6.8      0.000      0.000
REMARK  5 active torsions:
REMARK  status: ('A' for Active; 'I' for Inactive)
REMARK    1  A    between atoms: C_2  and  C_7 
REMARK    2  A    between atoms: O_9  and  C_2 
REMARK    3  A    between atoms: C_14  and  O_9 
REMARK    4  A    between atoms: N_11  and  C_15 
REMARK    5  A    between atoms: C_15  and  C_14 
ROOT
HETATM    1  C   UNK N   1      36.505  10.936  15.032  0.00  0.00    -0.001 C 
HETATM    2  C   UNK N   1      35.720  12.270  14.752  0.00  0.00     0.096 C 
HETATM    3  C   UNK N   1      35.677   9.866  14.307  0.00  0.00    -0.034 C 
HETATM    4  C   UNK N   1      34.267  11.753  14.875  0.00  0.00     0.049 C 
HETATM    5  C   UNK N   1      34.417  10.234  15.085  0.00  0.00    -0.003 C 
HETATM    6  C   UNK N   1      36.310  10.524  16.506  0.00  0.00     0.014 C 
HETATM    7  C   UNK N   1      34.850  10.070  16.543  0.00  0.00     0.006 C 
HETATM    8  C   UNK N   1      37.982  10.990  14.653  0.00  0.00     0.019 C 
HETATM    9  C   UNK N   1      36.148   8.423  14.547  0.00  0.00     0.016 C 
HETATM   10  C   UNK N   1      35.528  10.029  12.793  0.00  0.00     0.016 C 
ENDROOT
BRANCH   2  11
HETATM   11  C   UNK N   1      36.023  13.406  15.759  0.00  0.00    -0.023 A 
HETATM   12  C   UNK N   1      35.282  13.505  16.951  0.00  0.00     0.010 A 
HETATM   13  C   UNK N   1      35.544  14.520  17.875  0.00  0.00     0.001 A 
HETATM   14  C   UNK N   1      36.553  15.448  17.624  0.00  0.00     0.000 A 
HETATM   15  C   UNK N   1      37.302  15.363  16.449  0.00  0.00     0.001 A 
HETATM   16  C   UNK N   1      37.039  14.348  15.524  0.00  0.00     0.010 A 
ENDBRANCH   2  11
BRANCH   2  17
HETATM   17  O   UNK N   1      35.975  12.635  13.394  0.00  0.00    -0.373 OA
BRANCH  17  18
HETATM   18  C   UNK N   1      35.026  13.515  12.833  0.00  0.00     0.199 C 
BRANCH  18  19
HETATM   19  C   UNK N   1      35.662  14.702  12.106  0.00  0.00     0.297 C 
BRANCH  19  20
HETATM   20  N   UNK N   1      34.707  15.454  11.299  0.00  0.00     0.082 N 
HETATM   21  C   UNK N   1      34.263  14.627  10.188  0.00  0.00     0.309 C 
HETATM   22  C   UNK N   1      35.442  16.565  10.725  0.00  0.00     0.309 C 
ENDBRANCH  19  20
ENDBRANCH  18  19
ENDBRANCH  17  18
ENDBRANCH   2  17
TORSDOF 5
ENDMDL
MODEL 2
REMARK VINA RESULT:      -6.2     21.354     24.908
REMARK  5 active torsions:
REMARK  status: ('A' for Active; 'I' for Inactive)
REMARK    1  A    between atoms: C_2  and  C_7 
REMARK    2  A    between atoms: O_9  and  C_2 
REMARK    3  A    between atoms: C_14  and  O_9 
REMARK    4  A    between atoms: N_11  and  C_15 
REMARK    5  A    between atoms: C_15  and  C_14 
ROOT
HETATM    1  C   UNK N   1      27.495  25.073  -6.299  0.00  0.00    -0.001 C 
HETATM    2  C   UNK N   1      27.378  25.283  -4.744  0.00  0.00     0.096 C 
HETATM    3  C   UNK N   1      26.076  25.355  -6.813  0.00  0.00    -0.034 C 
HETATM    4  C   UNK N   1      25.988  24.652  -4.496  0.00  0.00     0.049 C 
HETATM    5  C   UNK N   1      25.474  24.289  -5.902  0.00  0.00    -0.003 C 
HETATM    6  C   UNK N   1      27.634  23.567  -6.606  0.00  0.00     0.014 C 
HETATM    7  C   UNK N   1      26.239  23.025  -6.297  0.00  0.00     0.006 C 
HETATM    8  C   UNK N   1      28.604  25.888  -6.957  0.00  0.00     0.019 C 
HETATM    9  C   UNK N   1      25.870  25.073  -8.309  0.00  0.00     0.016 C 
HETATM   10  C   UNK N   1      25.525  26.759  -6.555  0.00  0.00     0.016 C 
ENDROOT
BRANCH   2  11
HETATM   11  C   UNK N   1      28.491  24.583  -3.927  0.00  0.00    -0.023 A 
HETATM   12  C   UNK N   1      28.154  23.608  -2.970  0.00  0.00     0.010 A 
HETATM   13  C   UNK N   1      29.145  22.962  -2.226  0.00  0.00     0.001 A 
HETATM   14  C   UNK N   1      30.488  23.278  -2.430  0.00  0.00     0.000 A 
HETATM   15  C   UNK N   1      30.841  24.238  -3.379  0.00  0.00     0.001 A 
HETATM   16  C   UNK N   1      29.850  24.886  -4.123  0.00  0.00     0.010 A 
ENDBRANCH   2  11
BRANCH   2  17
HETATM   17  O   UNK N   1      27.304  26.690  -4.511  0.00  0.00    -0.373 OA
BRANCH  17  18
HETATM   18  C   UNK N   1      26.610  27.057  -3.339  0.00  0.00     0.199 C 
BRANCH  18  19
HETATM   19  C   UNK N   1      26.082  28.494  -3.377  0.00  0.00     0.297 C 
BRANCH  19  20
HETATM   20  N   UNK N   1      27.145  29.489  -3.466  0.00  0.00     0.082 N 
HETATM   21  C   UNK N   1      27.822  29.581  -2.183  0.00  0.00     0.309 C 
HETATM   22  C   UNK N   1      26.491  30.765  -3.686  0.00  0.00     0.309 C 
ENDBRANCH  19  20
ENDBRANCH  18  19
ENDBRANCH  17  18
ENDBRANCH   2  17
TORSDOF 5
ENDMDL
MODEL 3
REMARK VINA RESULT:      -6.1     20.580     25.305
REMARK  5 active torsions:
REMARK  status: ('A' for Active; 'I' for Inactive)
REMARK    1  A    between atoms: C_2  and  C_7 
REMARK    2  A    between atoms: O_9  and  C_2 
REMARK    3  A    between atoms: C_14  and  O_9 
REMARK    4  A    between atoms: N_11  and  C_15 
REMARK    5  A    between atoms: C_15  and  C_14 
ROOT
HETATM    1  C   UNK N   1      27.415  26.802  -5.845  0.00  0.00    -0.001 C 
HETATM    2  C   UNK N   1      27.424  25.420  -5.092  0.00  0.00     0.096 C 
HETATM    3  C   UNK N   1      27.244  27.830  -4.718  0.00  0.00    -0.034 C 
HETATM    4  C   UNK N   1      26.336  25.692  -4.027  0.00  0.00     0.049 C 
HETATM    5  C   UNK N   1      25.955  27.170  -4.236  0.00  0.00    -0.003 C 
HETATM    6  C   UNK N   1      26.083  26.963  -6.607  0.00  0.00     0.014 C 
HETATM    7  C   UNK N   1      25.071  27.185  -5.484  0.00  0.00     0.006 C 
HETATM    8  C   UNK N   1      28.618  27.023  -6.757  0.00  0.00     0.019 C 
HETATM    9  C   UNK N   1      27.051  29.277  -5.197  0.00  0.00     0.016 C 
HETATM   10  C   UNK N   1      28.345  27.867  -3.656  0.00  0.00     0.016 C 
ENDROOT
BRANCH   2  11
HETATM   11  C   UNK N   1      27.072  24.209  -5.990  0.00  0.00    -0.023 A 
HETATM   12  C   UNK N   1      25.835  23.555  -5.836  0.00  0.00     0.010 A 
HETATM   13  C   UNK N   1      25.497  22.464  -6.640  0.00  0.00     0.001 A 
HETATM   14  C   UNK N   1      26.388  22.012  -7.613  0.00  0.00     0.000 A 
HETATM   15  C   UNK N   1      27.617  22.651  -7.784  0.00  0.00     0.001 A 
HETATM   16  C   UNK N   1      27.956  23.743  -6.978  0.00  0.00     0.010 A 
ENDBRANCH   2  11
BRANCH   2  17
HETATM   17  O   UNK N   1      28.693  25.297  -4.448  0.00  0.00    -0.373 OA
BRANCH  17  18
HETATM   18  C   UNK N   1      28.799  24.207  -3.560  0.00  0.00     0.199 C 
BRANCH  18  19
HETATM   19  C   UNK N   1      30.233  23.692  -3.405  0.00  0.00     0.297 C 
BRANCH  19  20
HETATM   20  N   UNK N   1      30.312  22.238  -3.335  0.00  0.00     0.082 N 
HETATM   21  C   UNK N   1      31.641  21.851  -2.891  0.00  0.00     0.309 C 
HETATM   22  C   UNK N   1      30.169  21.755  -4.695  0.00  0.00     0.309 C 
ENDBRANCH  19  20
ENDBRANCH  18  19
ENDBRANCH  17  18
ENDBRANCH   2  17
TORSDOF 5
ENDMDL
MODEL 4
REMARK VINA RESULT:      -5.9      1.607      4.396
REMARK  5 active torsions:
REMARK  status: ('A' for Active; 'I' for Inactive)
REMARK    1  A    between atoms: C_2  and  C_7 
REMARK    2  A    between atoms: O_9  and  C_2 
REMARK    3  A    between atoms: C_14  and  O_9 
REMARK    4  A    between atoms: N_11  and  C_15 
REMARK    5  A    between atoms: C_15  and  C_14 
ROOT
HETATM    1  C   UNK N   1      34.966  10.840  14.787  0.00  0.00    -0.001 C 
HETATM    2  C   UNK N   1      35.686  11.798  13.767  0.00  0.00     0.096 C 
HETATM    3  C   UNK N   1      35.422  11.359  16.159  0.00  0.00    -0.034 C 
HETATM    4  C   UNK N   1      37.055  11.952  14.470  0.00  0.00     0.049 C 
HETATM    5  C   UNK N   1      36.894  11.186  15.797  0.00  0.00    -0.003 C 
HETATM    6  C   UNK N   1      35.638   9.452  14.750  0.00  0.00     0.014 C 
HETATM    7  C   UNK N   1      36.987   9.707  15.422  0.00  0.00     0.006 C 
HETATM    8  C   UNK N   1      33.456  10.742  14.592  0.00  0.00     0.019 C 
HETATM    9  C   UNK N   1      34.976  10.495  17.349  0.00  0.00     0.016 C 
HETATM   10  C   UNK N   1      35.043  12.801  16.502  0.00  0.00     0.016 C 
ENDROOT
BRANCH   2  11
HETATM   11  C   UNK N   1      35.824  11.213  12.341  0.00  0.00    -0.023 A 
HETATM   12  C   UNK N   1      37.096  10.889  11.833  0.00  0.00     0.010 A 
HETATM   13  C   UNK N   1      37.241  10.356  10.550  0.00  0.00     0.001 A 
HETATM   14  C   UNK N   1      36.116  10.135   9.756  0.00  0.00     0.000 A 
HETATM   15  C   UNK N   1      34.847  10.445  10.244  0.00  0.00     0.001 A 
HETATM   16  C   UNK N   1      34.701  10.980  11.528  0.00  0.00     0.010 A 
ENDBRANCH   2  11
BRANCH   2  17
HETATM   17  O   UNK N   1      34.996  13.049  13.802  0.00  0.00    -0.373 OA
BRANCH  17  18
HETATM   18  C   UNK N   1      35.728  14.139  13.287  0.00  0.00     0.199 C 
BRANCH  18  19
HETATM   19  C   UNK N   1      35.169  14.669  11.965  0.00  0.00     0.297 C 
BRANCH  19  20
HETATM   20  N   UNK N   1      36.116  15.511  11.242  0.00  0.00     0.082 N 
HETATM   21  C   UNK N   1      35.402  16.620  10.631  0.00  0.00     0.309 C 
HETATM   22  C   UNK N   1      36.636  14.700  10.157  0.00  0.00     0.309 C 
ENDBRANCH  19  20
ENDBRANCH  18  19
ENDBRANCH  17  18
ENDBRANCH   2  17
TORSDOF 5
ENDMDL
MODEL 5
REMARK VINA RESULT:      -5.8      6.310     10.298
REMARK  5 active torsions:
REMARK  status: ('A' for Active; 'I' for Inactive)
REMARK    1  A    between atoms: C_2  and  C_7 
REMARK    2  A    between atoms: O_9  and  C_2 
REMARK    3  A    between atoms: C_14  and  O_9 
REMARK    4  A    between atoms: N_11  and  C_15 
REMARK    5  A    between atoms: C_15  and  C_14 
ROOT
HETATM    1  C   UNK N   1      31.739  15.984   5.189  0.00  0.00    -0.001 C 
HETATM    2  C   UNK N   1      31.949  16.058   6.746  0.00  0.00     0.096 C 
HETATM    3  C   UNK N   1      33.111  15.547   4.655  0.00  0.00    -0.034 C 
HETATM    4  C   UNK N   1      33.374  16.659   6.792  0.00  0.00     0.049 C 
HETATM    5  C   UNK N   1      33.807  16.733   5.316  0.00  0.00    -0.003 C 
HETATM    6  C   UNK N   1      31.632  17.412   4.616  0.00  0.00     0.014 C 
HETATM    7  C   UNK N   1      33.063  17.937   4.737  0.00  0.00     0.006 C 
HETATM    8  C   UNK N   1      30.562  15.114   4.759  0.00  0.00     0.019 C 
HETATM    9  C   UNK N   1      33.228  15.540   3.124  0.00  0.00     0.016 C 
HETATM   10  C   UNK N   1      33.629  14.190   5.138  0.00  0.00     0.016 C 
ENDROOT
BRANCH   2  11
HETATM   11  C   UNK N   1      30.917  16.947   7.482  0.00  0.00    -0.023 A 
HETATM   12  C   UNK N   1      31.353  17.927   8.392  0.00  0.00     0.010 A 
HETATM   13  C   UNK N   1      30.437  18.741   9.062  0.00  0.00     0.001 A 
HETATM   14  C   UNK N   1      29.071  18.592   8.829  0.00  0.00     0.000 A 
HETATM   15  C   UNK N   1      28.619  17.629   7.925  0.00  0.00     0.001 A 
HETATM   16  C   UNK N   1      29.536  16.813   7.256  0.00  0.00     0.010 A 
ENDBRANCH   2  11
BRANCH   2  17
HETATM   17  O   UNK N   1      31.989  14.716   7.233  0.00  0.00    -0.373 OA
BRANCH  17  18
HETATM   18  C   UNK N   1      32.327  14.594   8.597  0.00  0.00     0.199 C 
BRANCH  18  19
HETATM   19  C   UNK N   1      33.384  13.518   8.862  0.00  0.00     0.297 C 
BRANCH  19  20
HETATM   20  N   UNK N   1      34.550  14.029   9.574  0.00  0.00     0.082 N 
HETATM   21  C   UNK N   1      34.209  15.293  10.206  0.00  0.00     0.309 C 
HETATM   22  C   UNK N   1      35.548  14.322   8.564  0.00  0.00     0.309 C 
ENDBRANCH  19  20
ENDBRANCH  18  19
ENDBRANCH  17  18
ENDBRANCH   2  17
TORSDOF 5
ENDMDL
MODEL 6
REMARK VINA RESULT:      -5.7     21.154     24.939
REMARK  5 active torsions:
REMARK  status: ('A' for Active; 'I' for Inactive)
REMARK    1  A    between atoms: C_2  and  C_7 
REMARK    2  A    between atoms: O_9  and  C_2 
REMARK    3  A    between atoms: C_14  and  O_9 
REMARK    4  A    between atoms: N_11  and  C_15 
REMARK    5  A    between atoms: C_15  and  C_14 
ROOT
HETATM    1  C   UNK N   1      27.350  26.850  -4.169  0.00  0.00    -0.001 C 
HETATM    2  C   UNK N   1      27.647  25.433  -4.785  0.00  0.00     0.096 C 
HETATM    3  C   UNK N   1      26.967  27.705  -5.386  0.00  0.00    -0.034 C 
HETATM    4  C   UNK N   1      28.370  25.857  -6.085  0.00  0.00     0.049 C 
HETATM    5  C   UNK N   1      28.286  27.395  -6.088  0.00  0.00    -0.003 C 
HETATM    6  C   UNK N   1      28.675  27.512  -3.739  0.00  0.00     0.014 C 
HETATM    7  C   UNK N   1      29.334  27.858  -5.074  0.00  0.00     0.006 C 
HETATM    8  C   UNK N   1      26.331  26.835  -3.032  0.00  0.00     0.019 C 
HETATM    9  C   UNK N   1      26.768  29.197  -5.081  0.00  0.00     0.016 C 
HETATM   10  C   UNK N   1      25.736  27.254  -6.175  0.00  0.00     0.016 C 
ENDROOT
BRANCH   2  11
HETATM   11  C   UNK N   1      28.532  24.529  -3.893  0.00  0.00    -0.023 A 
HETATM   12  C   UNK N   1      27.969  23.863  -2.789  0.00  0.00     0.010 A 
HETATM   13  C   UNK N   1      28.750  23.038  -1.975  0.00  0.00     0.001 A 
HETATM   14  C   UNK N   1      30.105  22.864  -2.255  0.00  0.00     0.000 A 
HETATM   15  C   UNK N   1      30.679  23.513  -3.349  0.00  0.00     0.001 A 
HETATM   16  C   UNK N   1      29.898  24.339  -4.163  0.00  0.00     0.010 A 
ENDBRANCH   2  11
BRANCH   2  17
HETATM   17  O   UNK N   1      26.389  24.844  -5.118  0.00  0.00    -0.373 OA
BRANCH  17  18
HETATM   18  C   UNK N   1      26.478  23.623  -5.819  0.00  0.00     0.199 C 
BRANCH  18  19
HETATM   19  C   UNK N   1      25.862  23.686  -7.219  0.00  0.00     0.297 C 
BRANCH  19  20
HETATM   20  N   UNK N   1      26.208  22.536  -8.046  0.00  0.00     0.082 N 
HETATM   21  C   UNK N   1      25.277  21.453  -7.773  0.00  0.00     0.309 C 
HETATM   22  C   UNK N   1      27.513  22.089  -7.598  0.00  0.00     0.309 C 
ENDBRANCH  19  20
ENDBRANCH  18  19
ENDBRANCH  17  18
ENDBRANCH   2  17
TORSDOF 5
ENDMDL
MODEL 7
REMARK VINA RESULT:      -5.6      8.968     13.273
REMARK  5 active torsions:
REMARK  status: ('A' for Active; 'I' for Inactive)
REMARK    1  A    between atoms: C_2  and  C_7 
REMARK    2  A    between atoms: O_9  and  C_2 
REMARK    3  A    between atoms: C_14  and  O_9 
REMARK    4  A    between atoms: N_11  and  C_15 
REMARK    5  A    between atoms: C_15  and  C_14 
ROOT
HETATM    1  C   UNK N   1      27.114  16.009   5.133  0.00  0.00    -0.001 C 
HETATM    2  C   UNK N   1      28.256  17.074   4.943  0.00  0.00     0.096 C 
HETATM    3  C   UNK N   1      27.605  14.798   4.326  0.00  0.00    -0.034 C 
HETATM    4  C   UNK N   1      28.602  16.828   3.456  0.00  0.00     0.049 C 
HETATM    5  C   UNK N   1      27.726  15.627   3.051  0.00  0.00    -0.003 C 
HETATM    6  C   UNK N   1      25.874  16.433   4.318  0.00  0.00     0.014 C 
HETATM    7  C   UNK N   1      26.318  16.197   2.874  0.00  0.00     0.006 C 
HETATM    8  C   UNK N   1      26.761  15.725   6.590  0.00  0.00     0.019 C 
HETATM    9  C   UNK N   1      26.592  13.648   4.218  0.00  0.00     0.016 C 
HETATM   10  C   UNK N   1      28.928  14.172   4.774  0.00  0.00     0.016 C 
ENDROOT
BRANCH   2  11
HETATM   11  C   UNK N   1      27.810  18.532   5.205  0.00  0.00    -0.023 A 
HETATM   12  C   UNK N   1      27.744  19.022   6.523  0.00  0.00     0.010 A 
HETATM   13  C   UNK N   1      27.349  20.337   6.780  0.00  0.00     0.001 A 
HETATM   14  C   UNK N   1      27.017  21.185   5.723  0.00  0.00     0.000 A 
HETATM   15  C   UNK N   1      27.081  20.718   4.409  0.00  0.00     0.001 A 
HETATM   16  C   UNK N   1      27.476  19.402   4.152  0.00  0.00     0.010 A 
ENDBRANCH   2  11
BRANCH   2  17
HETATM   17  O   UNK N   1      29.357  16.663   5.755  0.00  0.00    -0.373 OA
BRANCH  17  18
HETATM   18  C   UNK N   1      30.588  17.270   5.428  0.00  0.00     0.199 C 
BRANCH  18  19
HETATM   19  C   UNK N   1      31.741  16.815   6.327  0.00  0.00     0.297 C 
BRANCH  19  20
HETATM   20  N   UNK N   1      31.733  17.461   7.635  0.00  0.00     0.082 N 
HETATM   21  C   UNK N   1      33.058  17.990   7.916  0.00  0.00     0.309 C 
HETATM   22  C   UNK N   1      31.488  16.412   8.606  0.00  0.00     0.309 C 
ENDBRANCH  19  20
ENDBRANCH  18  19
ENDBRANCH  17  18
ENDBRANCH   2  17
TORSDOF 5
ENDMDL
MODEL 8
REMARK VINA RESULT:      -5.6      9.535     12.276
REMARK  5 active torsions:
REMARK  status: ('A' for Active; 'I' for Inactive)
REMARK    1  A    between atoms: C_2  and  C_7 
REMARK    2  A    between atoms: O_9  and  C_2 
REMARK    3  A    between atoms: C_14  and  O_9 
REMARK    4  A    between atoms: N_11  and  C_15 
REMARK    5  A    between atoms: C_15  and  C_14 
ROOT
HETATM    1  C   UNK N   1      32.040  15.523   5.362  0.00  0.00    -0.001 C 
HETATM    2  C   UNK N   1      30.632  16.183   5.122  0.00  0.00     0.096 C 
HETATM    3  C   UNK N   1      32.929  16.703   5.780  0.00  0.00    -0.034 C 
HETATM    4  C   UNK N   1      31.070  17.504   4.448  0.00  0.00     0.049 C 
HETATM    5  C   UNK N   1      32.609  17.470   4.500  0.00  0.00    -0.003 C 
HETATM    6  C   UNK N   1      32.665  15.139   4.005  0.00  0.00     0.014 C 
HETATM    7  C   UNK N   1      33.027  16.495   3.399  0.00  0.00     0.006 C 
HETATM    8  C   UNK N   1      32.020  14.343   6.329  0.00  0.00     0.019 C 
HETATM    9  C   UNK N   1      34.418  16.358   5.934  0.00  0.00     0.016 C 
HETATM   10  C   UNK N   1      32.520  17.446   7.054  0.00  0.00     0.016 C 
ENDROOT
BRANCH   2  11
HETATM   11  C   UNK N   1      29.690  15.351   4.218  0.00  0.00    -0.023 A 
HETATM   12  C   UNK N   1      29.356  15.816   2.933  0.00  0.00     0.010 A 
HETATM   13  C   UNK N   1      28.511  15.077   2.100  0.00  0.00     0.001 A 
HETATM   14  C   UNK N   1      27.992  13.859   2.538  0.00  0.00     0.000 A 
HETATM   15  C   UNK N   1      28.316  13.379   3.808  0.00  0.00     0.001 A 
HETATM   16  C   UNK N   1      29.160  14.119   4.641  0.00  0.00     0.010 A 
ENDBRANCH   2  11
BRANCH   2  17
HETATM   17  O   UNK N   1      30.075  16.471   6.406  0.00  0.00    -0.373 OA
BRANCH  17  18
HETATM   18  C   UNK N   1      28.958  17.332   6.382  0.00  0.00     0.199 C 
BRANCH  18  19
HETATM   19  C   UNK N   1      28.934  18.319   7.553  0.00  0.00     0.297 C 
BRANCH  19  20
HETATM   20  N   UNK N   1      29.197  17.684   8.839  0.00  0.00     0.082 N 
HETATM   21  C   UNK N   1      27.941  17.230   9.415  0.00  0.00     0.309 C 
HETATM   22  C   UNK N   1      29.704  18.726   9.712  0.00  0.00     0.309 C 
ENDBRANCH  19  20
ENDBRANCH  18  19
ENDBRANCH  17  18
ENDBRANCH   2  17
TORSDOF 5
ENDMDL
MODEL 9
REMARK VINA RESULT:      -5.4      2.195      4.140
REMARK  5 active torsions:
REMARK  status: ('A' for Active; 'I' for Inactive)
REMARK    1  A    between atoms: C_2  and  C_7 
REMARK    2  A    between atoms: O_9  and  C_2 
REMARK    3  A    between atoms: C_14  and  O_9 
REMARK    4  A    between atoms: N_11  and  C_15 
REMARK    5  A    between atoms: C_15  and  C_14 
ROOT
HETATM    1  C   UNK N   1      36.505  11.242  14.809  0.00  0.00    -0.001 C 
HETATM    2  C   UNK N   1      35.678  11.142  13.474  0.00  0.00     0.096 C 
HETATM    3  C   UNK N   1      35.686  10.413  15.809  0.00  0.00    -0.034 C 
HETATM    4  C   UNK N   1      34.243  11.235  14.044  0.00  0.00     0.049 C 
HETATM    5  C   UNK N   1      34.437  11.258  15.572  0.00  0.00    -0.003 C 
HETATM    6  C   UNK N   1      36.357  12.660  15.399  0.00  0.00     0.014 C 
HETATM    7  C   UNK N   1      34.912  12.675  15.896  0.00  0.00     0.006 C 
HETATM    8  C   UNK N   1      37.969  10.839  14.668  0.00  0.00     0.019 C 
HETATM    9  C   UNK N   1      36.199  10.467  17.256  0.00  0.00     0.016 C 
HETATM   10  C   UNK N   1      35.494   8.933  15.471  0.00  0.00     0.016 C 
ENDROOT
BRANCH   2  11
HETATM   11  C   UNK N   1      35.977  12.271  12.459  0.00  0.00    -0.023 A 
HETATM   12  C   UNK N   1      35.008  13.256  12.196  0.00  0.00     0.010 A 
HETATM   13  C   UNK N   1      35.261  14.286  11.286  0.00  0.00     0.001 A 
HETATM   14  C   UNK N   1      36.490  14.349  10.629  0.00  0.00     0.000 A 
HETATM   15  C   UNK N   1      37.465  13.383  10.880  0.00  0.00     0.001 A 
HETATM   16  C   UNK N   1      37.211  12.352  11.790  0.00  0.00     0.010 A 
ENDBRANCH   2  11
BRANCH   2  17
HETATM   17  O   UNK N   1      35.888   9.832  12.943  0.00  0.00    -0.373 OA
BRANCH  17  18
HETATM   18  C   UNK N   1      34.877   9.382  12.068  0.00  0.00     0.199 C 
BRANCH  18  19
HETATM   19  C   UNK N   1      35.372   9.170  10.635  0.00  0.00     0.297 C 
BRANCH  19  20
HETATM   20  N   UNK N   1      34.484   9.752   9.634  0.00  0.00     0.082 N 
HETATM   21  C   UNK N   1      35.111  10.934   9.067  0.00  0.00     0.309 C 
HETATM   22  C   UNK N   1      33.306  10.206  10.349  0.00  0.00     0.309 C 
ENDBRANCH  19  20
ENDBRANCH  18  19
ENDBRANCH  17  18
ENDBRANCH   2  17
TORSDOF 5
ENDMDL
