REMARK  6 active torsions:
REMARK  status: ('A' for Active; 'I' for Inactive)
REMARK    1  A    between atoms: C_4  and  C_2 
REMARK    2  A    between atoms: N_6  and  C_2 
REMARK    3  A    between atoms: C_5  and  C_3 
REMARK    4  A    between atoms: S_11  and  C_3 
REMARK    5  A    between atoms: O_9  and  C_4 
REMARK    6  A    between atoms: O_10  and  C_5 
ROOT
HETATM    1  C   UNK N   1       1.398  -0.091  -0.000  0.00  0.00     0.125 C 
HETATM    2  N   UNK N   1       0.117  -0.171  -0.000  0.00  0.00    -0.364 N 
ATOM      3  HN  UNK N   1      -0.422   0.695  -0.000  1.00  0.00     0.161 HD
ENDROOT
BRANCH   1   4
HETATM    4  C   UNK N   1       2.043   1.261  -0.000  0.00  0.00     0.114 C 
HETATM    5  C   UNK N   1       3.550   1.414   0.000  0.00  0.00     0.030 C 
BRANCH   4   6
HETATM    6  S   UNK N   1       1.007   2.758   0.000  0.00  0.00    -0.170 SA
HETATM    7  H   UNK N   1       1.588   3.988   0.000  0.00  0.00     0.102 HD
ENDBRANCH   4   6
ENDBRANCH   1   4
BRANCH   1   8
HETATM    8  O   UNK N   1       2.163  -1.207   0.000  0.00  0.00    -0.349 OA
HETATM    9  H   UNK N   1       1.758  -2.052   0.000  0.00  0.00     0.219 HD
ENDBRANCH   1   8
BRANCH   2  10
HETATM   10  C   UNK N   1      -0.599  -1.421   0.000  0.00  0.00     0.231 C 
BRANCH  10  11
HETATM   11  C   UNK N   1      -2.073  -1.153   0.000  0.00  0.00     0.158 C 
HETATM   12  O   UNK N   1      -2.858  -2.085   0.000  0.00  0.00    -0.649 OA
BRANCH  11  13
HETATM   13  O   UNK N   1      -2.541   0.113  -0.000  0.00  0.00    -0.775 OA
HETATM   14  H   UNK N   1      -1.942   0.833  -0.000  0.00  0.00     0.167 HD
ENDBRANCH  11  13
ENDBRANCH  10  11
ENDBRANCH   2  10
TORSDOF 6
