REMARK  7 active torsions:
REMARK  status: ('A' for Active; 'I' for Inactive)
REMARK    1  A    between atoms: C_2  and  C_3 
REMARK    2  A    between atoms: C_2  and  C_17 
REMARK    3  A    between atoms: C_6  and  C_9 
REMARK    4  A    between atoms: C_17  and  C_18 
REMARK    5  A    between atoms: C_17  and  C_26 
REMARK    6  A    between atoms: C_17  and  O_34 
REMARK    7  A    between atoms: C_18  and  N_19 
ROOT
HETATM    1  C   UNK N   1      -0.684  -5.260  -0.306  0.00  0.00    -0.009 A 
HETATM    2  C   UNK N   1       0.404  -4.708  -1.011  0.00  0.00     0.015 A 
HETATM    3  C   UNK N   1       1.625  -5.352  -1.029  0.00  0.00     0.023 A 
HETATM    4  C   UNK N   1       1.765  -6.553  -0.343  0.00  0.00     0.044 A 
HETATM    5  C   UNK N   1       0.663  -7.168   0.259  0.00  0.00     0.023 A 
HETATM    6  C   UNK N   1      -0.570  -6.513   0.287  0.00  0.00     0.015 A 
HETATM    7  C   UNK N   1       3.074  -7.073  -0.152  0.00  0.00     0.099 C 
HETATM    8  N   UNK N   1       4.164  -7.436  -0.038  0.00  0.00    -0.191 NA
ENDROOT
BRANCH   1   9
HETATM    9  C   UNK N   1      -1.702  -4.323   0.133  0.00  0.00     0.049 A 
HETATM   10  N   UNK N   1      -1.353  -3.014   0.035  0.00  0.00    -0.352 N 
HETATM   11  C   UNK N   1      -2.151  -2.186   0.686  0.00  0.00     0.058 A 
ATOM     12  HN  UNK N   1      -0.542  -2.697  -0.496  1.00  0.00     0.166 HD
HETATM   13  S   UNK N   1      -3.404  -3.056   1.334  0.00  0.00    -0.086 SA
HETATM   14  C   UNK N   1      -2.877  -4.581   0.883  0.00  0.00     0.081 A 
BRANCH  11  15
HETATM   15  C   UNK N   1      -1.983  -0.729   0.551  0.00  0.00     0.080 C 
HETATM   16  C   UNK N   1      -3.103  -0.407  -0.429  0.00  0.00     0.020 C 
BRANCH  15  17
HETATM   17  C   UNK N   1      -0.476  -0.220   0.247  0.00  0.00     0.115 C 
BRANCH  17  18
HETATM   18  C   UNK N   1       0.360  -1.056  -0.772  0.00  0.00     0.193 C 
BRANCH  18  19
HETATM   19  N   UNK N   1       1.772  -1.216  -0.358  0.00  0.00    -0.284 N 
HETATM   20  C   UNK N   1       2.767  -0.324  -0.500  0.00  0.00     0.201 A 
HETATM   21  N   UNK N   1       3.909  -0.820   0.025  0.00  0.00    -0.346 N 
HETATM   22  C   UNK N   1       3.564  -2.041   0.492  0.00  0.00     0.198 A 
ATOM     23  HN  UNK N   1       4.826  -0.374   0.061  1.00  0.00     0.167 HD
HETATM   24  N   UNK N   1       2.258  -2.282   0.258  0.00  0.00    -0.293 N 
ATOM     25  HN  UNK N   1       1.742  -3.126   0.507  1.00  0.00     0.188 HD
ENDBRANCH  18  19
ENDBRANCH  17  18
BRANCH  17  26
HETATM   26  C   UNK N   1      -0.553   1.247  -0.195  0.00  0.00     0.017 C 
HETATM   27  C   UNK N   1      -1.532   1.605  -1.135  0.00  0.00     0.016 C 
HETATM   28  C   UNK N   1      -1.923   2.917  -1.323  0.00  0.00     0.043 C 
HETATM   29  C   UNK N   1      -1.294   3.922  -0.609  0.00  0.00     0.119 C 
HETATM   30  C   UNK N   1      -0.192   3.618   0.205  0.00  0.00     0.085 C 
HETATM   31  F   UNK N   1      -1.793   5.180  -0.668  0.00  0.00    -0.206 F 
HETATM   32  C   UNK N   1       0.193   2.282   0.408  0.00  0.00     0.128 C 
HETATM   33  F   UNK N   1       1.238   2.008   1.230  0.00  0.00    -0.205 F 
ENDBRANCH  17  26
BRANCH  17  34
HETATM   34  O   UNK N   1       0.189  -0.308   1.478  0.00  0.00    -0.382 OA
HETATM   35  H   UNK N   1       0.366  -0.736   2.330  0.00  0.00     0.211 HD
ENDBRANCH  17  34
ENDBRANCH  15  17
ENDBRANCH  11  15
ENDBRANCH   1   9
TORSDOF 7
