MODEL 1
REMARK VINA RESULT:      -7.5      0.000      0.000
REMARK  9 active torsions:
REMARK  status: ('A' for Active; 'I' for Inactive)
REMARK    1  A    between atoms: C_6  and  N_1 
REMARK    2  A    between atoms: C_7  and  C_2 
REMARK    3  A    between atoms: C_13  and  C_6 
REMARK    4  A    between atoms: N_10  and  C_26 
REMARK    5  A    between atoms: O_27  and  C_14 
REMARK    6  A    between atoms: O_28  and  C_17 
REMARK    7  A    between atoms: O_25  and  C_18 
REMARK    8  A    between atoms: C_29  and  O_25 
REMARK    9  A    between atoms: C_26  and  C_29 
ROOT
HETATM    1  N   UNK N   1      27.495  23.864  -4.820  0.00  0.00    -0.341 N 
HETATM    2  C   UNK N   1      27.873  23.643  -6.108  0.00  0.00     0.052 A 
HETATM    3  C   UNK N   1      29.157  23.074  -6.109  0.00  0.00    -0.022 A 
HETATM    4  C   UNK N   1      29.546  22.978  -4.785  0.00  0.00     0.002 A 
HETATM    5  C   UNK N   1      28.503  23.450  -4.025  0.00  0.00     0.046 A 
HETATM    6  C   UNK N   1      28.569  23.436  -2.629  0.00  0.00     0.033 A 
HETATM    7  C   UNK N   1      30.720  22.496  -4.205  0.00  0.00     0.051 A 
HETATM    8  C   UNK N   1      30.819  22.510  -2.798  0.00  0.00     0.066 A 
HETATM    9  C   UNK N   1      29.959  22.638  -7.288  0.00  0.00     0.051 C 
HETATM   10  C   UNK N   1      29.743  22.974  -2.015  0.00  0.00     0.039 A 
ENDROOT
BRANCH   1  11
HETATM   11  C   UNK N   1      26.147  24.323  -4.458  0.00  0.00     0.168 C 
BRANCH  11  12
HETATM   12  C   UNK N   1      25.882  25.772  -4.315  0.00  0.00    -0.040 C 
HETATM   13  C   UNK N   1      25.413  26.538  -5.376  0.00  0.00     0.011 C 
HETATM   14  C   UNK N   1      25.617  27.906  -5.376  0.00  0.00     0.037 C 
HETATM   15  C   UNK N   1      26.278  28.523  -4.301  0.00  0.00     0.068 C 
HETATM   16  C   UNK N   1      26.609  27.774  -3.173  0.00  0.00     0.037 C 
HETATM   17  C   UNK N   1      26.430  26.393  -3.192  0.00  0.00     0.011 C 
BRANCH  15  18
HETATM   18  O   UNK N   1      26.692  29.806  -4.381  0.00  0.00    -0.349 OA
BRANCH  18  19
HETATM   19  C   UNK N   1      27.794  30.262  -3.684  0.00  0.00     0.206 C 
BRANCH  19  20
HETATM   20  C   UNK N   1      28.991  30.422  -4.617  0.00  0.00     0.299 C 
BRANCH  20  21
HETATM   21  N   UNK N   1      29.911  29.284  -4.569  0.00  0.00     0.090 N 
HETATM   22  C   UNK N   1      29.886  28.662  -3.244  0.00  0.00     0.272 C 
HETATM   23  C   UNK N   1      31.157  27.860  -3.019  0.00  0.00     0.030 C 
HETATM   24  C   UNK N   1      30.953  26.413  -3.442  0.00  0.00     0.002 C 
HETATM   25  C   UNK N   1      30.783  26.277  -4.949  0.00  0.00     0.002 C 
HETATM   26  C   UNK N   1      29.478  26.909  -5.405  0.00  0.00     0.030 C 
HETATM   27  C   UNK N   1      29.672  28.395  -5.724  0.00  0.00     0.272 C 
ENDBRANCH  20  21
ENDBRANCH  19  20
ENDBRANCH  18  19
ENDBRANCH  15  18
ENDBRANCH  11  12
ENDBRANCH   1  11
BRANCH   2  28
HETATM   28  C   UNK N   1      26.997  23.933  -7.287  0.00  0.00    -0.009 A 
HETATM   29  C   UNK N   1      27.165  25.132  -8.002  0.00  0.00     0.016 A 
HETATM   30  C   UNK N   1      26.348  25.465  -9.075  0.00  0.00     0.037 A 
HETATM   31  C   UNK N   1      25.331  24.599  -9.455  0.00  0.00     0.065 A 
HETATM   32  C   UNK N   1      25.146  23.392  -8.768  0.00  0.00     0.037 A 
HETATM   33  C   UNK N   1      25.982  23.055  -7.691  0.00  0.00     0.016 A 
BRANCH  31  34
HETATM   34  O   UNK N   1      24.528  24.928 -10.479  0.00  0.00    -0.361 OA
HETATM   35  H   UNK N   1      23.843  24.347 -10.742  0.00  0.00     0.217 HD
ENDBRANCH  31  34
ENDBRANCH   2  28
BRANCH   8  36
HETATM   36  O   UNK N   1      31.939  22.075  -2.198  0.00  0.00    -0.361 OA
HETATM   37  H   UNK N   1      32.686  22.636  -2.134  0.00  0.00     0.217 HD
ENDBRANCH   8  36
TORSDOF 9
ENDMDL
MODEL 2
REMARK VINA RESULT:      -7.2     14.804     19.173
REMARK  9 active torsions:
REMARK  status: ('A' for Active; 'I' for Inactive)
REMARK    1  A    between atoms: C_6  and  N_1 
REMARK    2  A    between atoms: C_7  and  C_2 
REMARK    3  A    between atoms: C_13  and  C_6 
REMARK    4  A    between atoms: N_10  and  C_26 
REMARK    5  A    between atoms: O_27  and  C_14 
REMARK    6  A    between atoms: O_28  and  C_17 
REMARK    7  A    between atoms: O_25  and  C_18 
REMARK    8  A    between atoms: C_29  and  O_25 
REMARK    9  A    between atoms: C_26  and  C_29 
ROOT
HETATM    1  N   UNK N   1      32.025  17.128   6.858  0.00  0.00    -0.341 N 
HETATM    2  C   UNK N   1      31.535  16.363   5.846  0.00  0.00     0.052 A 
HETATM    3  C   UNK N   1      30.144  16.259   5.994  0.00  0.00    -0.022 A 
HETATM    4  C   UNK N   1      29.814  16.967   7.135  0.00  0.00     0.002 A 
HETATM    5  C   UNK N   1      30.982  17.499   7.628  0.00  0.00     0.046 A 
HETATM    6  C   UNK N   1      30.975  18.320   8.760  0.00  0.00     0.033 A 
HETATM    7  C   UNK N   1      28.584  17.192   7.755  0.00  0.00     0.051 A 
HETATM    8  C   UNK N   1      28.563  17.987   8.920  0.00  0.00     0.066 A 
HETATM    9  C   UNK N   1      29.184  15.544   5.104  0.00  0.00     0.051 C 
HETATM   10  C   UNK N   1      29.756  18.552   9.415  0.00  0.00     0.039 A 
ENDROOT
BRANCH   1  11
HETATM   11  C   UNK N   1      33.431  17.550   6.923  0.00  0.00     0.168 C 
BRANCH  11  12
HETATM   12  C   UNK N   1      34.375  16.817   7.797  0.00  0.00    -0.040 C 
HETATM   13  C   UNK N   1      34.890  15.577   7.438  0.00  0.00     0.011 C 
HETATM   14  C   UNK N   1      35.363  14.723   8.419  0.00  0.00     0.037 C 
HETATM   15  C   UNK N   1      35.344  15.114   9.768  0.00  0.00     0.068 C 
HETATM   16  C   UNK N   1      34.971  16.415  10.103  0.00  0.00     0.037 C 
HETATM   17  C   UNK N   1      34.465  17.258   9.118  0.00  0.00     0.011 C 
BRANCH  15  18
HETATM   18  O   UNK N   1      35.581  14.224  10.756  0.00  0.00    -0.349 OA
BRANCH  18  19
HETATM   19  C   UNK N   1      34.953  14.312  11.982  0.00  0.00     0.206 C 
BRANCH  19  20
HETATM   20  C   UNK N   1      35.910  13.916  13.104  0.00  0.00     0.299 C 
BRANCH  20  21
HETATM   21  N   UNK N   1      35.274  13.089  14.133  0.00  0.00     0.090 N 
HETATM   22  C   UNK N   1      34.876  11.795  13.574  0.00  0.00     0.272 C 
HETATM   23  C   UNK N   1      33.793  11.166  14.435  0.00  0.00     0.030 C 
HETATM   24  C   UNK N   1      34.411  10.256  15.486  0.00  0.00     0.002 C 
HETATM   25  C   UNK N   1      35.196  11.039  16.529  0.00  0.00     0.002 C 
HETATM   26  C   UNK N   1      36.434  11.670  15.912  0.00  0.00     0.030 C 
HETATM   27  C   UNK N   1      36.117  13.057  15.345  0.00  0.00     0.272 C 
ENDBRANCH  20  21
ENDBRANCH  19  20
ENDBRANCH  18  19
ENDBRANCH  15  18
ENDBRANCH  11  12
ENDBRANCH   1  11
BRANCH   2  28
HETATM   28  C   UNK N   1      32.387  15.797   4.753  0.00  0.00    -0.009 A 
HETATM   29  C   UNK N   1      32.695  16.586   3.629  0.00  0.00     0.016 A 
HETATM   30  C   UNK N   1      33.444  16.091   2.570  0.00  0.00     0.037 A 
HETATM   31  C   UNK N   1      33.901  14.780   2.609  0.00  0.00     0.065 A 
HETATM   32  C   UNK N   1      33.620  13.973   3.720  0.00  0.00     0.037 A 
HETATM   33  C   UNK N   1      32.871  14.482   4.793  0.00  0.00     0.016 A 
BRANCH  31  34
HETATM   34  O   UNK N   1      34.609  14.294   1.578  0.00  0.00    -0.361 OA
HETATM   35  H   UNK N   1      34.230  14.262   0.722  0.00  0.00     0.217 HD
ENDBRANCH  31  34
ENDBRANCH   2  28
BRANCH   8  36
HETATM   36  O   UNK N   1      27.404  18.212   9.560  0.00  0.00    -0.361 OA
HETATM   37  H   UNK N   1      27.355  18.117  10.490  0.00  0.00     0.217 HD
ENDBRANCH   8  36
TORSDOF 9
ENDMDL
MODEL 3
REMARK VINA RESULT:      -7.0      1.977      6.206
REMARK  9 active torsions:
REMARK  status: ('A' for Active; 'I' for Inactive)
REMARK    1  A    between atoms: C_6  and  N_1 
REMARK    2  A    between atoms: C_7  and  C_2 
REMARK    3  A    between atoms: C_13  and  C_6 
REMARK    4  A    between atoms: N_10  and  C_26 
REMARK    5  A    between atoms: O_27  and  C_14 
REMARK    6  A    between atoms: O_28  and  C_17 
REMARK    7  A    between atoms: O_25  and  C_18 
REMARK    8  A    between atoms: C_29  and  O_25 
REMARK    9  A    between atoms: C_26  and  C_29 
ROOT
HETATM    1  N   UNK N   1      26.173  24.813  -5.816  0.00  0.00    -0.341 N 
HETATM    2  C   UNK N   1      26.300  25.932  -6.579  0.00  0.00     0.052 A 
HETATM    3  C   UNK N   1      26.100  25.586  -7.924  0.00  0.00    -0.022 A 
HETATM    4  C   UNK N   1      25.868  24.223  -7.950  0.00  0.00     0.002 A 
HETATM    5  C   UNK N   1      25.901  23.785  -6.647  0.00  0.00     0.046 A 
HETATM    6  C   UNK N   1      25.648  22.447  -6.332  0.00  0.00     0.033 A 
HETATM    7  C   UNK N   1      25.614  23.352  -9.011  0.00  0.00     0.051 A 
HETATM    8  C   UNK N   1      25.394  21.991  -8.715  0.00  0.00     0.066 A 
HETATM    9  C   UNK N   1      26.115  26.490  -9.110  0.00  0.00     0.051 C 
HETATM   10  C   UNK N   1      25.407  21.544  -7.378  0.00  0.00     0.039 A 
ENDROOT
BRANCH   1  11
HETATM   11  C   UNK N   1      26.187  24.849  -4.347  0.00  0.00     0.168 C 
BRANCH  11  12
HETATM   12  C   UNK N   1      27.471  24.708  -3.625  0.00  0.00    -0.040 C 
HETATM   13  C   UNK N   1      28.609  25.404  -4.014  0.00  0.00     0.011 C 
HETATM   14  C   UNK N   1      29.858  24.927  -3.656  0.00  0.00     0.037 C 
HETATM   15  C   UNK N   1      29.977  23.757  -2.888  0.00  0.00     0.068 C 
HETATM   16  C   UNK N   1      28.831  23.152  -2.373  0.00  0.00     0.037 C 
HETATM   17  C   UNK N   1      27.578  23.616  -2.762  0.00  0.00     0.011 C 
BRANCH  15  18
HETATM   18  O   UNK N   1      31.171  23.149  -2.724  0.00  0.00    -0.349 OA
BRANCH  18  19
HETATM   19  C   UNK N   1      31.470  21.951  -3.341  0.00  0.00     0.206 C 
BRANCH  19  20
HETATM   20  C   UNK N   1      32.264  22.190  -4.623  0.00  0.00     0.299 C 
BRANCH  20  21
HETATM   21  N   UNK N   1      31.517  21.837  -5.833  0.00  0.00     0.090 N 
HETATM   22  C   UNK N   1      30.628  20.703  -5.572  0.00  0.00     0.272 C 
HETATM   23  C   UNK N   1      30.264  20.014  -6.876  0.00  0.00     0.030 C 
HETATM   24  C   UNK N   1      28.974  20.591  -7.440  0.00  0.00     0.002 C 
HETATM   25  C   UNK N   1      29.149  22.030  -7.906  0.00  0.00     0.002 C 
HETATM   26  C   UNK N   1      29.402  22.954  -6.726  0.00  0.00     0.030 C 
HETATM   27  C   UNK N   1      30.898  23.046  -6.413  0.00  0.00     0.272 C 
ENDBRANCH  20  21
ENDBRANCH  19  20
ENDBRANCH  18  19
ENDBRANCH  15  18
ENDBRANCH  11  12
ENDBRANCH   1  11
BRANCH   2  28
HETATM   28  C   UNK N   1      26.561  27.293  -6.011  0.00  0.00    -0.009 A 
HETATM   29  C   UNK N   1      27.645  28.052  -6.487  0.00  0.00     0.016 A 
HETATM   30  C   UNK N   1      27.953  29.300  -5.961  0.00  0.00     0.037 A 
HETATM   31  C   UNK N   1      27.178  29.818  -4.931  0.00  0.00     0.065 A 
HETATM   32  C   UNK N   1      26.085  29.090  -4.443  0.00  0.00     0.037 A 
HETATM   33  C   UNK N   1      25.772  27.833  -4.986  0.00  0.00     0.016 A 
BRANCH  31  34
HETATM   34  O   UNK N   1      27.485  31.015  -4.409  0.00  0.00    -0.361 OA
HETATM   35  H   UNK N   1      27.397  31.161  -3.488  0.00  0.00     0.217 HD
ENDBRANCH  31  34
ENDBRANCH   2  28
BRANCH   8  36
HETATM   36  O   UNK N   1      25.167  21.115  -9.708  0.00  0.00    -0.361 OA
HETATM   37  H   UNK N   1      24.331  21.090 -10.130  0.00  0.00     0.217 HD
ENDBRANCH   8  36
TORSDOF 9
ENDMDL
MODEL 4
REMARK VINA RESULT:      -6.7     11.859     15.584
REMARK  9 active torsions:
REMARK  status: ('A' for Active; 'I' for Inactive)
REMARK    1  A    between atoms: C_6  and  N_1 
REMARK    2  A    between atoms: C_7  and  C_2 
REMARK    3  A    between atoms: C_13  and  C_6 
REMARK    4  A    between atoms: N_10  and  C_26 
REMARK    5  A    between atoms: O_27  and  C_14 
REMARK    6  A    between atoms: O_28  and  C_17 
REMARK    7  A    between atoms: O_25  and  C_18 
REMARK    8  A    between atoms: C_29  and  O_25 
REMARK    9  A    between atoms: C_26  and  C_29 
ROOT
HETATM    1  N   UNK N   1      28.460  17.156   4.954  0.00  0.00    -0.341 N 
HETATM    2  C   UNK N   1      27.758  18.238   5.386  0.00  0.00     0.052 A 
HETATM    3  C   UNK N   1      28.274  18.644   6.627  0.00  0.00    -0.022 A 
HETATM    4  C   UNK N   1      29.293  17.762   6.937  0.00  0.00     0.002 A 
HETATM    5  C   UNK N   1      29.393  16.879   5.888  0.00  0.00     0.046 A 
HETATM    6  C   UNK N   1      30.377  15.886   5.878  0.00  0.00     0.033 A 
HETATM    7  C   UNK N   1      30.141  17.689   8.044  0.00  0.00     0.051 A 
HETATM    8  C   UNK N   1      31.115  16.669   8.067  0.00  0.00     0.066 A 
HETATM    9  C   UNK N   1      27.838  19.800   7.461  0.00  0.00     0.051 C 
HETATM   10  C   UNK N   1      31.233  15.775   6.983  0.00  0.00     0.039 A 
ENDROOT
BRANCH   1  11
HETATM   11  C   UNK N   1      28.267  16.566   3.622  0.00  0.00     0.168 C 
BRANCH  11  12
HETATM   12  C   UNK N   1      27.148  15.625   3.395  0.00  0.00    -0.040 C 
HETATM   13  C   UNK N   1      26.212  15.831   2.388  0.00  0.00     0.011 C 
HETATM   14  C   UNK N   1      24.963  15.244   2.484  0.00  0.00     0.037 C 
HETATM   15  C   UNK N   1      24.646  14.429   3.582  0.00  0.00     0.068 C 
HETATM   16  C   UNK N   1      25.637  14.103   4.507  0.00  0.00     0.037 C 
HETATM   17  C   UNK N   1      26.881  14.721   4.424  0.00  0.00     0.011 C 
BRANCH  15  18
HETATM   18  O   UNK N   1      23.375  14.036   3.816  0.00  0.00    -0.349 OA
BRANCH  18  19
HETATM   19  C   UNK N   1      22.929  13.731   5.086  0.00  0.00     0.206 C 
BRANCH  19  20
HETATM   20  C   UNK N   1      22.248  14.941   5.722  0.00  0.00     0.299 C 
BRANCH  20  21
HETATM   21  N   UNK N   1      22.122  14.828   7.177  0.00  0.00     0.090 N 
HETATM   22  C   UNK N   1      20.727  14.591   7.552  0.00  0.00     0.272 C 
HETATM   23  C   UNK N   1      20.501  14.986   9.002  0.00  0.00     0.030 C 
HETATM   24  C   UNK N   1      20.704  13.787   9.917  0.00  0.00     0.002 C 
HETATM   25  C   UNK N   1      22.158  13.339   9.957  0.00  0.00     0.002 C 
HETATM   26  C   UNK N   1      22.585  12.768   8.614  0.00  0.00     0.030 C 
HETATM   27  C   UNK N   1      23.120  13.871   7.696  0.00  0.00     0.272 C 
ENDBRANCH  20  21
ENDBRANCH  19  20
ENDBRANCH  18  19
ENDBRANCH  15  18
ENDBRANCH  11  12
ENDBRANCH   1  11
BRANCH   2  28
HETATM   28  C   UNK N   1      26.659  18.877   4.596  0.00  0.00    -0.009 A 
HETATM   29  C   UNK N   1      26.961  19.907   3.687  0.00  0.00     0.016 A 
HETATM   30  C   UNK N   1      25.972  20.561   2.964  0.00  0.00     0.037 A 
HETATM   31  C   UNK N   1      24.643  20.199   3.142  0.00  0.00     0.065 A 
HETATM   32  C   UNK N   1      24.311  19.168   4.033  0.00  0.00     0.037 A 
HETATM   33  C   UNK N   1      25.317  18.504   4.753  0.00  0.00     0.016 A 
BRANCH  31  34
HETATM   34  O   UNK N   1      23.684  20.841   2.458  0.00  0.00    -0.361 OA
HETATM   35  H   UNK N   1      23.916  21.481   1.815  0.00  0.00     0.217 HD
ENDBRANCH  31  34
ENDBRANCH   2  28
BRANCH   8  36
HETATM   36  O   UNK N   1      31.938  16.549   9.122  0.00  0.00    -0.361 OA
HETATM   37  H   UNK N   1      32.144  17.298   9.645  0.00  0.00     0.217 HD
ENDBRANCH   8  36
TORSDOF 9
ENDMDL
MODEL 5
REMARK VINA RESULT:      -6.7     10.621     14.423
REMARK  9 active torsions:
REMARK  status: ('A' for Active; 'I' for Inactive)
REMARK    1  A    between atoms: C_6  and  N_1 
REMARK    2  A    between atoms: C_7  and  C_2 
REMARK    3  A    between atoms: C_13  and  C_6 
REMARK    4  A    between atoms: N_10  and  C_26 
REMARK    5  A    between atoms: O_27  and  C_14 
REMARK    6  A    between atoms: O_28  and  C_17 
REMARK    7  A    between atoms: O_25  and  C_18 
REMARK    8  A    between atoms: C_29  and  O_25 
REMARK    9  A    between atoms: C_26  and  C_29 
ROOT
HETATM    1  N   UNK N   1      28.646  17.172   4.905  0.00  0.00    -0.341 N 
HETATM    2  C   UNK N   1      27.906  18.227   5.337  0.00  0.00     0.052 A 
HETATM    3  C   UNK N   1      28.333  18.581   6.626  0.00  0.00    -0.022 A 
HETATM    4  C   UNK N   1      29.339  17.693   6.964  0.00  0.00     0.002 A 
HETATM    5  C   UNK N   1      29.518  16.859   5.886  0.00  0.00     0.046 A 
HETATM    6  C   UNK N   1      30.510  15.875   5.897  0.00  0.00     0.033 A 
HETATM    7  C   UNK N   1      30.112  17.576   8.120  0.00  0.00     0.051 A 
HETATM    8  C   UNK N   1      31.093  16.563   8.163  0.00  0.00     0.066 A 
HETATM    9  C   UNK N   1      27.831  19.695   7.481  0.00  0.00     0.051 C 
HETATM   10  C   UNK N   1      31.292  15.720   7.051  0.00  0.00     0.039 A 
ENDROOT
BRANCH   1  11
HETATM   11  C   UNK N   1      28.548  16.641   3.538  0.00  0.00     0.168 C 
BRANCH  11  12
HETATM   12  C   UNK N   1      27.527  15.617   3.223  0.00  0.00    -0.040 C 
HETATM   13  C   UNK N   1      26.611  15.792   2.193  0.00  0.00     0.011 C 
HETATM   14  C   UNK N   1      25.417  15.092   2.212  0.00  0.00     0.037 C 
HETATM   15  C   UNK N   1      25.139  14.195   3.256  0.00  0.00     0.068 C 
HETATM   16  C   UNK N   1      26.125  13.910   4.201  0.00  0.00     0.037 C 
HETATM   17  C   UNK N   1      27.310  14.640   4.195  0.00  0.00     0.011 C 
BRANCH  15  18
HETATM   18  O   UNK N   1      23.902  13.679   3.423  0.00  0.00    -0.349 OA
BRANCH  18  19
HETATM   19  C   UNK N   1      23.000  14.223   4.315  0.00  0.00     0.206 C 
BRANCH  19  20
HETATM   20  C   UNK N   1      21.666  14.502   3.626  0.00  0.00     0.299 C 
BRANCH  20  21
HETATM   21  N   UNK N   1      21.500  15.907   3.247  0.00  0.00     0.090 N 
HETATM   22  C   UNK N   1      20.134  16.152   2.781  0.00  0.00     0.272 C 
HETATM   23  C   UNK N   1      20.093  17.406   1.923  0.00  0.00     0.030 C 
HETATM   24  C   UNK N   1      19.769  18.623   2.776  0.00  0.00     0.002 C 
HETATM   25  C   UNK N   1      20.899  18.964   3.737  0.00  0.00     0.002 C 
HETATM   26  C   UNK N   1      21.050  17.885   4.798  0.00  0.00     0.030 C 
HETATM   27  C   UNK N   1      22.001  16.781   4.326  0.00  0.00     0.272 C 
ENDBRANCH  20  21
ENDBRANCH  19  20
ENDBRANCH  18  19
ENDBRANCH  15  18
ENDBRANCH  11  12
ENDBRANCH   1  11
BRANCH   2  28
HETATM   28  C   UNK N   1      26.855  18.894   4.504  0.00  0.00    -0.009 A 
HETATM   29  C   UNK N   1      27.193  20.009   3.716  0.00  0.00     0.016 A 
HETATM   30  C   UNK N   1      26.245  20.687   2.961  0.00  0.00     0.037 A 
HETATM   31  C   UNK N   1      24.922  20.265   2.986  0.00  0.00     0.065 A 
HETATM   32  C   UNK N   1      24.556  19.151   3.753  0.00  0.00     0.037 A 
HETATM   33  C   UNK N   1      25.521  18.462   4.505  0.00  0.00     0.016 A 
BRANCH  31  34
HETATM   34  O   UNK N   1      24.000  20.930   2.272  0.00  0.00    -0.361 OA
HETATM   35  H   UNK N   1      23.685  21.760   2.571  0.00  0.00     0.217 HD
ENDBRANCH  31  34
ENDBRANCH   2  28
BRANCH   8  36
HETATM   36  O   UNK N   1      31.845  16.401   9.264  0.00  0.00    -0.361 OA
HETATM   37  H   UNK N   1      32.069  15.541   9.558  0.00  0.00     0.217 HD
ENDBRANCH   8  36
TORSDOF 9
ENDMDL
MODEL 6
REMARK VINA RESULT:      -6.5     12.177     15.961
REMARK  9 active torsions:
REMARK  status: ('A' for Active; 'I' for Inactive)
REMARK    1  A    between atoms: C_6  and  N_1 
REMARK    2  A    between atoms: C_7  and  C_2 
REMARK    3  A    between atoms: C_13  and  C_6 
REMARK    4  A    between atoms: N_10  and  C_26 
REMARK    5  A    between atoms: O_27  and  C_14 
REMARK    6  A    between atoms: O_28  and  C_17 
REMARK    7  A    between atoms: O_25  and  C_18 
REMARK    8  A    between atoms: C_29  and  O_25 
REMARK    9  A    between atoms: C_26  and  C_29 
ROOT
HETATM    1  N   UNK N   1      28.082  17.504   4.909  0.00  0.00    -0.341 N 
HETATM    2  C   UNK N   1      27.398  18.609   5.309  0.00  0.00     0.052 A 
HETATM    3  C   UNK N   1      27.907  19.030   6.548  0.00  0.00    -0.022 A 
HETATM    4  C   UNK N   1      28.903  18.133   6.890  0.00  0.00     0.002 A 
HETATM    5  C   UNK N   1      28.997  17.226   5.861  0.00  0.00     0.046 A 
HETATM    6  C   UNK N   1      29.958  16.212   5.884  0.00  0.00     0.033 A 
HETATM    7  C   UNK N   1      29.735  18.065   8.009  0.00  0.00     0.051 A 
HETATM    8  C   UNK N   1      30.685  17.024   8.067  0.00  0.00     0.066 A 
HETATM    9  C   UNK N   1      27.486  20.213   7.352  0.00  0.00     0.051 C 
HETATM   10  C   UNK N   1      30.798  16.106   7.003  0.00  0.00     0.039 A 
ENDROOT
BRANCH   1  11
HETATM   11  C   UNK N   1      27.893  16.890   3.587  0.00  0.00     0.168 C 
BRANCH  11  12
HETATM   12  C   UNK N   1      26.945  15.765   3.433  0.00  0.00    -0.040 C 
HETATM   13  C   UNK N   1      25.628  15.968   3.038  0.00  0.00     0.011 C 
HETATM   14  C   UNK N   1      24.667  15.021   3.346  0.00  0.00     0.037 C 
HETATM   15  C   UNK N   1      25.021  13.852   4.038  0.00  0.00     0.068 C 
HETATM   16  C   UNK N   1      26.365  13.583   4.294  0.00  0.00     0.037 C 
HETATM   17  C   UNK N   1      27.323  14.552   4.011  0.00  0.00     0.011 C 
BRANCH  15  18
HETATM   18  O   UNK N   1      24.079  13.031   4.550  0.00  0.00    -0.349 OA
BRANCH  18  19
HETATM   19  C   UNK N   1      23.196  13.452   5.524  0.00  0.00     0.206 C 
BRANCH  19  20
HETATM   20  C   UNK N   1      23.856  13.412   6.900  0.00  0.00     0.299 C 
BRANCH  20  21
HETATM   21  N   UNK N   1      22.986  12.853   7.936  0.00  0.00     0.090 N 
HETATM   22  C   UNK N   1      23.752  12.572   9.152  0.00  0.00     0.272 C 
HETATM   23  C   UNK N   1      23.022  11.550  10.006  0.00  0.00     0.030 C 
HETATM   24  C   UNK N   1      22.123  12.246  11.017  0.00  0.00     0.002 C 
HETATM   25  C   UNK N   1      20.955  12.958  10.348  0.00  0.00     0.002 C 
HETATM   26  C   UNK N   1      21.443  14.134   9.518  0.00  0.00     0.030 C 
HETATM   27  C   UNK N   1      21.782  13.694   8.090  0.00  0.00     0.272 C 
ENDBRANCH  20  21
ENDBRANCH  19  20
ENDBRANCH  18  19
ENDBRANCH  15  18
ENDBRANCH  11  12
ENDBRANCH   1  11
BRANCH   2  28
HETATM   28  C   UNK N   1      26.324  19.256   4.491  0.00  0.00    -0.009 A 
HETATM   29  C   UNK N   1      24.976  18.934   4.732  0.00  0.00     0.016 A 
HETATM   30  C   UNK N   1      23.946  19.474   3.972  0.00  0.00     0.037 A 
HETATM   31  C   UNK N   1      24.248  20.351   2.937  0.00  0.00     0.065 A 
HETATM   32  C   UNK N   1      25.581  20.699   2.681  0.00  0.00     0.037 A 
HETATM   33  C   UNK N   1      26.617  20.158   3.460  0.00  0.00     0.016 A 
BRANCH  31  34
HETATM   34  O   UNK N   1      23.257  20.859   2.189  0.00  0.00    -0.361 OA
HETATM   35  H   UNK N   1      22.460  21.138   2.595  0.00  0.00     0.217 HD
ENDBRANCH  31  34
ENDBRANCH   2  28
BRANCH   8  36
HETATM   36  O   UNK N   1      31.492  16.909   9.134  0.00  0.00    -0.361 OA
HETATM   37  H   UNK N   1      31.254  16.345   9.844  0.00  0.00     0.217 HD
ENDBRANCH   8  36
TORSDOF 9
ENDMDL
MODEL 7
REMARK VINA RESULT:      -6.5      2.043      6.580
REMARK  9 active torsions:
REMARK  status: ('A' for Active; 'I' for Inactive)
REMARK    1  A    between atoms: C_6  and  N_1 
REMARK    2  A    between atoms: C_7  and  C_2 
REMARK    3  A    between atoms: C_13  and  C_6 
REMARK    4  A    between atoms: N_10  and  C_26 
REMARK    5  A    between atoms: O_27  and  C_14 
REMARK    6  A    between atoms: O_28  and  C_17 
REMARK    7  A    between atoms: O_25  and  C_18 
REMARK    8  A    between atoms: C_29  and  O_25 
REMARK    9  A    between atoms: C_26  and  C_29 
ROOT
HETATM    1  N   UNK N   1      27.853  26.303  -5.526  0.00  0.00    -0.341 N 
HETATM    2  C   UNK N   1      26.555  26.091  -5.873  0.00  0.00     0.052 A 
HETATM    3  C   UNK N   1      25.769  27.119  -5.328  0.00  0.00    -0.022 A 
HETATM    4  C   UNK N   1      26.630  27.943  -4.627  0.00  0.00     0.002 A 
HETATM    5  C   UNK N   1      27.895  27.428  -4.783  0.00  0.00     0.046 A 
HETATM    6  C   UNK N   1      29.005  28.072  -4.230  0.00  0.00     0.033 A 
HETATM    7  C   UNK N   1      26.395  29.105  -3.889  0.00  0.00     0.051 A 
HETATM    8  C   UNK N   1      27.500  29.747  -3.292  0.00  0.00     0.066 A 
HETATM    9  C   UNK N   1      24.298  27.315  -5.471  0.00  0.00     0.051 C 
HETATM   10  C   UNK N   1      28.800  29.232  -3.468  0.00  0.00     0.039 A 
ENDROOT
BRANCH   1  11
HETATM   11  C   UNK N   1      28.956  25.487  -6.050  0.00  0.00     0.168 C 
BRANCH  11  12
HETATM   12  C   UNK N   1      29.738  24.635  -5.126  0.00  0.00    -0.040 C 
HETATM   13  C   UNK N   1      31.122  24.731  -5.038  0.00  0.00     0.011 C 
HETATM   14  C   UNK N   1      31.853  23.659  -4.556  0.00  0.00     0.037 C 
HETATM   15  C   UNK N   1      31.201  22.487  -4.140  0.00  0.00     0.068 C 
HETATM   16  C   UNK N   1      29.808  22.455  -4.086  0.00  0.00     0.037 C 
HETATM   17  C   UNK N   1      29.079  23.523  -4.601  0.00  0.00     0.011 C 
BRANCH  15  18
HETATM   18  O   UNK N   1      31.894  21.356  -3.887  0.00  0.00    -0.349 OA
BRANCH  18  19
HETATM   19  C   UNK N   1      31.800  20.246  -4.703  0.00  0.00     0.206 C 
BRANCH  19  20
HETATM   20  C   UNK N   1      32.337  20.557  -6.097  0.00  0.00     0.299 C 
BRANCH  20  21
HETATM   21  N   UNK N   1      31.312  20.464  -7.140  0.00  0.00     0.090 N 
HETATM   22  C   UNK N   1      30.100  19.835  -6.610  0.00  0.00     0.272 C 
HETATM   23  C   UNK N   1      29.265  19.270  -7.747  0.00  0.00     0.030 C 
HETATM   24  C   UNK N   1      28.244  20.295  -8.217  0.00  0.00     0.002 C 
HETATM   25  C   UNK N   1      28.903  21.485  -8.900  0.00  0.00     0.002 C 
HETATM   26  C   UNK N   1      29.711  22.301  -7.904  0.00  0.00     0.030 C 
HETATM   27  C   UNK N   1      31.145  21.773  -7.801  0.00  0.00     0.272 C 
ENDBRANCH  20  21
ENDBRANCH  19  20
ENDBRANCH  18  19
ENDBRANCH  15  18
ENDBRANCH  11  12
ENDBRANCH   1  11
BRANCH   2  28
HETATM   28  C   UNK N   1      26.107  24.957  -6.742  0.00  0.00    -0.009 A 
HETATM   29  C   UNK N   1      25.917  23.681  -6.180  0.00  0.00     0.016 A 
HETATM   30  C   UNK N   1      25.545  22.589  -6.952  0.00  0.00     0.037 A 
HETATM   31  C   UNK N   1      25.361  22.749  -8.320  0.00  0.00     0.065 A 
HETATM   32  C   UNK N   1      25.533  24.010  -8.906  0.00  0.00     0.037 A 
HETATM   33  C   UNK N   1      25.898  25.113  -8.119  0.00  0.00     0.016 A 
BRANCH  31  34
HETATM   34  O   UNK N   1      25.020  21.690  -9.071  0.00  0.00    -0.361 OA
HETATM   35  H   UNK N   1      25.684  21.180  -9.490  0.00  0.00     0.217 HD
ENDBRANCH  31  34
ENDBRANCH   2  28
BRANCH   8  36
HETATM   36  O   UNK N   1      27.316  30.856  -2.557  0.00  0.00    -0.361 OA
HETATM   37  H   UNK N   1      26.999  31.640  -2.959  0.00  0.00     0.217 HD
ENDBRANCH   8  36
TORSDOF 9
ENDMDL
MODEL 8
REMARK VINA RESULT:      -6.3      1.574      5.873
REMARK  9 active torsions:
REMARK  status: ('A' for Active; 'I' for Inactive)
REMARK    1  A    between atoms: C_6  and  N_1 
REMARK    2  A    between atoms: C_7  and  C_2 
REMARK    3  A    between atoms: C_13  and  C_6 
REMARK    4  A    between atoms: N_10  and  C_26 
REMARK    5  A    between atoms: O_27  and  C_14 
REMARK    6  A    between atoms: O_28  and  C_17 
REMARK    7  A    between atoms: O_25  and  C_18 
REMARK    8  A    between atoms: C_29  and  O_25 
REMARK    9  A    between atoms: C_26  and  C_29 
ROOT
HETATM    1  N   UNK N   1      29.861  25.277  -6.760  0.00  0.00    -0.341 N 
HETATM    2  C   UNK N   1      29.539  24.053  -6.262  0.00  0.00     0.052 A 
HETATM    3  C   UNK N   1      28.479  23.525  -7.015  0.00  0.00    -0.022 A 
HETATM    4  C   UNK N   1      28.161  24.475  -7.968  0.00  0.00     0.002 A 
HETATM    5  C   UNK N   1      29.034  25.523  -7.797  0.00  0.00     0.046 A 
HETATM    6  C   UNK N   1      29.002  26.630  -8.650  0.00  0.00     0.033 A 
HETATM    7  C   UNK N   1      27.191  24.483  -8.972  0.00  0.00     0.051 A 
HETATM    8  C   UNK N   1      27.119  25.609  -9.818  0.00  0.00     0.066 A 
HETATM    9  C   UNK N   1      27.817  22.199  -6.852  0.00  0.00     0.051 C 
HETATM   10  C   UNK N   1      28.027  26.676  -9.658  0.00  0.00     0.039 A 
ENDROOT
BRANCH   1  11
HETATM   11  C   UNK N   1      31.022  26.044  -6.288  0.00  0.00     0.168 C 
BRANCH  11  12
HETATM   12  C   UNK N   1      30.823  27.156  -5.331  0.00  0.00    -0.040 C 
HETATM   13  C   UNK N   1      30.824  26.947  -3.957  0.00  0.00     0.011 C 
HETATM   14  C   UNK N   1      30.190  27.854  -3.126  0.00  0.00     0.037 C 
HETATM   15  C   UNK N   1      29.565  28.991  -3.664  0.00  0.00     0.068 C 
HETATM   16  C   UNK N   1      29.701  29.273  -5.023  0.00  0.00     0.037 C 
HETATM   17  C   UNK N   1      30.311  28.342  -5.858  0.00  0.00     0.011 C 
BRANCH  15  18
HETATM   18  O   UNK N   1      28.751  29.761  -2.912  0.00  0.00    -0.349 OA
BRANCH  18  19
HETATM   19  C   UNK N   1      27.574  29.274  -2.378  0.00  0.00     0.206 C 
BRANCH  19  20
HETATM   20  C   UNK N   1      26.426  29.439  -3.370  0.00  0.00     0.299 C 
BRANCH  20  21
HETATM   21  N   UNK N   1      25.865  28.160  -3.814  0.00  0.00     0.090 N 
HETATM   22  C   UNK N   1      25.888  28.071  -5.275  0.00  0.00     0.272 C 
HETATM   23  C   UNK N   1      24.875  27.043  -5.751  0.00  0.00     0.030 C 
HETATM   24  C   UNK N   1      25.531  25.678  -5.894  0.00  0.00     0.002 C 
HETATM   25  C   UNK N   1      25.931  25.093  -4.546  0.00  0.00     0.002 C 
HETATM   26  C   UNK N   1      27.054  25.902  -3.918  0.00  0.00     0.030 C 
HETATM   27  C   UNK N   1      26.495  27.050  -3.071  0.00  0.00     0.272 C 
ENDBRANCH  20  21
ENDBRANCH  19  20
ENDBRANCH  18  19
ENDBRANCH  15  18
ENDBRANCH  11  12
ENDBRANCH   1  11
BRANCH   2  28
HETATM   28  C   UNK N   1      30.269  23.406  -5.126  0.00  0.00    -0.009 A 
HETATM   29  C   UNK N   1      31.431  22.656  -5.381  0.00  0.00     0.016 A 
HETATM   30  C   UNK N   1      32.118  22.002  -4.366  0.00  0.00     0.037 A 
HETATM   31  C   UNK N   1      31.647  22.079  -3.062  0.00  0.00     0.065 A 
HETATM   32  C   UNK N   1      30.498  22.828  -2.776  0.00  0.00     0.037 A 
HETATM   33  C   UNK N   1      29.814  23.496  -3.804  0.00  0.00     0.016 A 
BRANCH  31  34
HETATM   34  O   UNK N   1      32.298  21.432  -2.083  0.00  0.00    -0.361 OA
HETATM   35  H   UNK N   1      32.040  20.564  -1.842  0.00  0.00     0.217 HD
ENDBRANCH  31  34
ENDBRANCH   2  28
BRANCH   8  36
HETATM   36  O   UNK N   1      26.187  25.668 -10.783  0.00  0.00    -0.361 OA
HETATM   37  H   UNK N   1      25.290  25.488 -10.582  0.00  0.00     0.217 HD
ENDBRANCH   8  36
TORSDOF 9
ENDMDL
MODEL 9
REMARK VINA RESULT:      -6.3     11.568     15.140
REMARK  9 active torsions:
REMARK  status: ('A' for Active; 'I' for Inactive)
REMARK    1  A    between atoms: C_6  and  N_1 
REMARK    2  A    between atoms: C_7  and  C_2 
REMARK    3  A    between atoms: C_13  and  C_6 
REMARK    4  A    between atoms: N_10  and  C_26 
REMARK    5  A    between atoms: O_27  and  C_14 
REMARK    6  A    between atoms: O_28  and  C_17 
REMARK    7  A    between atoms: O_25  and  C_18 
REMARK    8  A    between atoms: C_29  and  O_25 
REMARK    9  A    between atoms: C_26  and  C_29 
ROOT
HETATM    1  N   UNK N   1      26.261  17.563   5.481  0.00  0.00    -0.341 N 
HETATM    2  C   UNK N   1      27.221  18.416   5.928  0.00  0.00     0.052 A 
HETATM    3  C   UNK N   1      26.916  19.712   5.483  0.00  0.00    -0.022 A 
HETATM    4  C   UNK N   1      25.755  19.609   4.738  0.00  0.00     0.002 A 
HETATM    5  C   UNK N   1      25.372  18.289   4.772  0.00  0.00     0.046 A 
HETATM    6  C   UNK N   1      24.194  17.868   4.148  0.00  0.00     0.033 A 
HETATM    7  C   UNK N   1      25.009  20.574   4.059  0.00  0.00     0.051 A 
HETATM    8  C   UNK N   1      23.838  20.159   3.392  0.00  0.00     0.066 A 
HETATM    9  C   UNK N   1      27.669  20.970   5.754  0.00  0.00     0.051 C 
HETATM   10  C   UNK N   1      23.431  18.810   3.443  0.00  0.00     0.039 A 
ENDROOT
BRANCH   1  11
HETATM   11  C   UNK N   1      26.204  16.152   5.886  0.00  0.00     0.168 C 
BRANCH  11  12
HETATM   12  C   UNK N   1      26.656  15.103   4.945  0.00  0.00    -0.040 C 
HETATM   13  C   UNK N   1      26.977  13.822   5.378  0.00  0.00     0.011 C 
HETATM   14  C   UNK N   1      27.816  13.031   4.613  0.00  0.00     0.037 C 
HETATM   15  C   UNK N   1      28.326  13.510   3.396  0.00  0.00     0.068 C 
HETATM   16  C   UNK N   1      27.880  14.732   2.895  0.00  0.00     0.037 C 
HETATM   17  C   UNK N   1      27.062  15.537   3.682  0.00  0.00     0.011 C 
BRANCH  15  18
HETATM   18  O   UNK N   1      29.318  12.859   2.750  0.00  0.00    -0.349 OA
BRANCH  18  19
HETATM   19  C   UNK N   1      30.540  13.453   2.504  0.00  0.00     0.206 C 
BRANCH  19  20
HETATM   20  C   UNK N   1      31.457  13.318   3.717  0.00  0.00     0.299 C 
BRANCH  20  21
HETATM   21  N   UNK N   1      31.800  14.607   4.322  0.00  0.00     0.090 N 
HETATM   22  C   UNK N   1      33.193  14.606   4.773  0.00  0.00     0.272 C 
HETATM   23  C   UNK N   1      33.400  15.680   5.829  0.00  0.00     0.030 C 
HETATM   24  C   UNK N   1      33.859  16.978   5.183  0.00  0.00     0.002 C 
HETATM   25  C   UNK N   1      32.765  17.610   4.333  0.00  0.00     0.002 C 
HETATM   26  C   UNK N   1      32.467  16.755   3.111  0.00  0.00     0.030 C 
HETATM   27  C   UNK N   1      31.394  15.708   3.424  0.00  0.00     0.272 C 
ENDBRANCH  20  21
ENDBRANCH  19  20
ENDBRANCH  18  19
ENDBRANCH  15  18
ENDBRANCH  11  12
ENDBRANCH   1  11
BRANCH   2  28
HETATM   28  C   UNK N   1      28.364  17.990   6.796  0.00  0.00    -0.009 A 
HETATM   29  C   UNK N   1      28.346  18.288   8.171  0.00  0.00     0.016 A 
HETATM   30  C   UNK N   1      29.402  17.952   9.008  0.00  0.00     0.037 A 
HETATM   31  C   UNK N   1      30.515  17.311   8.480  0.00  0.00     0.065 A 
HETATM   32  C   UNK N   1      30.558  16.992   7.116  0.00  0.00     0.037 A 
HETATM   33  C   UNK N   1      29.483  17.323   6.277  0.00  0.00     0.016 A 
BRANCH  31  34
HETATM   34  O   UNK N   1      31.545  17.003   9.283  0.00  0.00    -0.361 OA
HETATM   35  H   UNK N   1      31.958  16.165   9.215  0.00  0.00     0.217 HD
ENDBRANCH  31  34
ENDBRANCH   2  28
BRANCH   8  36
HETATM   36  O   UNK N   1      23.101  21.051   2.709  0.00  0.00    -0.361 OA
HETATM   37  H   UNK N   1      22.279  21.341   3.050  0.00  0.00     0.217 HD
ENDBRANCH   8  36
TORSDOF 9
ENDMDL
