MODEL 1
REMARK VINA RESULT:      -5.9      0.000      0.000
REMARK  8 active torsions:
REMARK  status: ('A' for Active; 'I' for Inactive)
REMARK    1  A    between atoms: P_2  and  C_1 
REMARK    2  A    between atoms: P_3  and  C_1 
REMARK    3  A    between atoms: N_4  and  C_1 
REMARK    4  A    between atoms: O_7  and  P_2 
REMARK    5  A    between atoms: O_10  and  P_2 
REMARK    6  A    between atoms: O_8  and  P_3 
REMARK    7  A    between atoms: O_9  and  P_3 
REMARK    8  A    between atoms: C_11  and  N_4 
ROOT
HETATM    1  C   UNK N   1      34.429  16.383   9.125  0.00  0.00     0.302 C 
ENDROOT
BRANCH   1   2
HETATM    2  P   UNK N   1      32.852  15.401   9.029  0.00  0.00     0.270 P 
HETATM    3  O   UNK N   1      33.127  13.978   8.474  0.00  0.00    -0.652 OA
BRANCH   2   4
HETATM    4  O   UNK N   1      31.655  16.049   7.952  0.00  0.00    -0.327 OA
HETATM    5  H   UNK N   1      31.578  16.681   7.220  0.00  0.00     0.220 HD
ENDBRANCH   2   4
BRANCH   2   6
HETATM    6  O   UNK N   1      32.064  15.118  10.550  0.00  0.00    -0.327 OA
HETATM    7  H   UNK N   1      32.042  15.179  11.518  0.00  0.00     0.220 HD
ENDBRANCH   2   6
ENDBRANCH   1   2
BRANCH   1   8
HETATM    8  P   UNK N   1      34.267  17.931   8.107  0.00  0.00     0.270 P 
HETATM    9  O   UNK N   1      32.842  18.528   8.262  0.00  0.00    -0.652 OA
BRANCH   8  10
HETATM   10  O   UNK N   1      34.445  17.708   6.396  0.00  0.00    -0.327 OA
HETATM   11  H   UNK N   1      34.330  18.459   5.793  0.00  0.00     0.220 HD
ENDBRANCH   8  10
BRANCH   8  12
HETATM   12  O   UNK N   1      35.321  19.233   8.561  0.00  0.00    -0.327 OA
HETATM   13  H   UNK N   1      35.474  20.188   8.484  0.00  0.00     0.220 HD
ENDBRANCH   8  12
ENDBRANCH   1   8
BRANCH   1  14
HETATM   14  N   UNK N   1      34.728  16.733  10.506  0.00  0.00    -0.394 N 
HETATM   15  H   UNK N   1      34.185  17.359  11.102  0.00  0.00     0.155 HD
BRANCH  14  16
HETATM   16  C   UNK N   1      35.948  16.025  10.887  0.00  0.00     0.078 C 
HETATM   17  C   UNK N   1      36.367  15.082   9.754  0.00  0.00     0.024 C 
HETATM   18  C   UNK N   1      37.445  14.092  10.176  0.00  0.00     0.002 C 
HETATM   19  C   UNK N   1      36.790  12.800  10.657  0.00  0.00     0.000 C 
HETATM   20  C   UNK N   1      36.226  12.911  12.072  0.00  0.00     0.000 C 
HETATM   21  C   UNK N   1      35.139  13.971  12.187  0.00  0.00     0.002 C 
HETATM   22  C   UNK N   1      35.797  15.340  12.259  0.00  0.00     0.024 C 
ENDBRANCH  14  16
ENDBRANCH   1  14
TORSDOF 8
ENDMDL
MODEL 2
REMARK VINA RESULT:      -5.4      3.717      6.186
REMARK  8 active torsions:
REMARK  status: ('A' for Active; 'I' for Inactive)
REMARK    1  A    between atoms: P_2  and  C_1 
REMARK    2  A    between atoms: P_3  and  C_1 
REMARK    3  A    between atoms: N_4  and  C_1 
REMARK    4  A    between atoms: O_7  and  P_2 
REMARK    5  A    between atoms: O_10  and  P_2 
REMARK    6  A    between atoms: O_8  and  P_3 
REMARK    7  A    between atoms: O_9  and  P_3 
REMARK    8  A    between atoms: C_11  and  N_4 
ROOT
HETATM    1  C   UNK N   1      32.964  15.645   7.812  0.00  0.00     0.302 C 
ENDROOT
BRANCH   1   2
HETATM    2  P   UNK N   1      33.598  17.335   8.265  0.00  0.00     0.270 P 
HETATM    3  O   UNK N   1      34.592  17.851   7.192  0.00  0.00    -0.652 OA
BRANCH   2   4
HETATM    4  O   UNK N   1      34.505  17.398   9.744  0.00  0.00    -0.327 OA
HETATM    5  H   UNK N   1      34.834  18.045  10.388  0.00  0.00     0.220 HD
ENDBRANCH   2   4
BRANCH   2   6
HETATM    6  O   UNK N   1      32.390  18.577   8.359  0.00  0.00    -0.327 OA
HETATM    7  H   UNK N   1      31.787  19.137   8.873  0.00  0.00     0.220 HD
ENDBRANCH   2   6
ENDBRANCH   1   2
BRANCH   1   8
HETATM    8  P   UNK N   1      33.205  14.480   9.241  0.00  0.00     0.270 P 
HETATM    9  O   UNK N   1      34.712  14.154   9.419  0.00  0.00    -0.652 OA
BRANCH   8  10
HETATM   10  O   UNK N   1      32.459  12.925   9.056  0.00  0.00    -0.327 OA
HETATM   11  H   UNK N   1      32.084  12.470   9.826  0.00  0.00     0.220 HD
ENDBRANCH   8  10
BRANCH   8  12
HETATM   12  O   UNK N   1      32.720  15.094  10.790  0.00  0.00    -0.327 OA
HETATM   13  H   UNK N   1      33.034  15.344  11.673  0.00  0.00     0.220 HD
ENDBRANCH   8  12
ENDBRANCH   1   8
BRANCH   1  14
HETATM   14  N   UNK N   1      31.551  15.708   7.463  0.00  0.00    -0.394 N 
HETATM   15  H   UNK N   1      30.786  15.969   8.087  0.00  0.00     0.155 HD
BRANCH  14  16
HETATM   16  C   UNK N   1      31.427  15.332   6.057  0.00  0.00     0.078 C 
HETATM   17  C   UNK N   1      32.776  14.819   5.543  0.00  0.00     0.024 C 
HETATM   18  C   UNK N   1      32.821  14.688   4.027  0.00  0.00     0.002 C 
HETATM   19  C   UNK N   1      33.375  15.974   3.420  0.00  0.00     0.000 C 
HETATM   20  C   UNK N   1      32.345  17.101   3.372  0.00  0.00     0.000 C 
HETATM   21  C   UNK N   1      31.847  17.498   4.755  0.00  0.00     0.002 C 
HETATM   22  C   UNK N   1      30.823  16.475   5.219  0.00  0.00     0.024 C 
ENDBRANCH  14  16
ENDBRANCH   1  14
TORSDOF 8
ENDMDL
MODEL 3
REMARK VINA RESULT:      -5.4      3.581      4.749
REMARK  8 active torsions:
REMARK  status: ('A' for Active; 'I' for Inactive)
REMARK    1  A    between atoms: P_2  and  C_1 
REMARK    2  A    between atoms: P_3  and  C_1 
REMARK    3  A    between atoms: N_4  and  C_1 
REMARK    4  A    between atoms: O_7  and  P_2 
REMARK    5  A    between atoms: O_10  and  P_2 
REMARK    6  A    between atoms: O_8  and  P_3 
REMARK    7  A    between atoms: O_9  and  P_3 
REMARK    8  A    between atoms: C_11  and  N_4 
ROOT
HETATM    1  C   UNK N   1      35.393  13.766  11.273  0.00  0.00     0.302 C 
ENDROOT
BRANCH   1   2
HETATM    2  P   UNK N   1      34.333  15.124  10.569  0.00  0.00     0.270 P 
HETATM    3  O   UNK N   1      34.331  15.068   9.019  0.00  0.00    -0.652 OA
BRANCH   2   4
HETATM    4  O   UNK N   1      34.876  16.733  10.932  0.00  0.00    -0.327 OA
HETATM    5  H   UNK N   1      34.518  17.606  11.154  0.00  0.00     0.220 HD
ENDBRANCH   2   4
BRANCH   2   6
HETATM    6  O   UNK N   1      32.653  15.047  10.999  0.00  0.00    -0.327 OA
HETATM    7  H   UNK N   1      31.788  15.471  11.121  0.00  0.00     0.220 HD
ENDBRANCH   2   6
ENDBRANCH   1   2
BRANCH   1   8
HETATM    8  P   UNK N   1      37.120  13.905  10.597  0.00  0.00     0.270 P 
HETATM    9  O   UNK N   1      37.198  13.260   9.187  0.00  0.00    -0.652 OA
BRANCH   8  10
HETATM   10  O   UNK N   1      38.336  13.067  11.508  0.00  0.00    -0.327 OA
HETATM   11  H   UNK N   1      39.225  12.949  11.139  0.00  0.00     0.220 HD
ENDBRANCH   8  10
BRANCH   8  12
HETATM   12  O   UNK N   1      37.695  15.524  10.353  0.00  0.00    -0.327 OA
HETATM   13  H   UNK N   1      38.458  16.115  10.455  0.00  0.00     0.220 HD
ENDBRANCH   8  12
ENDBRANCH   1   8
BRANCH   1  14
HETATM   14  N   UNK N   1      35.427  13.848  12.726  0.00  0.00    -0.394 N 
HETATM   15  H   UNK N   1      35.268  14.685  13.288  0.00  0.00     0.155 HD
BRANCH  14  16
HETATM   16  C   UNK N   1      35.730  12.512  13.236  0.00  0.00     0.078 C 
HETATM   17  C   UNK N   1      34.469  11.644  13.177  0.00  0.00     0.024 C 
HETATM   18  C   UNK N   1      34.610  10.344  13.958  0.00  0.00     0.002 C 
HETATM   19  C   UNK N   1      34.090  10.544  15.379  0.00  0.00     0.000 C 
HETATM   20  C   UNK N   1      35.081  11.282  16.277  0.00  0.00     0.000 C 
HETATM   21  C   UNK N   1      35.397  12.682  15.771  0.00  0.00     0.002 C 
HETATM   22  C   UNK N   1      36.392  12.576  14.626  0.00  0.00     0.024 C 
ENDBRANCH  14  16
ENDBRANCH   1  14
TORSDOF 8
ENDMDL
MODEL 4
REMARK VINA RESULT:      -5.3      4.138      5.612
REMARK  8 active torsions:
REMARK  status: ('A' for Active; 'I' for Inactive)
REMARK    1  A    between atoms: P_2  and  C_1 
REMARK    2  A    between atoms: P_3  and  C_1 
REMARK    3  A    between atoms: N_4  and  C_1 
REMARK    4  A    between atoms: O_7  and  P_2 
REMARK    5  A    between atoms: O_10  and  P_2 
REMARK    6  A    between atoms: O_8  and  P_3 
REMARK    7  A    between atoms: O_9  and  P_3 
REMARK    8  A    between atoms: C_11  and  N_4 
ROOT
HETATM    1  C   UNK N   1      36.274  13.436  11.803  0.00  0.00     0.302 C 
ENDROOT
BRANCH   1   2
HETATM    2  P   UNK N   1      35.742  14.925  10.823  0.00  0.00     0.270 P 
HETATM    3  O   UNK N   1      35.658  14.583   9.312  0.00  0.00    -0.652 OA
BRANCH   2   4
HETATM    4  O   UNK N   1      36.839  16.269  10.890  0.00  0.00    -0.327 OA
HETATM    5  H   UNK N   1      37.776  16.472  10.744  0.00  0.00     0.220 HD
ENDBRANCH   2   4
BRANCH   2   6
HETATM    6  O   UNK N   1      34.165  15.539  11.208  0.00  0.00    -0.327 OA
HETATM    7  H   UNK N   1      33.311  15.459  11.662  0.00  0.00     0.220 HD
ENDBRANCH   2   6
ENDBRANCH   1   2
BRANCH   1   8
HETATM    8  P   UNK N   1      37.583  12.503  10.867  0.00  0.00     0.270 P 
HETATM    9  O   UNK N   1      37.909  11.168  11.588  0.00  0.00    -0.652 OA
BRANCH   8  10
HETATM   10  O   UNK N   1      39.118  13.304  10.755  0.00  0.00    -0.327 OA
HETATM   11  H   UNK N   1      39.919  12.795  10.558  0.00  0.00     0.220 HD
ENDBRANCH   8  10
BRANCH   8  12
HETATM   12  O   UNK N   1      37.145  12.020   9.259  0.00  0.00    -0.327 OA
HETATM   13  H   UNK N   1      36.502  12.146   8.545  0.00  0.00     0.220 HD
ENDBRANCH   8  12
ENDBRANCH   1   8
BRANCH   1  14
HETATM   14  N   UNK N   1      36.794  13.840  13.102  0.00  0.00    -0.394 N 
HETATM   15  H   UNK N   1      37.731  14.194  13.294  0.00  0.00     0.155 HD
BRANCH  14  16
HETATM   16  C   UNK N   1      35.727  13.647  14.083  0.00  0.00     0.078 C 
HETATM   17  C   UNK N   1      36.313  13.716  15.496  0.00  0.00     0.024 C 
HETATM   18  C   UNK N   1      35.341  13.232  16.564  0.00  0.00     0.002 C 
HETATM   19  C   UNK N   1      35.568  11.745  16.824  0.00  0.00     0.000 C 
HETATM   20  C   UNK N   1      34.954  10.852  15.748  0.00  0.00     0.000 C 
HETATM   21  C   UNK N   1      35.546  11.107  14.369  0.00  0.00     0.002 C 
HETATM   22  C   UNK N   1      34.920  12.368  13.792  0.00  0.00     0.024 C 
ENDBRANCH  14  16
ENDBRANCH   1  14
TORSDOF 8
ENDMDL
MODEL 5
REMARK VINA RESULT:      -5.3      4.752      6.168
REMARK  8 active torsions:
REMARK  status: ('A' for Active; 'I' for Inactive)
REMARK    1  A    between atoms: P_2  and  C_1 
REMARK    2  A    between atoms: P_3  and  C_1 
REMARK    3  A    between atoms: N_4  and  C_1 
REMARK    4  A    between atoms: O_7  and  P_2 
REMARK    5  A    between atoms: O_10  and  P_2 
REMARK    6  A    between atoms: O_8  and  P_3 
REMARK    7  A    between atoms: O_9  and  P_3 
REMARK    8  A    between atoms: C_11  and  N_4 
ROOT
HETATM    1  C   UNK N   1      35.637  13.065  12.815  0.00  0.00     0.302 C 
ENDROOT
BRANCH   1   2
HETATM    2  P   UNK N   1      37.269  12.249  12.450  0.00  0.00     0.270 P 
HETATM    3  O   UNK N   1      37.052  10.884  11.745  0.00  0.00    -0.652 OA
BRANCH   2   4
HETATM    4  O   UNK N   1      38.214  11.853  13.852  0.00  0.00    -0.327 OA
HETATM    5  H   UNK N   1      39.069  11.461  14.085  0.00  0.00     0.220 HD
ENDBRANCH   2   4
BRANCH   2   6
HETATM    6  O   UNK N   1      38.308  13.124  11.369  0.00  0.00    -0.327 OA
HETATM    7  H   UNK N   1      38.912  13.152  10.611  0.00  0.00     0.220 HD
ENDBRANCH   2   6
ENDBRANCH   1   2
BRANCH   1   8
HETATM    8  P   UNK N   1      35.221  14.269  11.460  0.00  0.00     0.270 P 
HETATM    9  O   UNK N   1      36.041  15.575  11.633  0.00  0.00    -0.652 OA
BRANCH   8  10
HETATM   10  O   UNK N   1      33.572  14.809  11.437  0.00  0.00    -0.327 OA
HETATM   11  H   UNK N   1      32.900  14.299  10.960  0.00  0.00     0.220 HD
ENDBRANCH   8  10
BRANCH   8  12
HETATM   12  O   UNK N   1      35.603  13.740   9.852  0.00  0.00    -0.327 OA
HETATM   13  H   UNK N   1      36.205  13.193   9.324  0.00  0.00     0.220 HD
ENDBRANCH   8  12
ENDBRANCH   1   8
BRANCH   1  14
HETATM   14  N   UNK N   1      34.582  12.067  12.925  0.00  0.00    -0.394 N 
HETATM   15  H   UNK N   1      34.231  11.473  12.173  0.00  0.00     0.155 HD
BRANCH  14  16
HETATM   16  C   UNK N   1      34.118  12.068  14.311  0.00  0.00     0.078 C 
HETATM   17  C   UNK N   1      35.139  12.793  15.192  0.00  0.00     0.024 C 
HETATM   18  C   UNK N   1      34.890  12.584  16.680  0.00  0.00     0.002 C 
HETATM   19  C   UNK N   1      35.705  11.391  17.171  0.00  0.00     0.000 C 
HETATM   20  C   UNK N   1      35.079  10.049  16.797  0.00  0.00     0.000 C 
HETATM   21  C   UNK N   1      34.963   9.857  15.291  0.00  0.00     0.002 C 
HETATM   22  C   UNK N   1      33.765  10.646  14.787  0.00  0.00     0.024 C 
ENDBRANCH  14  16
ENDBRANCH   1  14
TORSDOF 8
ENDMDL
MODEL 6
REMARK VINA RESULT:      -5.3     12.388     14.385
REMARK  8 active torsions:
REMARK  status: ('A' for Active; 'I' for Inactive)
REMARK    1  A    between atoms: P_2  and  C_1 
REMARK    2  A    between atoms: P_3  and  C_1 
REMARK    3  A    between atoms: N_4  and  C_1 
REMARK    4  A    between atoms: O_7  and  P_2 
REMARK    5  A    between atoms: O_10  and  P_2 
REMARK    6  A    between atoms: O_8  and  P_3 
REMARK    7  A    between atoms: O_9  and  P_3 
REMARK    8  A    between atoms: C_11  and  N_4 
ROOT
HETATM    1  C   UNK N   1      42.269  22.847   1.679  0.00  0.00     0.302 C 
ENDROOT
BRANCH   1   2
HETATM    2  P   UNK N   1      43.789  23.256   2.671  0.00  0.00     0.270 P 
HETATM    3  O   UNK N   1      44.578  24.417   2.008  0.00  0.00    -0.652 OA
BRANCH   2   4
HETATM    4  O   UNK N   1      44.950  21.971   2.787  0.00  0.00    -0.327 OA
HETATM    5  H   UNK N   1      44.994  21.003   2.746  0.00  0.00     0.220 HD
ENDBRANCH   2   4
BRANCH   2   6
HETATM    6  O   UNK N   1      43.489  23.815   4.286  0.00  0.00    -0.327 OA
HETATM    7  H   UNK N   1      43.147  23.673   5.183  0.00  0.00     0.220 HD
ENDBRANCH   2   6
ENDBRANCH   1   2
BRANCH   1   8
HETATM    8  P   UNK N   1      41.504  21.278   2.321  0.00  0.00     0.270 P 
HETATM    9  O   UNK N   1      41.550  20.174   1.230  0.00  0.00    -0.652 OA
BRANCH   8  10
HETATM   10  O   UNK N   1      39.823  21.394   2.731  0.00  0.00    -0.327 OA
HETATM   11  H   UNK N   1      39.188  20.761   2.360  0.00  0.00     0.220 HD
ENDBRANCH   8  10
BRANCH   8  12
HETATM   12  O   UNK N   1      42.310  20.561   3.681  0.00  0.00    -0.327 OA
HETATM   13  H   UNK N   1      42.359  19.772   4.243  0.00  0.00     0.220 HD
ENDBRANCH   8  12
ENDBRANCH   1   8
BRANCH   1  14
HETATM   14  N   UNK N   1      41.301  23.933   1.758  0.00  0.00    -0.394 N 
HETATM   15  H   UNK N   1      40.805  24.239   2.596  0.00  0.00     0.155 HD
BRANCH  14  16
HETATM   16  C   UNK N   1      41.170  24.506   0.421  0.00  0.00     0.078 C 
HETATM   17  C   UNK N   1      40.140  25.640   0.448  0.00  0.00     0.024 C 
HETATM   18  C   UNK N   1      39.720  26.091  -0.945  0.00  0.00     0.002 C 
HETATM   19  C   UNK N   1      38.475  25.322  -1.376  0.00  0.00     0.000 C 
HETATM   20  C   UNK N   1      38.785  23.901  -1.844  0.00  0.00     0.000 C 
HETATM   21  C   UNK N   1      39.416  23.051  -0.750  0.00  0.00     0.002 C 
HETATM   22  C   UNK N   1      40.887  23.417  -0.632  0.00  0.00     0.024 C 
ENDBRANCH  14  16
ENDBRANCH   1  14
TORSDOF 8
ENDMDL
MODEL 7
REMARK VINA RESULT:      -5.2      3.488      5.324
REMARK  8 active torsions:
REMARK  status: ('A' for Active; 'I' for Inactive)
REMARK    1  A    between atoms: P_2  and  C_1 
REMARK    2  A    between atoms: P_3  and  C_1 
REMARK    3  A    between atoms: N_4  and  C_1 
REMARK    4  A    between atoms: O_7  and  P_2 
REMARK    5  A    between atoms: O_10  and  P_2 
REMARK    6  A    between atoms: O_8  and  P_3 
REMARK    7  A    between atoms: O_9  and  P_3 
REMARK    8  A    between atoms: C_11  and  N_4 
ROOT
HETATM    1  C   UNK N   1      35.670  14.819   9.143  0.00  0.00     0.302 C 
ENDROOT
BRANCH   1   2
HETATM    2  P   UNK N   1      35.181  15.577  10.770  0.00  0.00     0.270 P 
HETATM    3  O   UNK N   1      35.050  17.117  10.637  0.00  0.00    -0.652 OA
BRANCH   2   4
HETATM    4  O   UNK N   1      36.334  15.361  12.049  0.00  0.00    -0.327 OA
HETATM    5  H   UNK N   1      37.291  15.271  12.181  0.00  0.00     0.220 HD
ENDBRANCH   2   4
BRANCH   2   6
HETATM    6  O   UNK N   1      33.639  15.072  11.388  0.00  0.00    -0.327 OA
HETATM    7  H   UNK N   1      32.942  14.404  11.484  0.00  0.00     0.220 HD
ENDBRANCH   2   6
ENDBRANCH   1   2
BRANCH   1   8
HETATM    8  P   UNK N   1      37.287  13.920   9.330  0.00  0.00     0.270 P 
HETATM    9  O   UNK N   1      37.145  12.771  10.364  0.00  0.00    -0.652 OA
BRANCH   8  10
HETATM   10  O   UNK N   1      38.594  14.880   9.947  0.00  0.00    -0.327 OA
HETATM   11  H   UNK N   1      38.476  15.399  10.757  0.00  0.00     0.220 HD
ENDBRANCH   8  10
BRANCH   8  12
HETATM   12  O   UNK N   1      37.869  13.130   7.899  0.00  0.00    -0.327 OA
HETATM   13  H   UNK N   1      38.450  13.222   7.128  0.00  0.00     0.220 HD
ENDBRANCH   8  12
ENDBRANCH   1   8
BRANCH   1  14
HETATM   14  N   UNK N   1      34.644  13.892   8.684  0.00  0.00    -0.394 N 
HETATM   15  H   UNK N   1      34.377  13.016   9.135  0.00  0.00     0.155 HD
BRANCH  14  16
HETATM   16  C   UNK N   1      34.065  14.445   7.462  0.00  0.00     0.078 C 
HETATM   17  C   UNK N   1      34.891  15.651   7.005  0.00  0.00     0.024 C 
HETATM   18  C   UNK N   1      34.197  16.467   5.921  0.00  0.00     0.002 C 
HETATM   19  C   UNK N   1      33.395  17.593   6.567  0.00  0.00     0.000 C 
HETATM   20  C   UNK N   1      32.072  17.114   7.164  0.00  0.00     0.000 C 
HETATM   21  C   UNK N   1      32.269  16.085   8.268  0.00  0.00     0.002 C 
HETATM   22  C   UNK N   1      32.561  14.735   7.633  0.00  0.00     0.024 C 
ENDBRANCH  14  16
ENDBRANCH   1  14
TORSDOF 8
ENDMDL
MODEL 8
REMARK VINA RESULT:      -5.2      3.309      5.060
REMARK  8 active torsions:
REMARK  status: ('A' for Active; 'I' for Inactive)
REMARK    1  A    between atoms: P_2  and  C_1 
REMARK    2  A    between atoms: P_3  and  C_1 
REMARK    3  A    between atoms: N_4  and  C_1 
REMARK    4  A    between atoms: O_7  and  P_2 
REMARK    5  A    between atoms: O_10  and  P_2 
REMARK    6  A    between atoms: O_8  and  P_3 
REMARK    7  A    between atoms: O_9  and  P_3 
REMARK    8  A    between atoms: C_11  and  N_4 
ROOT
HETATM    1  C   UNK N   1      34.610  16.071   8.450  0.00  0.00     0.302 C 
ENDROOT
BRANCH   1   2
HETATM    2  P   UNK N   1      34.179  17.804   7.926  0.00  0.00     0.270 P 
HETATM    3  O   UNK N   1      34.211  17.932   6.380  0.00  0.00    -0.652 OA
BRANCH   2   4
HETATM    4  O   UNK N   1      35.286  19.025   8.472  0.00  0.00    -0.327 OA
HETATM    5  H   UNK N   1      35.571  19.458   9.292  0.00  0.00     0.220 HD
ENDBRANCH   2   4
BRANCH   2   6
HETATM    6  O   UNK N   1      32.585  18.334   8.363  0.00  0.00    -0.327 OA
HETATM    7  H   UNK N   1      31.862  18.408   9.006  0.00  0.00     0.220 HD
ENDBRANCH   2   6
ENDBRANCH   1   2
BRANCH   1   8
HETATM    8  P   UNK N   1      35.286  16.089  10.182  0.00  0.00     0.270 P 
HETATM    9  O   UNK N   1      35.467  17.551  10.672  0.00  0.00    -0.652 OA
BRANCH   8  10
HETATM   10  O   UNK N   1      36.863  15.388  10.363  0.00  0.00    -0.327 OA
HETATM   11  H   UNK N   1      37.638  15.959  10.477  0.00  0.00     0.220 HD
ENDBRANCH   8  10
BRANCH   8  12
HETATM   12  O   UNK N   1      34.268  15.363  11.385  0.00  0.00    -0.327 OA
HETATM   13  H   UNK N   1      34.254  14.777  12.158  0.00  0.00     0.220 HD
ENDBRANCH   8  12
ENDBRANCH   1   8
BRANCH   1  14
HETATM   14  N   UNK N   1      33.433  15.215   8.391  0.00  0.00    -0.394 N 
HETATM   15  H   UNK N   1      32.581  15.320   8.943  0.00  0.00     0.155 HD
BRANCH  14  16
HETATM   16  C   UNK N   1      33.693  14.176   7.397  0.00  0.00     0.078 C 
HETATM   17  C   UNK N   1      35.022  14.465   6.691  0.00  0.00     0.024 C 
HETATM   18  C   UNK N   1      35.226  13.613   5.445  0.00  0.00     0.002 C 
HETATM   19  C   UNK N   1      34.713  14.367   4.222  0.00  0.00     0.000 C 
HETATM   20  C   UNK N   1      33.191  14.328   4.094  0.00  0.00     0.000 C 
HETATM   21  C   UNK N   1      32.489  14.973   5.281  0.00  0.00     0.002 C 
HETATM   22  C   UNK N   1      32.495  13.995   6.445  0.00  0.00     0.024 C 
ENDBRANCH  14  16
ENDBRANCH   1  14
TORSDOF 8
ENDMDL
MODEL 9
REMARK VINA RESULT:      -5.2      6.400      8.584
REMARK  8 active torsions:
REMARK  status: ('A' for Active; 'I' for Inactive)
REMARK    1  A    between atoms: P_2  and  C_1 
REMARK    2  A    between atoms: P_3  and  C_1 
REMARK    3  A    between atoms: N_4  and  C_1 
REMARK    4  A    between atoms: O_7  and  P_2 
REMARK    5  A    between atoms: O_10  and  P_2 
REMARK    6  A    between atoms: O_8  and  P_3 
REMARK    7  A    between atoms: O_9  and  P_3 
REMARK    8  A    between atoms: C_11  and  N_4 
ROOT
HETATM    1  C   UNK N   1      29.876  17.838   7.678  0.00  0.00     0.302 C 
ENDROOT
BRANCH   1   2
HETATM    2  P   UNK N   1      29.199  17.844   9.411  0.00  0.00     0.270 P 
HETATM    3  O   UNK N   1      29.707  19.085  10.192  0.00  0.00    -0.652 OA
BRANCH   2   4
HETATM    4  O   UNK N   1      29.695  16.499  10.391  0.00  0.00    -0.327 OA
HETATM    5  H   UNK N   1      30.399  15.834  10.439  0.00  0.00     0.220 HD
ENDBRANCH   2   4
BRANCH   2   6
HETATM    6  O   UNK N   1      27.470  17.947   9.529  0.00  0.00    -0.327 OA
HETATM    7  H   UNK N   1      26.666  18.395   9.837  0.00  0.00     0.220 HD
ENDBRANCH   2   6
ENDBRANCH   1   2
BRANCH   1   8
HETATM    8  P   UNK N   1      31.433  16.821   7.616  0.00  0.00     0.270 P 
HETATM    9  O   UNK N   1      32.480  17.501   6.694  0.00  0.00    -0.652 OA
BRANCH   8  10
HETATM   10  O   UNK N   1      31.247  15.234   6.942  0.00  0.00    -0.327 OA
HETATM   11  H   UNK N   1      32.028  14.727   6.670  0.00  0.00     0.220 HD
ENDBRANCH   8  10
BRANCH   8  12
HETATM   12  O   UNK N   1      32.260  16.636   9.130  0.00  0.00    -0.327 OA
HETATM   13  H   UNK N   1      32.221  16.218  10.004  0.00  0.00     0.220 HD
ENDBRANCH   8  12
ENDBRANCH   1   8
BRANCH   1  14
HETATM   14  N   UNK N   1      28.896  17.291   6.750  0.00  0.00    -0.394 N 
HETATM   15  H   UNK N   1      28.405  16.401   6.845  0.00  0.00     0.155 HD
BRANCH  14  16
HETATM   16  C   UNK N   1      28.740  18.249   5.658  0.00  0.00     0.078 C 
HETATM   17  C   UNK N   1      27.892  19.433   6.133  0.00  0.00     0.024 C 
HETATM   18  C   UNK N   1      27.429  20.326   4.989  0.00  0.00     0.002 C 
HETATM   19  C   UNK N   1      26.053  19.869   4.511  0.00  0.00     0.000 C 
HETATM   20  C   UNK N   1      26.114  18.628   3.622  0.00  0.00     0.000 C 
HETATM   21  C   UNK N   1      26.703  17.423   4.342  0.00  0.00     0.002 C 
HETATM   22  C   UNK N   1      28.216  17.566   4.380  0.00  0.00     0.024 C 
ENDBRANCH  14  16
ENDBRANCH   1  14
TORSDOF 8
ENDMDL
