MODEL 1
REMARK VINA RESULT:      -5.5      0.000      0.000
REMARK  8 active torsions:
REMARK  status: ('A' for Active; 'I' for Inactive)
REMARK    1  A    between atoms: C_1  and  O_15 
REMARK    2  A    between atoms: C_2  and  O_7 
REMARK    3  A    between atoms: C_5  and  C_8 
REMARK    4  A    between atoms: C_8  and  C_9 
REMARK    5  A    between atoms: C_8  and  O_13 
REMARK    6  A    between atoms: C_9  and  C_10 
REMARK    7  A    between atoms: C_9  and  N_14 
REMARK    8  A    between atoms: C_10  and  O_11 
ROOT
HETATM    1  C   UNK N   1      20.622  13.732   8.829  0.00  0.00     0.183 C 
ENDROOT
BRANCH   1   2
HETATM    2  C   UNK N   1      21.833  13.267   9.618  0.00  0.00    -0.024 A 
HETATM    3  C   UNK N   1      23.123  13.418   9.089  0.00  0.00     0.013 A 
HETATM    4  C   UNK N   1      24.238  12.939   9.783  0.00  0.00     0.040 A 
HETATM    5  C   UNK N   1      24.073  12.276  10.997  0.00  0.00     0.098 A 
HETATM    6  C   UNK N   1      22.791  12.097  11.533  0.00  0.00     0.099 A 
HETATM    7  C   UNK N   1      21.676  12.599  10.845  0.00  0.00     0.049 A 
BRANCH   5   8
HETATM    8  O   UNK N   1      25.151  11.801  11.651  0.00  0.00    -0.358 OA
HETATM    9  H   UNK N   1      25.043  11.246  12.398  0.00  0.00     0.217 HD
ENDBRANCH   5   8
BRANCH   6  10
HETATM   10  O   UNK N   1      22.620  11.443  12.690  0.00  0.00    -0.358 OA
HETATM   11  H   UNK N   1      23.000  10.595  12.815  0.00  0.00     0.217 HD
ENDBRANCH   6  10
ENDBRANCH   1   2
BRANCH   1  12
HETATM   12  C   UNK N   1      20.885  14.861   7.809  0.00  0.00     0.207 C 
BRANCH  12  13
HETATM   13  C   UNK N   1      20.063  16.087   8.134  0.00  0.00     0.165 C 
HETATM   14  O   UNK N   1      20.544  16.987   8.805  0.00  0.00    -0.648 OA
BRANCH  13  15
HETATM   15  O   UNK N   1      18.800  16.208   7.676  0.00  0.00    -0.775 OA
HETATM   16  H   UNK N   1      18.237  15.480   7.499  0.00  0.00     0.167 HD
ENDBRANCH  13  15
ENDBRANCH  12  13
BRANCH  12  17
HETATM   17  N   UNK N   1      20.551  14.414   6.463  0.00  0.00    -0.415 N 
HETATM   18  H   UNK N   1      21.286  14.187   5.793  0.00  0.00     0.150 HD
HETATM   19  H   UNK N   1      19.572  14.327   6.187  0.00  0.00     0.150 HD
ENDBRANCH  12  17
ENDBRANCH   1  12
BRANCH   1  20
HETATM   20  O   UNK N   1      19.594  14.111   9.703  0.00  0.00    -0.388 OA
HETATM   21  H   UNK N   1      19.419  13.597  10.507  0.00  0.00     0.210 HD
ENDBRANCH   1  20
TORSDOF 8
ENDMDL
MODEL 2
REMARK VINA RESULT:      -5.4     13.993     15.360
REMARK  8 active torsions:
REMARK  status: ('A' for Active; 'I' for Inactive)
REMARK    1  A    between atoms: C_1  and  O_15 
REMARK    2  A    between atoms: C_2  and  O_7 
REMARK    3  A    between atoms: C_5  and  C_8 
REMARK    4  A    between atoms: C_8  and  C_9 
REMARK    5  A    between atoms: C_8  and  O_13 
REMARK    6  A    between atoms: C_9  and  C_10 
REMARK    7  A    between atoms: C_9  and  N_14 
REMARK    8  A    between atoms: C_10  and  O_11 
ROOT
HETATM    1  C   UNK N   1      35.230  11.996  14.909  0.00  0.00     0.183 C 
ENDROOT
BRANCH   1   2
HETATM    2  C   UNK N   1      35.296  12.287  16.398  0.00  0.00    -0.024 A 
HETATM    3  C   UNK N   1      35.292  11.235  17.326  0.00  0.00     0.013 A 
HETATM    4  C   UNK N   1      35.293  11.496  18.700  0.00  0.00     0.040 A 
HETATM    5  C   UNK N   1      35.265  12.810  19.160  0.00  0.00     0.098 A 
HETATM    6  C   UNK N   1      35.248  13.876  18.250  0.00  0.00     0.099 A 
HETATM    7  C   UNK N   1      35.271  13.609  16.873  0.00  0.00     0.049 A 
BRANCH   5   8
HETATM    8  O   UNK N   1      35.247  13.053  20.485  0.00  0.00    -0.358 OA
HETATM    9  H   UNK N   1      35.443  12.369  21.093  0.00  0.00     0.217 HD
ENDBRANCH   5   8
BRANCH   6  10
HETATM   10  O   UNK N   1      35.201  15.142  18.683  0.00  0.00    -0.358 OA
HETATM   11  H   UNK N   1      34.981  15.330  19.575  0.00  0.00     0.217 HD
ENDBRANCH   6  10
ENDBRANCH   1   2
BRANCH   1  12
HETATM   12  C   UNK N   1      35.908  13.039  13.996  0.00  0.00     0.207 C 
BRANCH  12  13
HETATM   13  C   UNK N   1      35.270  13.057  12.627  0.00  0.00     0.165 C 
HETATM   14  O   UNK N   1      35.562  12.205  11.803  0.00  0.00    -0.648 OA
BRANCH  13  15
HETATM   15  O   UNK N   1      34.361  14.002  12.305  0.00  0.00    -0.775 OA
HETATM   16  H   UNK N   1      34.582  14.834  11.936  0.00  0.00     0.167 HD
ENDBRANCH  13  15
ENDBRANCH  12  13
BRANCH  12  17
HETATM   17  N   UNK N   1      37.326  12.738  13.850  0.00  0.00    -0.415 N 
HETATM   18  H   UNK N   1      38.033  13.359  14.245  0.00  0.00     0.150 HD
HETATM   19  H   UNK N   1      37.616  11.898  13.349  0.00  0.00     0.150 HD
ENDBRANCH  12  17
ENDBRANCH   1  12
BRANCH   1  20
HETATM   20  O   UNK N   1      33.899  11.810  14.514  0.00  0.00    -0.388 OA
HETATM   21  H   UNK N   1      33.194  12.362  14.888  0.00  0.00     0.210 HD
ENDBRANCH   1  20
TORSDOF 8
ENDMDL
MODEL 3
REMARK VINA RESULT:      -5.3     15.137     16.287
REMARK  8 active torsions:
REMARK  status: ('A' for Active; 'I' for Inactive)
REMARK    1  A    between atoms: C_1  and  O_15 
REMARK    2  A    between atoms: C_2  and  O_7 
REMARK    3  A    between atoms: C_5  and  C_8 
REMARK    4  A    between atoms: C_8  and  C_9 
REMARK    5  A    between atoms: C_8  and  O_13 
REMARK    6  A    between atoms: C_9  and  C_10 
REMARK    7  A    between atoms: C_9  and  N_14 
REMARK    8  A    between atoms: C_10  and  O_11 
ROOT
HETATM    1  C   UNK N   1      35.616  12.434  15.636  0.00  0.00     0.183 C 
ENDROOT
BRANCH   1   2
HETATM    2  C   UNK N   1      35.613  12.053  17.106  0.00  0.00    -0.024 A 
HETATM    3  C   UNK N   1      35.927  10.744  17.499  0.00  0.00     0.013 A 
HETATM    4  C   UNK N   1      35.870  10.370  18.845  0.00  0.00     0.040 A 
HETATM    5  C   UNK N   1      35.468  11.292  19.808  0.00  0.00     0.098 A 
HETATM    6  C   UNK N   1      35.131  12.600  19.435  0.00  0.00     0.099 A 
HETATM    7  C   UNK N   1      35.212  12.977  18.086  0.00  0.00     0.049 A 
BRANCH   5   8
HETATM    8  O   UNK N   1      35.397  10.919  21.101  0.00  0.00    -0.358 OA
HETATM    9  H   UNK N   1      35.562  10.030  21.346  0.00  0.00     0.217 HD
ENDBRANCH   5   8
BRANCH   6  10
HETATM   10  O   UNK N   1      34.723  13.487  20.352  0.00  0.00    -0.358 OA
HETATM   11  H   UNK N   1      33.818  13.723  20.414  0.00  0.00     0.217 HD
ENDBRANCH   6  10
ENDBRANCH   1   2
BRANCH   1  12
HETATM   12  C   UNK N   1      36.956  12.970  15.090  0.00  0.00     0.207 C 
BRANCH  12  13
HETATM   13  C   UNK N   1      36.926  14.476  14.962  0.00  0.00     0.165 C 
HETATM   14  O   UNK N   1      37.222  15.178  15.916  0.00  0.00    -0.648 OA
BRANCH  13  15
HETATM   15  O   UNK N   1      36.587  15.059  13.793  0.00  0.00    -0.775 OA
HETATM   16  H   UNK N   1      37.128  15.047  13.028  0.00  0.00     0.167 HD
ENDBRANCH  13  15
ENDBRANCH  12  13
BRANCH  12  17
HETATM   17  N   UNK N   1      37.236  12.393  13.781  0.00  0.00    -0.415 N 
HETATM   18  H   UNK N   1      38.187  12.130  13.522  0.00  0.00     0.150 HD
HETATM   19  H   UNK N   1      36.474  12.251  13.118  0.00  0.00     0.150 HD
ENDBRANCH  12  17
ENDBRANCH   1  12
BRANCH   1  20
HETATM   20  O   UNK N   1      34.593  13.356  15.377  0.00  0.00    -0.388 OA
HETATM   21  H   UNK N   1      34.695  14.019  14.676  0.00  0.00     0.210 HD
ENDBRANCH   1  20
TORSDOF 8
ENDMDL
MODEL 4
REMARK VINA RESULT:      -5.3      1.190      2.109
REMARK  8 active torsions:
REMARK  status: ('A' for Active; 'I' for Inactive)
REMARK    1  A    between atoms: C_1  and  O_15 
REMARK    2  A    between atoms: C_2  and  O_7 
REMARK    3  A    between atoms: C_5  and  C_8 
REMARK    4  A    between atoms: C_8  and  C_9 
REMARK    5  A    between atoms: C_8  and  O_13 
REMARK    6  A    between atoms: C_9  and  C_10 
REMARK    7  A    between atoms: C_9  and  N_14 
REMARK    8  A    between atoms: C_10  and  O_11 
ROOT
HETATM    1  C   UNK N   1      21.760  13.572   8.164  0.00  0.00     0.183 C 
ENDROOT
BRANCH   1   2
HETATM    2  C   UNK N   1      22.089  12.956   9.512  0.00  0.00    -0.024 A 
HETATM    3  C   UNK N   1      21.061  12.602  10.399  0.00  0.00     0.013 A 
HETATM    4  C   UNK N   1      21.357  12.089  11.665  0.00  0.00     0.040 A 
HETATM    5  C   UNK N   1      22.682  11.953  12.071  0.00  0.00     0.098 A 
HETATM    6  C   UNK N   1      23.724  12.320  11.208  0.00  0.00     0.099 A 
HETATM    7  C   UNK N   1      23.424  12.813   9.930  0.00  0.00     0.049 A 
BRANCH   5   8
HETATM    8  O   UNK N   1      22.959  11.475  13.300  0.00  0.00    -0.358 OA
HETATM    9  H   UNK N   1      22.805  10.574  13.501  0.00  0.00     0.217 HD
ENDBRANCH   5   8
BRANCH   6  10
HETATM   10  O   UNK N   1      25.002  12.212  11.598  0.00  0.00    -0.358 OA
HETATM   11  H   UNK N   1      25.215  11.807  12.415  0.00  0.00     0.217 HD
ENDBRANCH   6  10
ENDBRANCH   1   2
BRANCH   1  12
HETATM   12  C   UNK N   1      21.473  15.089   8.177  0.00  0.00     0.207 C 
BRANCH  12  13
HETATM   13  C   UNK N   1      19.989  15.360   8.097  0.00  0.00     0.165 C 
HETATM   14  O   UNK N   1      19.476  15.651   7.028  0.00  0.00    -0.648 OA
BRANCH  13  15
HETATM   15  O   UNK N   1      19.214  15.269   9.198  0.00  0.00    -0.775 OA
HETATM   16  H   UNK N   1      18.847  14.466   9.513  0.00  0.00     0.167 HD
ENDBRANCH  13  15
ENDBRANCH  12  13
BRANCH  12  17
HETATM   17  N   UNK N   1      22.132  15.738   7.051  0.00  0.00    -0.415 N 
HETATM   18  H   UNK N   1      22.411  15.199   6.231  0.00  0.00     0.150 HD
HETATM   19  H   UNK N   1      22.314  16.742   7.082  0.00  0.00     0.150 HD
ENDBRANCH  12  17
ENDBRANCH   1  12
BRANCH   1  20
HETATM   20  O   UNK N   1      20.689  12.890   7.572  0.00  0.00    -0.388 OA
HETATM   21  H   UNK N   1      20.804  12.439   6.721  0.00  0.00     0.210 HD
ENDBRANCH   1  20
TORSDOF 8
ENDMDL
MODEL 5
REMARK VINA RESULT:      -5.3      7.943      9.077
REMARK  8 active torsions:
REMARK  status: ('A' for Active; 'I' for Inactive)
REMARK    1  A    between atoms: C_1  and  O_15 
REMARK    2  A    between atoms: C_2  and  O_7 
REMARK    3  A    between atoms: C_5  and  C_8 
REMARK    4  A    between atoms: C_8  and  C_9 
REMARK    5  A    between atoms: C_8  and  O_13 
REMARK    6  A    between atoms: C_9  and  C_10 
REMARK    7  A    between atoms: C_9  and  N_14 
REMARK    8  A    between atoms: C_10  and  O_11 
ROOT
HETATM    1  C   UNK N   1      19.969  17.330   2.750  0.00  0.00     0.183 C 
ENDROOT
BRANCH   1   2
HETATM    2  C   UNK N   1      21.269  18.056   3.048  0.00  0.00    -0.024 A 
HETATM    3  C   UNK N   1      22.312  17.397   3.715  0.00  0.00     0.013 A 
HETATM    4  C   UNK N   1      23.489  18.075   4.045  0.00  0.00     0.040 A 
HETATM    5  C   UNK N   1      23.623  19.427   3.740  0.00  0.00     0.098 A 
HETATM    6  C   UNK N   1      22.586  20.110   3.091  0.00  0.00     0.099 A 
HETATM    7  C   UNK N   1      21.416  19.420   2.741  0.00  0.00     0.049 A 
BRANCH   5   8
HETATM    8  O   UNK N   1      24.754  20.079   4.077  0.00  0.00    -0.358 OA
HETATM    9  H   UNK N   1      25.079  20.035   4.954  0.00  0.00     0.217 HD
ENDBRANCH   5   8
BRANCH   6  10
HETATM   10  O   UNK N   1      22.699  21.416   2.812  0.00  0.00    -0.358 OA
HETATM   11  H   UNK N   1      22.143  21.812   2.170  0.00  0.00     0.217 HD
ENDBRANCH   6  10
ENDBRANCH   1   2
BRANCH   1  12
HETATM   12  C   UNK N   1      20.057  16.215   1.686  0.00  0.00     0.207 C 
BRANCH  12  13
HETATM   13  C   UNK N   1      19.593  16.715   0.338  0.00  0.00     0.165 C 
HETATM   14  O   UNK N   1      20.358  17.338  -0.381  0.00  0.00    -0.648 OA
BRANCH  13  15
HETATM   15  O   UNK N   1      18.339  16.466  -0.092  0.00  0.00    -0.775 OA
HETATM   16  H   UNK N   1      17.769  17.120  -0.447  0.00  0.00     0.167 HD
ENDBRANCH  13  15
ENDBRANCH  12  13
BRANCH  12  17
HETATM   17  N   UNK N   1      19.233  15.078   2.076  0.00  0.00    -0.415 N 
HETATM   18  H   UNK N   1      19.585  14.382   2.732  0.00  0.00     0.150 HD
HETATM   19  H   UNK N   1      18.294  14.979   1.688  0.00  0.00     0.150 HD
ENDBRANCH  12  17
ENDBRANCH   1  12
BRANCH   1  20
HETATM   20  O   UNK N   1      18.975  18.251   2.393  0.00  0.00    -0.388 OA
HETATM   21  H   UNK N   1      18.048  18.089   2.627  0.00  0.00     0.210 HD
ENDBRANCH   1  20
TORSDOF 8
ENDMDL
MODEL 6
REMARK VINA RESULT:      -5.3     10.746     12.435
REMARK  8 active torsions:
REMARK  status: ('A' for Active; 'I' for Inactive)
REMARK    1  A    between atoms: C_1  and  O_15 
REMARK    2  A    between atoms: C_2  and  O_7 
REMARK    3  A    between atoms: C_5  and  C_8 
REMARK    4  A    between atoms: C_8  and  C_9 
REMARK    5  A    between atoms: C_8  and  O_13 
REMARK    6  A    between atoms: C_9  and  C_10 
REMARK    7  A    between atoms: C_9  and  N_14 
REMARK    8  A    between atoms: C_10  and  O_11 
ROOT
HETATM    1  C   UNK N   1      32.496  17.213   8.477  0.00  0.00     0.183 C 
ENDROOT
BRANCH   1   2
HETATM    2  C   UNK N   1      32.305  17.231   6.971  0.00  0.00    -0.024 A 
HETATM    3  C   UNK N   1      33.403  17.425   6.120  0.00  0.00     0.013 A 
HETATM    4  C   UNK N   1      33.227  17.502   4.735  0.00  0.00     0.040 A 
HETATM    5  C   UNK N   1      31.949  17.416   4.188  0.00  0.00     0.098 A 
HETATM    6  C   UNK N   1      30.836  17.242   5.022  0.00  0.00     0.099 A 
HETATM    7  C   UNK N   1      31.019  17.143   6.409  0.00  0.00     0.049 A 
BRANCH   5   8
HETATM    8  O   UNK N   1      31.785  17.510   2.854  0.00  0.00    -0.358 OA
HETATM    9  H   UNK N   1      31.513  18.318   2.467  0.00  0.00     0.217 HD
ENDBRANCH   5   8
BRANCH   6  10
HETATM   10  O   UNK N   1      29.601  17.179   4.507  0.00  0.00    -0.358 OA
HETATM   11  H   UNK N   1      29.465  17.292   3.586  0.00  0.00     0.217 HD
ENDBRANCH   6  10
ENDBRANCH   1   2
BRANCH   1  12
HETATM   12  C   UNK N   1      33.673  16.356   8.989  0.00  0.00     0.207 C 
BRANCH  12  13
HETATM   13  C   UNK N   1      33.175  15.107   9.677  0.00  0.00     0.165 C 
HETATM   14  O   UNK N   1      32.856  14.130   9.018  0.00  0.00    -0.648 OA
BRANCH  13  15
HETATM   15  O   UNK N   1      33.092  15.051  11.023  0.00  0.00    -0.775 OA
HETATM   16  H   UNK N   1      32.603  14.402  11.490  0.00  0.00     0.167 HD
ENDBRANCH  13  15
ENDBRANCH  12  13
BRANCH  12  17
HETATM   17  N   UNK N   1      34.484  17.120   9.929  0.00  0.00    -0.415 N 
HETATM   18  H   UNK N   1      35.498  17.153   9.833  0.00  0.00     0.150 HD
HETATM   19  H   UNK N   1      34.031  17.626  10.690  0.00  0.00     0.150 HD
ENDBRANCH  12  17
ENDBRANCH   1  12
BRANCH   1  20
HETATM   20  O   UNK N   1      31.309  16.816   9.107  0.00  0.00    -0.388 OA
HETATM   21  H   UNK N   1      30.631  17.471   9.335  0.00  0.00     0.210 HD
ENDBRANCH   1  20
TORSDOF 8
ENDMDL
MODEL 7
REMARK VINA RESULT:      -5.2      8.209      9.560
REMARK  8 active torsions:
REMARK  status: ('A' for Active; 'I' for Inactive)
REMARK    1  A    between atoms: C_1  and  O_15 
REMARK    2  A    between atoms: C_2  and  O_7 
REMARK    3  A    between atoms: C_5  and  C_8 
REMARK    4  A    between atoms: C_8  and  C_9 
REMARK    5  A    between atoms: C_8  and  O_13 
REMARK    6  A    between atoms: C_9  and  C_10 
REMARK    7  A    between atoms: C_9  and  N_14 
REMARK    8  A    between atoms: C_10  and  O_11 
ROOT
HETATM    1  C   UNK N   1      21.673  20.347   3.077  0.00  0.00     0.183 C 
ENDROOT
BRANCH   1   2
HETATM    2  C   UNK N   1      23.031  19.714   3.325  0.00  0.00    -0.024 A 
HETATM    3  C   UNK N   1      23.125  18.453   3.933  0.00  0.00     0.013 A 
HETATM    4  C   UNK N   1      24.372  17.891   4.219  0.00  0.00     0.040 A 
HETATM    5  C   UNK N   1      25.538  18.595   3.929  0.00  0.00     0.098 A 
HETATM    6  C   UNK N   1      25.467  19.864   3.340  0.00  0.00     0.099 A 
HETATM    7  C   UNK N   1      24.214  20.416   3.034  0.00  0.00     0.049 A 
BRANCH   5   8
HETATM    8  O   UNK N   1      26.736  18.053   4.224  0.00  0.00    -0.358 OA
HETATM    9  H   UNK N   1      27.165  18.267   5.030  0.00  0.00     0.217 HD
ENDBRANCH   5   8
BRANCH   6  10
HETATM   10  O   UNK N   1      26.583  20.557   3.076  0.00  0.00    -0.358 OA
HETATM   11  H   UNK N   1      27.098  20.909   3.776  0.00  0.00     0.217 HD
ENDBRANCH   6  10
ENDBRANCH   1   2
BRANCH   1  12
HETATM   12  C   UNK N   1      20.876  19.767   1.889  0.00  0.00     0.207 C 
BRANCH  12  13
HETATM   13  C   UNK N   1      20.711  20.795   0.793  0.00  0.00     0.165 C 
HETATM   14  O   UNK N   1      21.539  20.877  -0.100  0.00  0.00    -0.648 OA
BRANCH  13  15
HETATM   15  O   UNK N   1      19.644  21.621   0.782  0.00  0.00    -0.775 OA
HETATM   16  H   UNK N   1      19.589  22.395   0.257  0.00  0.00     0.167 HD
ENDBRANCH  13  15
ENDBRANCH  12  13
BRANCH  12  17
HETATM   17  N   UNK N   1      19.556  19.333   2.329  0.00  0.00    -0.415 N 
HETATM   18  H   UNK N   1      19.436  18.864   3.227  0.00  0.00     0.150 HD
HETATM   19  H   UNK N   1      18.745  19.500   1.733  0.00  0.00     0.150 HD
ENDBRANCH  12  17
ENDBRANCH   1  12
BRANCH   1  20
HETATM   20  O   UNK N   1      21.809  21.733   2.927  0.00  0.00    -0.388 OA
HETATM   21  H   UNK N   1      21.551  22.332   3.645  0.00  0.00     0.210 HD
ENDBRANCH   1  20
TORSDOF 8
ENDMDL
MODEL 8
REMARK VINA RESULT:      -5.2     10.861     13.024
REMARK  8 active torsions:
REMARK  status: ('A' for Active; 'I' for Inactive)
REMARK    1  A    between atoms: C_1  and  O_15 
REMARK    2  A    between atoms: C_2  and  O_7 
REMARK    3  A    between atoms: C_5  and  C_8 
REMARK    4  A    between atoms: C_8  and  C_9 
REMARK    5  A    between atoms: C_8  and  O_13 
REMARK    6  A    between atoms: C_9  and  C_10 
REMARK    7  A    between atoms: C_9  and  N_14 
REMARK    8  A    between atoms: C_10  and  O_11 
ROOT
HETATM    1  C   UNK N   1      33.534  16.627   7.136  0.00  0.00     0.183 C 
ENDROOT
BRANCH   1   2
HETATM    2  C   UNK N   1      32.399  16.934   6.175  0.00  0.00    -0.024 A 
HETATM    3  C   UNK N   1      31.078  17.012   6.640  0.00  0.00     0.013 A 
HETATM    4  C   UNK N   1      30.022  17.236   5.751  0.00  0.00     0.040 A 
HETATM    5  C   UNK N   1      30.271  17.354   4.386  0.00  0.00     0.098 A 
HETATM    6  C   UNK N   1      31.581  17.260   3.898  0.00  0.00     0.099 A 
HETATM    7  C   UNK N   1      32.641  17.058   4.796  0.00  0.00     0.049 A 
BRANCH   5   8
HETATM    8  O   UNK N   1      29.246  17.551   3.535  0.00  0.00    -0.358 OA
HETATM    9  H   UNK N   1      29.146  18.375   3.099  0.00  0.00     0.217 HD
ENDBRANCH   5   8
BRANCH   6  10
HETATM   10  O   UNK N   1      31.829  17.352   2.585  0.00  0.00    -0.358 OA
HETATM   11  H   UNK N   1      32.434  16.766   2.175  0.00  0.00     0.217 HD
ENDBRANCH   6  10
ENDBRANCH   1   2
BRANCH   1  12
HETATM   12  C   UNK N   1      33.409  17.261   8.538  0.00  0.00     0.207 C 
BRANCH  12  13
HETATM   13  C   UNK N   1      34.683  17.975   8.925  0.00  0.00     0.165 C 
HETATM   14  O   UNK N   1      35.421  17.497   9.772  0.00  0.00    -0.648 OA
BRANCH  13  15
HETATM   15  O   UNK N   1      35.027  19.137   8.330  0.00  0.00    -0.775 OA
HETATM   16  H   UNK N   1      35.492  19.826   8.761  0.00  0.00     0.167 HD
ENDBRANCH  13  15
ENDBRANCH  12  13
BRANCH  12  17
HETATM   17  N   UNK N   1      33.124  16.235   9.533  0.00  0.00    -0.415 N 
HETATM   18  H   UNK N   1      32.165  15.933   9.708  0.00  0.00     0.150 HD
HETATM   19  H   UNK N   1      33.890  15.816  10.060  0.00  0.00     0.150 HD
ENDBRANCH  12  17
ENDBRANCH   1  12
BRANCH   1  20
HETATM   20  O   UNK N   1      34.761  16.981   6.561  0.00  0.00    -0.388 OA
HETATM   21  H   UNK N   1      34.962  17.910   6.366  0.00  0.00     0.210 HD
ENDBRANCH   1  20
TORSDOF 8
ENDMDL
MODEL 9
REMARK VINA RESULT:      -5.2      9.335     11.392
REMARK  8 active torsions:
REMARK  status: ('A' for Active; 'I' for Inactive)
REMARK    1  A    between atoms: C_1  and  O_15 
REMARK    2  A    between atoms: C_2  and  O_7 
REMARK    3  A    between atoms: C_5  and  C_8 
REMARK    4  A    between atoms: C_8  and  C_9 
REMARK    5  A    between atoms: C_8  and  O_13 
REMARK    6  A    between atoms: C_9  and  C_10 
REMARK    7  A    between atoms: C_9  and  N_14 
REMARK    8  A    between atoms: C_10  and  O_11 
ROOT
HETATM    1  C   UNK N   1      32.100  16.436   8.421  0.00  0.00     0.183 C 
ENDROOT
BRANCH   1   2
HETATM    2  C   UNK N   1      30.748  16.955   7.961  0.00  0.00    -0.024 A 
HETATM    3  C   UNK N   1      30.495  17.158   6.596  0.00  0.00     0.013 A 
HETATM    4  C   UNK N   1      29.275  17.691   6.170  0.00  0.00     0.040 A 
HETATM    5  C   UNK N   1      28.308  18.056   7.104  0.00  0.00     0.098 A 
HETATM    6  C   UNK N   1      28.549  17.880   8.473  0.00  0.00     0.099 A 
HETATM    7  C   UNK N   1      29.765  17.323   8.896  0.00  0.00     0.049 A 
BRANCH   5   8
HETATM    8  O   UNK N   1      27.142  18.586   6.685  0.00  0.00    -0.358 OA
HETATM    9  H   UNK N   1      27.081  19.502   6.498  0.00  0.00     0.217 HD
ENDBRANCH   5   8
BRANCH   6  10
HETATM   10  O   UNK N   1      27.633  18.247   9.379  0.00  0.00    -0.358 OA
HETATM   11  H   UNK N   1      26.725  18.063   9.236  0.00  0.00     0.217 HD
ENDBRANCH   6  10
ENDBRANCH   1   2
BRANCH   1  12
HETATM   12  C   UNK N   1      33.257  17.456   8.371  0.00  0.00     0.207 C 
BRANCH  12  13
HETATM   13  C   UNK N   1      34.124  17.232   7.154  0.00  0.00     0.165 C 
HETATM   14  O   UNK N   1      34.044  17.986   6.197  0.00  0.00    -0.648 OA
BRANCH  13  15
HETATM   15  O   UNK N   1      35.005  16.210   7.117  0.00  0.00    -0.775 OA
HETATM   16  H   UNK N   1      35.696  16.093   7.739  0.00  0.00     0.167 HD
ENDBRANCH  13  15
ENDBRANCH  12  13
BRANCH  12  17
HETATM   17  N   UNK N   1      34.084  17.341   9.565  0.00  0.00    -0.415 N 
HETATM   18  H   UNK N   1      34.615  16.490   9.750  0.00  0.00     0.150 HD
HETATM   19  H   UNK N   1      34.132  18.119  10.223  0.00  0.00     0.150 HD
ENDBRANCH  12  17
ENDBRANCH   1  12
BRANCH   1  20
HETATM   20  O   UNK N   1      32.445  15.287   7.696  0.00  0.00    -0.388 OA
HETATM   21  H   UNK N   1      32.349  14.408   8.093  0.00  0.00     0.210 HD
ENDBRANCH   1  20
TORSDOF 8
ENDMDL
