MODEL 1
REMARK VINA RESULT:      -8.4      0.000      0.000
REMARK  12 active torsions:
REMARK  status: ('A' for Active; 'I' for Inactive)
REMARK    1  A    between atoms: C_1  and  C_2 
REMARK    2  A    between atoms: C_3  and  C_5 
REMARK    3  A    between atoms: C_6  and  C_7 
REMARK    4  A    between atoms: C_8  and  C_10 
REMARK    5  A    between atoms: C_11  and  C_12 
REMARK    6  A    between atoms: C_13  and  C_14 
REMARK    7  A    between atoms: C_16  and  C_17 
REMARK    8  A    between atoms: C_18  and  C_19 
REMARK    9  A    between atoms: C_21  and  C_23 
REMARK   10  A    between atoms: C_27  and  O_29 
REMARK   11  A    between atoms: C_34  and  O_42 
REMARK   12  A    between atoms: C_35  and  C_37 
ROOT
HETATM    1  C   UNK N   1      27.829  16.147   3.351  0.00  0.00     0.001 C 
HETATM    2  C   UNK N   1      27.060  17.196   3.667  0.00  0.00     0.001 C 
ENDROOT
BRANCH   1   3
HETATM    3  C   UNK N   1      27.201  14.886   2.987  0.00  0.00     0.007 C 
HETATM    4  C   UNK N   1      26.755  14.026   3.901  0.00  0.00    -0.062 C 
HETATM    5  C   UNK N   1      26.949  14.241   5.378  0.00  0.00     0.048 C 
BRANCH   4   6
HETATM    6  C   UNK N   1      25.846  12.991   3.441  0.00  0.00     0.007 C 
HETATM    7  C   UNK N   1      24.544  13.257   3.335  0.00  0.00     0.001 C 
BRANCH   7   8
HETATM    8  C   UNK N   1      23.960  14.612   3.555  0.00  0.00     0.007 C 
HETATM    9  C   UNK N   1      23.137  14.936   4.576  0.00  0.00    -0.062 C 
HETATM   10  C   UNK N   1      22.637  16.337   4.655  0.00  0.00     0.048 C 
BRANCH   9  11
HETATM   11  C   UNK N   1      22.736  13.981   5.644  0.00  0.00     0.007 C 
HETATM   12  C   UNK N   1      22.955  14.294   6.919  0.00  0.00     0.009 C 
BRANCH  12  13
HETATM   13  C   UNK N   1      22.617  13.550   8.139  0.00  0.00    -0.041 C 
HETATM   14  C   UNK N   1      21.419  13.830   8.720  0.00  0.00    -0.006 C 
HETATM   15  C   UNK N   1      21.047  13.197   9.995  0.00  0.00     0.184 C 
HETATM   16  C   UNK N   1      20.457  14.809   8.097  0.00  0.00     0.052 C 
HETATM   17  O   UNK N   1      19.910  13.305  10.433  0.00  0.00    -0.290 OA
HETATM   18  C   UNK N   1      22.107  12.487  10.775  0.00  0.00     0.193 C 
HETATM   19  C   UNK N   1      22.925  11.645   9.819  0.00  0.00     0.053 C 
HETATM   20  C   UNK N   1      23.575  12.504   8.720  0.00  0.00    -0.017 C 
HETATM   21  C   UNK N   1      24.816  13.193   9.260  0.00  0.00     0.020 C 
HETATM   22  C   UNK N   1      23.999  11.526   7.636  0.00  0.00     0.020 C 
BRANCH  18  23
HETATM   23  O   UNK N   1      21.546  11.692  11.775  0.00  0.00    -0.388 OA
HETATM   24  H   UNK N   1      20.689  11.890  12.185  0.00  0.00     0.210 HD
ENDBRANCH  18  23
ENDBRANCH  12  13
ENDBRANCH   9  11
ENDBRANCH   7   8
ENDBRANCH   4   6
ENDBRANCH   1   3
BRANCH   2  25
HETATM   25  C   UNK N   1      27.689  18.458   4.026  0.00  0.00     0.007 C 
HETATM   26  C   UNK N   1      26.987  19.510   4.440  0.00  0.00    -0.062 C 
HETATM   27  C   UNK N   1      25.482  19.513   4.479  0.00  0.00     0.048 C 
BRANCH  26  28
HETATM   28  C   UNK N   1      27.721  20.575   5.099  0.00  0.00     0.007 C 
HETATM   29  C   UNK N   1      27.879  20.547   6.422  0.00  0.00     0.001 C 
BRANCH  29  30
HETATM   30  C   UNK N   1      27.437  19.409   7.280  0.00  0.00     0.007 C 
HETATM   31  C   UNK N   1      28.194  18.331   7.575  0.00  0.00    -0.062 C 
HETATM   32  C   UNK N   1      27.605  17.277   8.447  0.00  0.00     0.048 C 
BRANCH  31  33
HETATM   33  C   UNK N   1      29.598  18.159   7.108  0.00  0.00     0.007 C 
HETATM   34  C   UNK N   1      30.124  16.940   7.049  0.00  0.00     0.009 C 
BRANCH  34  35
HETATM   35  C   UNK N   1      31.451  16.511   6.591  0.00  0.00    -0.041 C 
HETATM   36  C   UNK N   1      32.504  16.787   7.407  0.00  0.00    -0.006 C 
HETATM   37  C   UNK N   1      32.302  17.443   8.749  0.00  0.00     0.052 C 
HETATM   38  C   UNK N   1      33.876  16.474   6.979  0.00  0.00     0.184 C 
HETATM   39  O   UNK N   1      34.808  16.557   7.769  0.00  0.00    -0.290 OA
HETATM   40  C   UNK N   1      34.116  16.129   5.544  0.00  0.00     0.193 C 
HETATM   41  C   UNK N   1      33.035  15.169   5.095  0.00  0.00     0.053 C 
HETATM   42  C   UNK N   1      31.631  15.778   5.257  0.00  0.00    -0.017 C 
HETATM   43  C   UNK N   1      31.338  16.731   4.110  0.00  0.00     0.020 C 
HETATM   44  C   UNK N   1      30.666  14.607   5.171  0.00  0.00     0.020 C 
BRANCH  40  45
HETATM   45  O   UNK N   1      35.379  15.564   5.368  0.00  0.00    -0.388 OA
HETATM   46  H   UNK N   1      35.679  14.783   5.858  0.00  0.00     0.210 HD
ENDBRANCH  40  45
ENDBRANCH  34  35
ENDBRANCH  31  33
ENDBRANCH  29  30
ENDBRANCH  26  28
ENDBRANCH   2  25
TORSDOF 12
ENDMDL
MODEL 2
REMARK VINA RESULT:      -8.4      1.646      3.565
REMARK  12 active torsions:
REMARK  status: ('A' for Active; 'I' for Inactive)
REMARK    1  A    between atoms: C_1  and  C_2 
REMARK    2  A    between atoms: C_3  and  C_5 
REMARK    3  A    between atoms: C_6  and  C_7 
REMARK    4  A    between atoms: C_8  and  C_10 
REMARK    5  A    between atoms: C_11  and  C_12 
REMARK    6  A    between atoms: C_13  and  C_14 
REMARK    7  A    between atoms: C_16  and  C_17 
REMARK    8  A    between atoms: C_18  and  C_19 
REMARK    9  A    between atoms: C_21  and  C_23 
REMARK   10  A    between atoms: C_27  and  O_29 
REMARK   11  A    between atoms: C_34  and  O_42 
REMARK   12  A    between atoms: C_35  and  C_37 
ROOT
HETATM    1  C   UNK N   1      22.904  18.239   5.296  0.00  0.00     0.001 C 
HETATM    2  C   UNK N   1      24.046  17.749   4.796  0.00  0.00     0.001 C 
ENDROOT
BRANCH   1   3
HETATM    3  C   UNK N   1      21.692  17.438   5.220  0.00  0.00     0.007 C 
HETATM    4  C   UNK N   1      20.874  17.484   4.171  0.00  0.00    -0.062 C 
HETATM    5  C   UNK N   1      21.084  18.435   3.023  0.00  0.00     0.048 C 
BRANCH   4   6
HETATM    6  C   UNK N   1      19.908  16.407   4.041  0.00  0.00     0.007 C 
HETATM    7  C   UNK N   1      20.230  15.312   3.353  0.00  0.00     0.001 C 
BRANCH   7   8
HETATM    8  C   UNK N   1      21.589  15.063   2.789  0.00  0.00     0.007 C 
HETATM    9  C   UNK N   1      22.580  14.411   3.435  0.00  0.00    -0.062 C 
HETATM   10  C   UNK N   1      23.883  14.245   2.733  0.00  0.00     0.048 C 
BRANCH   9  11
HETATM   11  C   UNK N   1      22.427  13.818   4.790  0.00  0.00     0.007 C 
HETATM   12  C   UNK N   1      23.078  14.356   5.819  0.00  0.00     0.009 C 
BRANCH  12  13
HETATM   13  C   UNK N   1      23.060  13.985   7.239  0.00  0.00    -0.041 C 
HETATM   14  C   UNK N   1      24.265  13.820   7.849  0.00  0.00    -0.006 C 
HETATM   15  C   UNK N   1      24.333  13.358   9.245  0.00  0.00     0.184 C 
HETATM   16  C   UNK N   1      25.555  14.077   7.114  0.00  0.00     0.052 C 
HETATM   17  O   UNK N   1      25.394  13.376   9.853  0.00  0.00    -0.290 OA
HETATM   18  C   UNK N   1      23.097  12.799   9.873  0.00  0.00     0.193 C 
HETATM   19  C   UNK N   1      21.929  13.694   9.516  0.00  0.00     0.053 C 
HETATM   20  C   UNK N   1      21.738  13.799   7.993  0.00  0.00    -0.017 C 
HETATM   21  C   UNK N   1      21.021  12.566   7.469  0.00  0.00     0.020 C 
HETATM   22  C   UNK N   1      20.841  15.007   7.777  0.00  0.00     0.020 C 
BRANCH  18  23
HETATM   23  O   UNK N   1      23.237  12.700  11.257  0.00  0.00    -0.388 OA
HETATM   24  H   UNK N   1      23.623  13.407  11.797  0.00  0.00     0.210 HD
ENDBRANCH  18  23
ENDBRANCH  12  13
ENDBRANCH   9  11
ENDBRANCH   7   8
ENDBRANCH   4   6
ENDBRANCH   1   3
BRANCH   2  25
HETATM   25  C   UNK N   1      25.258  18.549   4.875  0.00  0.00     0.007 C 
HETATM   26  C   UNK N   1      26.472  18.008   4.803  0.00  0.00    -0.062 C 
HETATM   27  C   UNK N   1      26.693  16.521   4.731  0.00  0.00     0.048 C 
BRANCH  26  28
HETATM   28  C   UNK N   1      27.580  18.908   4.538  0.00  0.00     0.007 C 
HETATM   29  C   UNK N   1      28.223  19.480   5.555  0.00  0.00     0.001 C 
BRANCH  29  30
HETATM   30  C   UNK N   1      27.945  19.164   6.987  0.00  0.00     0.007 C 
HETATM   31  C   UNK N   1      28.526  18.160   7.678  0.00  0.00    -0.062 C 
HETATM   32  C   UNK N   1      28.139  17.974   9.104  0.00  0.00     0.048 C 
BRANCH  31  33
HETATM   33  C   UNK N   1      29.560  17.257   7.102  0.00  0.00     0.007 C 
HETATM   34  C   UNK N   1      30.834  17.639   7.097  0.00  0.00     0.009 C 
BRANCH  34  35
HETATM   35  C   UNK N   1      32.027  16.922   6.632  0.00  0.00    -0.041 C 
HETATM   36  C   UNK N   1      32.200  16.820   5.286  0.00  0.00    -0.006 C 
HETATM   37  C   UNK N   1      31.243  17.474   4.323  0.00  0.00     0.052 C 
HETATM   38  C   UNK N   1      33.319  16.038   4.739  0.00  0.00     0.184 C 
HETATM   39  O   UNK N   1      33.584  16.083   3.544  0.00  0.00    -0.290 OA
HETATM   40  C   UNK N   1      34.074  15.132   5.658  0.00  0.00     0.193 C 
HETATM   41  C   UNK N   1      34.340  15.874   6.951  0.00  0.00     0.053 C 
HETATM   42  C   UNK N   1      33.032  16.326   7.624  0.00  0.00    -0.017 C 
HETATM   43  C   UNK N   1      32.391  15.161   8.359  0.00  0.00     0.020 C 
HETATM   44  C   UNK N   1      33.441  17.376   8.645  0.00  0.00     0.020 C 
BRANCH  40  45
HETATM   45  O   UNK N   1      35.272  14.713   5.078  0.00  0.00    -0.388 OA
HETATM   46  H   UNK N   1      35.674  13.851   5.265  0.00  0.00     0.210 HD
ENDBRANCH  40  45
ENDBRANCH  34  35
ENDBRANCH  31  33
ENDBRANCH  29  30
ENDBRANCH  26  28
ENDBRANCH   2  25
TORSDOF 12
ENDMDL
MODEL 3
REMARK VINA RESULT:      -8.3      3.514      5.910
REMARK  12 active torsions:
REMARK  status: ('A' for Active; 'I' for Inactive)
REMARK    1  A    between atoms: C_1  and  C_2 
REMARK    2  A    between atoms: C_3  and  C_5 
REMARK    3  A    between atoms: C_6  and  C_7 
REMARK    4  A    between atoms: C_8  and  C_10 
REMARK    5  A    between atoms: C_11  and  C_12 
REMARK    6  A    between atoms: C_13  and  C_14 
REMARK    7  A    between atoms: C_16  and  C_17 
REMARK    8  A    between atoms: C_18  and  C_19 
REMARK    9  A    between atoms: C_21  and  C_23 
REMARK   10  A    between atoms: C_27  and  O_29 
REMARK   11  A    between atoms: C_34  and  O_42 
REMARK   12  A    between atoms: C_35  and  C_37 
ROOT
HETATM    1  C   UNK N   1      24.343  14.387   0.740  0.00  0.00     0.001 C 
HETATM    2  C   UNK N   1      24.910  14.844   1.863  0.00  0.00     0.001 C 
ENDROOT
BRANCH   1   3
HETATM    3  C   UNK N   1      22.912  14.120   0.721  0.00  0.00     0.007 C 
HETATM    4  C   UNK N   1      22.419  12.886   0.788  0.00  0.00    -0.062 C 
HETATM    5  C   UNK N   1      23.296  11.662   0.792  0.00  0.00     0.048 C 
BRANCH   4   6
HETATM    6  C   UNK N   1      21.010  12.756   1.116  0.00  0.00     0.007 C 
HETATM    7  C   UNK N   1      20.646  12.503   2.373  0.00  0.00     0.001 C 
BRANCH   7   8
HETATM    8  C   UNK N   1      21.607  12.452   3.514  0.00  0.00     0.007 C 
HETATM    9  C   UNK N   1      21.988  13.523   4.243  0.00  0.00    -0.062 C 
HETATM   10  C   UNK N   1      22.958  13.305   5.353  0.00  0.00     0.048 C 
BRANCH   9  11
HETATM   11  C   UNK N   1      21.463  14.897   4.024  0.00  0.00     0.007 C 
HETATM   12  C   UNK N   1      22.297  15.867   3.658  0.00  0.00     0.009 C 
BRANCH  12  13
HETATM   13  C   UNK N   1      22.020  17.274   3.344  0.00  0.00    -0.041 C 
HETATM   14  C   UNK N   1      22.989  18.178   3.655  0.00  0.00    -0.006 C 
HETATM   15  C   UNK N   1      22.753  19.616   3.458  0.00  0.00     0.184 C 
HETATM   16  C   UNK N   1      24.311  17.739   4.230  0.00  0.00     0.052 C 
HETATM   17  O   UNK N   1      23.671  20.417   3.568  0.00  0.00    -0.290 OA
HETATM   18  C   UNK N   1      21.356  20.081   3.199  0.00  0.00     0.193 C 
HETATM   19  C   UNK N   1      20.719  19.150   2.188  0.00  0.00     0.053 C 
HETATM   20  C   UNK N   1      20.699  17.696   2.690  0.00  0.00    -0.017 C 
HETATM   21  C   UNK N   1      19.558  17.496   3.672  0.00  0.00     0.020 C 
HETATM   22  C   UNK N   1      20.432  16.844   1.459  0.00  0.00     0.020 C 
BRANCH  18  23
HETATM   23  O   UNK N   1      21.343  21.396   2.733  0.00  0.00    -0.388 OA
HETATM   24  H   UNK N   1      21.058  22.145   3.280  0.00  0.00     0.210 HD
ENDBRANCH  18  23
ENDBRANCH  12  13
ENDBRANCH   9  11
ENDBRANCH   7   8
ENDBRANCH   4   6
ENDBRANCH   1   3
BRANCH   2  25
HETATM   25  C   UNK N   1      26.339  15.114   1.880  0.00  0.00     0.007 C 
HETATM   26  C   UNK N   1      27.075  14.981   2.981  0.00  0.00    -0.062 C 
HETATM   27  C   UNK N   1      26.475  14.637   4.318  0.00  0.00     0.048 C 
BRANCH  26  28
HETATM   28  C   UNK N   1      28.515  14.929   2.810  0.00  0.00     0.007 C 
HETATM   29  C   UNK N   1      29.243  16.029   3.000  0.00  0.00     0.001 C 
BRANCH  29  30
HETATM   30  C   UNK N   1      28.674  17.316   3.497  0.00  0.00     0.007 C 
HETATM   31  C   UNK N   1      28.654  17.696   4.793  0.00  0.00    -0.062 C 
HETATM   32  C   UNK N   1      28.048  19.015   5.128  0.00  0.00     0.048 C 
BRANCH  31  33
HETATM   33  C   UNK N   1      29.242  16.887   5.896  0.00  0.00     0.007 C 
HETATM   34  C   UNK N   1      30.561  16.731   5.964  0.00  0.00     0.009 C 
BRANCH  34  35
HETATM   35  C   UNK N   1      31.373  16.025   6.962  0.00  0.00    -0.041 C 
HETATM   36  C   UNK N   1      31.733  14.745   6.671  0.00  0.00    -0.006 C 
HETATM   37  C   UNK N   1      31.368  14.110   5.355  0.00  0.00     0.052 C 
HETATM   38  C   UNK N   1      32.467  13.939   7.659  0.00  0.00     0.184 C 
HETATM   39  O   UNK N   1      32.943  12.856   7.346  0.00  0.00    -0.290 OA
HETATM   40  C   UNK N   1      32.550  14.436   9.067  0.00  0.00     0.193 C 
HETATM   41  C   UNK N   1      32.869  15.916   9.035  0.00  0.00     0.053 C 
HETATM   42  C   UNK N   1      31.800  16.710   8.265  0.00  0.00    -0.017 C 
HETATM   43  C   UNK N   1      30.580  16.935   9.143  0.00  0.00     0.020 C 
HETATM   44  C   UNK N   1      32.433  18.059   7.962  0.00  0.00     0.020 C 
BRANCH  40  45
HETATM   45  O   UNK N   1      33.521  13.740   9.788  0.00  0.00    -0.388 OA
HETATM   46  H   UNK N   1      33.636  13.838  10.746  0.00  0.00     0.210 HD
ENDBRANCH  40  45
ENDBRANCH  34  35
ENDBRANCH  31  33
ENDBRANCH  29  30
ENDBRANCH  26  28
ENDBRANCH   2  25
TORSDOF 12
ENDMDL
MODEL 4
REMARK VINA RESULT:      -8.3      3.605      9.939
REMARK  12 active torsions:
REMARK  status: ('A' for Active; 'I' for Inactive)
REMARK    1  A    between atoms: C_1  and  C_2 
REMARK    2  A    between atoms: C_3  and  C_5 
REMARK    3  A    between atoms: C_6  and  C_7 
REMARK    4  A    between atoms: C_8  and  C_10 
REMARK    5  A    between atoms: C_11  and  C_12 
REMARK    6  A    between atoms: C_13  and  C_14 
REMARK    7  A    between atoms: C_16  and  C_17 
REMARK    8  A    between atoms: C_18  and  C_19 
REMARK    9  A    between atoms: C_21  and  C_23 
REMARK   10  A    between atoms: C_27  and  O_29 
REMARK   11  A    between atoms: C_34  and  O_42 
REMARK   12  A    between atoms: C_35  and  C_37 
ROOT
HETATM    1  C   UNK N   1      24.415  13.741   1.771  0.00  0.00     0.001 C 
HETATM    2  C   UNK N   1      23.811  13.772   0.577  0.00  0.00     0.001 C 
ENDROOT
BRANCH   1   3
HETATM    3  C   UNK N   1      25.868  13.760   1.836  0.00  0.00     0.007 C 
HETATM    4  C   UNK N   1      26.555  14.880   2.053  0.00  0.00    -0.062 C 
HETATM    5  C   UNK N   1      25.893  16.228   2.153  0.00  0.00     0.048 C 
BRANCH   4   6
HETATM    6  C   UNK N   1      27.945  14.734   2.448  0.00  0.00     0.007 C 
HETATM    7  C   UNK N   1      28.271  14.771   3.739  0.00  0.00     0.001 C 
BRANCH   7   8
HETATM    8  C   UNK N   1      27.267  14.841   4.841  0.00  0.00     0.007 C 
HETATM    9  C   UNK N   1      27.391  15.612   5.943  0.00  0.00    -0.062 C 
HETATM   10  C   UNK N   1      26.297  15.569   6.954  0.00  0.00     0.048 C 
BRANCH   9  11
HETATM   11  C   UNK N   1      28.538  16.528   6.182  0.00  0.00     0.007 C 
HETATM   12  C   UNK N   1      29.707  16.027   6.573  0.00  0.00     0.009 C 
BRANCH  12  13
HETATM   13  C   UNK N   1      30.982  16.708   6.830  0.00  0.00    -0.041 C 
HETATM   14  C   UNK N   1      31.758  16.992   5.749  0.00  0.00    -0.006 C 
HETATM   15  C   UNK N   1      33.091  17.589   5.928  0.00  0.00     0.184 C 
HETATM   16  C   UNK N   1      31.293  16.681   4.350  0.00  0.00     0.052 C 
HETATM   17  O   UNK N   1      33.719  18.006   4.966  0.00  0.00    -0.290 OA
HETATM   18  C   UNK N   1      33.688  17.602   7.300  0.00  0.00     0.193 C 
HETATM   19  C   UNK N   1      32.620  18.030   8.285  0.00  0.00     0.053 C 
HETATM   20  C   UNK N   1      31.407  17.084   8.254  0.00  0.00    -0.017 C 
HETATM   21  C   UNK N   1      31.708  15.822   9.046  0.00  0.00     0.020 C 
HETATM   22  C   UNK N   1      30.286  17.836   8.952  0.00  0.00     0.020 C 
BRANCH  18  23
HETATM   23  O   UNK N   1      34.786  18.461   7.360  0.00  0.00    -0.388 OA
HETATM   24  H   UNK N   1      35.238  18.677   8.190  0.00  0.00     0.210 HD
ENDBRANCH  18  23
ENDBRANCH  12  13
ENDBRANCH   9  11
ENDBRANCH   7   8
ENDBRANCH   4   6
ENDBRANCH   1   3
BRANCH   2  25
HETATM   25  C   UNK N   1      22.358  13.757   0.513  0.00  0.00     0.007 C 
HETATM   26  C   UNK N   1      21.657  12.625   0.523  0.00  0.00    -0.062 C 
HETATM   27  C   UNK N   1      22.311  11.269   0.502  0.00  0.00     0.048 C 
BRANCH  26  28
HETATM   28  C   UNK N   1      20.239  12.730   0.810  0.00  0.00     0.007 C 
HETATM   29  C   UNK N   1      19.811  12.635   2.069  0.00  0.00     0.001 C 
BRANCH  29  30
HETATM   30  C   UNK N   1      20.727  12.537   3.243  0.00  0.00     0.007 C 
HETATM   31  C   UNK N   1      21.217  13.594   3.925  0.00  0.00    -0.062 C 
HETATM   32  C   UNK N   1      22.123  13.327   5.077  0.00  0.00     0.048 C 
BRANCH  31  33
HETATM   33  C   UNK N   1      20.869  15.007   3.612  0.00  0.00     0.007 C 
HETATM   34  C   UNK N   1      21.832  15.922   3.554  0.00  0.00     0.009 C 
BRANCH  34  35
HETATM   35  C   UNK N   1      21.751  17.351   3.229  0.00  0.00    -0.041 C 
HETATM   36  C   UNK N   1      22.763  18.144   3.678  0.00  0.00    -0.006 C 
HETATM   37  C   UNK N   1      23.943  17.564   4.414  0.00  0.00     0.052 C 
HETATM   38  C   UNK N   1      22.710  19.600   3.474  0.00  0.00     0.184 C 
HETATM   39  O   UNK N   1      23.686  20.297   3.716  0.00  0.00    -0.290 OA
HETATM   40  C   UNK N   1      21.417  20.214   3.042  0.00  0.00     0.193 C 
HETATM   41  C   UNK N   1      20.824  19.359   1.942  0.00  0.00     0.053 C 
HETATM   42  C   UNK N   1      20.582  17.915   2.414  0.00  0.00    -0.017 C 
HETATM   43  C   UNK N   1      19.306  17.839   3.237  0.00  0.00     0.020 C 
HETATM   44  C   UNK N   1      20.388  17.098   1.147  0.00  0.00     0.020 C 
BRANCH  40  45
HETATM   45  O   UNK N   1      21.607  21.523   2.598  0.00  0.00    -0.388 OA
HETATM   46  H   UNK N   1      21.683  22.278   3.201  0.00  0.00     0.210 HD
ENDBRANCH  40  45
ENDBRANCH  34  35
ENDBRANCH  31  33
ENDBRANCH  29  30
ENDBRANCH  26  28
ENDBRANCH   2  25
TORSDOF 12
ENDMDL
MODEL 5
REMARK VINA RESULT:      -8.2      2.732     10.409
REMARK  12 active torsions:
REMARK  status: ('A' for Active; 'I' for Inactive)
REMARK    1  A    between atoms: C_1  and  C_2 
REMARK    2  A    between atoms: C_3  and  C_5 
REMARK    3  A    between atoms: C_6  and  C_7 
REMARK    4  A    between atoms: C_8  and  C_10 
REMARK    5  A    between atoms: C_11  and  C_12 
REMARK    6  A    between atoms: C_13  and  C_14 
REMARK    7  A    between atoms: C_16  and  C_17 
REMARK    8  A    between atoms: C_18  and  C_19 
REMARK    9  A    between atoms: C_21  and  C_23 
REMARK   10  A    between atoms: C_27  and  O_29 
REMARK   11  A    between atoms: C_34  and  O_42 
REMARK   12  A    between atoms: C_35  and  C_37 
ROOT
HETATM    1  C   UNK N   1      24.562  14.670   6.824  0.00  0.00     0.001 C 
HETATM    2  C   UNK N   1      25.144  13.540   7.244  0.00  0.00     0.001 C 
ENDROOT
BRANCH   1   3
HETATM    3  C   UNK N   1      25.365  15.680   6.153  0.00  0.00     0.007 C 
HETATM    4  C   UNK N   1      24.880  16.436   5.170  0.00  0.00    -0.062 C 
HETATM    5  C   UNK N   1      23.496  16.243   4.608  0.00  0.00     0.048 C 
BRANCH   4   6
HETATM    6  C   UNK N   1      25.634  17.627   4.821  0.00  0.00     0.007 C 
HETATM    7  C   UNK N   1      26.571  17.562   3.877  0.00  0.00     0.001 C 
BRANCH   7   8
HETATM    8  C   UNK N   1      26.829  16.343   3.055  0.00  0.00     0.007 C 
HETATM    9  C   UNK N   1      28.056  15.861   2.762  0.00  0.00    -0.062 C 
HETATM   10  C   UNK N   1      28.144  14.630   1.927  0.00  0.00     0.048 C 
BRANCH   9  11
HETATM   11  C   UNK N   1      29.319  16.468   3.260  0.00  0.00     0.007 C 
HETATM   12  C   UNK N   1      29.900  15.972   4.350  0.00  0.00     0.009 C 
BRANCH  12  13
HETATM   13  C   UNK N   1      31.154  16.363   5.006  0.00  0.00    -0.041 C 
HETATM   14  C   UNK N   1      31.053  16.931   6.239  0.00  0.00    -0.006 C 
HETATM   15  C   UNK N   1      32.254  17.436   6.923  0.00  0.00     0.184 C 
HETATM   16  C   UNK N   1      29.719  17.085   6.922  0.00  0.00     0.052 C 
HETATM   17  O   UNK N   1      32.201  17.785   8.094  0.00  0.00    -0.290 OA
HETATM   18  C   UNK N   1      33.516  17.582   6.134  0.00  0.00     0.193 C 
HETATM   19  C   UNK N   1      33.698  16.344   5.282  0.00  0.00     0.053 C 
HETATM   20  C   UNK N   1      32.509  16.132   4.328  0.00  0.00    -0.017 C 
HETATM   21  C   UNK N   1      32.637  17.046   3.121  0.00  0.00     0.020 C 
HETATM   22  C   UNK N   1      32.617  14.691   3.856  0.00  0.00     0.020 C 
BRANCH  18  23
HETATM   23  O   UNK N   1      34.615  17.766   6.974  0.00  0.00    -0.388 OA
HETATM   24  H   UNK N   1      35.514  17.908   6.640  0.00  0.00     0.210 HD
ENDBRANCH  18  23
ENDBRANCH  12  13
ENDBRANCH   9  11
ENDBRANCH   7   8
ENDBRANCH   4   6
ENDBRANCH   1   3
BRANCH   2  25
HETATM   25  C   UNK N   1      24.340  12.529   7.912  0.00  0.00     0.007 C 
HETATM   26  C   UNK N   1      24.303  12.411   9.237  0.00  0.00    -0.062 C 
HETATM   27  C   UNK N   1      25.164  13.245  10.148  0.00  0.00     0.048 C 
BRANCH  26  28
HETATM   28  C   UNK N   1      23.220  11.624   9.799  0.00  0.00     0.007 C 
HETATM   29  C   UNK N   1      22.081  12.223  10.146  0.00  0.00     0.001 C 
BRANCH  29  30
HETATM   30  C   UNK N   1      21.798  13.665   9.887  0.00  0.00     0.007 C 
HETATM   31  C   UNK N   1      21.240  14.145   8.755  0.00  0.00    -0.062 C 
HETATM   32  C   UNK N   1      21.022  15.615   8.650  0.00  0.00     0.048 C 
BRANCH  31  33
HETATM   33  C   UNK N   1      20.795  13.282   7.626  0.00  0.00     0.007 C 
HETATM   34  C   UNK N   1      20.961  13.702   6.376  0.00  0.00     0.009 C 
BRANCH  34  35
HETATM   35  C   UNK N   1      20.648  13.028   5.110  0.00  0.00    -0.041 C 
HETATM   36  C   UNK N   1      19.627  13.543   4.373  0.00  0.00    -0.006 C 
HETATM   37  C   UNK N   1      18.900  14.789   4.808  0.00  0.00     0.052 C 
HETATM   38  C   UNK N   1      19.190  12.872   3.139  0.00  0.00     0.184 C 
HETATM   39  O   UNK N   1      18.397  13.416   2.382  0.00  0.00    -0.290 OA
HETATM   40  C   UNK N   1      19.677  11.483   2.871  0.00  0.00     0.193 C 
HETATM   41  C   UNK N   1      21.158  11.425   3.181  0.00  0.00     0.053 C 
HETATM   42  C   UNK N   1      21.447  11.805   4.644  0.00  0.00    -0.017 C 
HETATM   43  C   UNK N   1      21.153  10.628   5.558  0.00  0.00     0.020 C 
HETATM   44  C   UNK N   1      22.936  12.102   4.702  0.00  0.00     0.020 C 
BRANCH  40  45
HETATM   45  O   UNK N   1      19.438  11.114   1.546  0.00  0.00    -0.388 OA
HETATM   46  H   UNK N   1      18.977  10.297   1.303  0.00  0.00     0.210 HD
ENDBRANCH  40  45
ENDBRANCH  34  35
ENDBRANCH  31  33
ENDBRANCH  29  30
ENDBRANCH  26  28
ENDBRANCH   2  25
TORSDOF 12
ENDMDL
MODEL 6
REMARK VINA RESULT:      -8.2      2.814      5.043
REMARK  12 active torsions:
REMARK  status: ('A' for Active; 'I' for Inactive)
REMARK    1  A    between atoms: C_1  and  C_2 
REMARK    2  A    between atoms: C_3  and  C_5 
REMARK    3  A    between atoms: C_6  and  C_7 
REMARK    4  A    between atoms: C_8  and  C_10 
REMARK    5  A    between atoms: C_11  and  C_12 
REMARK    6  A    between atoms: C_13  and  C_14 
REMARK    7  A    between atoms: C_16  and  C_17 
REMARK    8  A    between atoms: C_18  and  C_19 
REMARK    9  A    between atoms: C_21  and  C_23 
REMARK   10  A    between atoms: C_27  and  O_29 
REMARK   11  A    between atoms: C_34  and  O_42 
REMARK   12  A    between atoms: C_35  and  C_37 
ROOT
HETATM    1  C   UNK N   1      25.105  13.686   7.069  0.00  0.00     0.001 C 
HETATM    2  C   UNK N   1      24.407  14.775   6.727  0.00  0.00     0.001 C 
ENDROOT
BRANCH   1   3
HETATM    3  C   UNK N   1      24.433  12.595   7.758  0.00  0.00     0.007 C 
HETATM    4  C   UNK N   1      24.452  12.473   9.084  0.00  0.00    -0.062 C 
HETATM    5  C   UNK N   1      25.248  13.394   9.969  0.00  0.00     0.048 C 
BRANCH   4   6
HETATM    6  C   UNK N   1      23.475  11.577   9.678  0.00  0.00     0.007 C 
HETATM    7  C   UNK N   1      22.320  12.066  10.128  0.00  0.00     0.001 C 
BRANCH   7   8
HETATM    8  C   UNK N   1      21.906  13.489   9.957  0.00  0.00     0.007 C 
HETATM    9  C   UNK N   1      21.252  13.973   8.879  0.00  0.00    -0.062 C 
HETATM   10  C   UNK N   1      20.909  15.423   8.861  0.00  0.00     0.048 C 
BRANCH   9  11
HETATM   11  C   UNK N   1      20.823  13.132   7.730  0.00  0.00     0.007 C 
HETATM   12  C   UNK N   1      20.910  13.615   6.494  0.00  0.00     0.009 C 
BRANCH  12  13
HETATM   13  C   UNK N   1      20.594  12.975   5.211  0.00  0.00    -0.041 C 
HETATM   14  C   UNK N   1      19.630  13.562   4.450  0.00  0.00    -0.006 C 
HETATM   15  C   UNK N   1      19.190  12.932   3.195  0.00  0.00     0.184 C 
HETATM   16  C   UNK N   1      18.971  14.848   4.877  0.00  0.00     0.052 C 
HETATM   17  O   UNK N   1      18.457  13.534   2.422  0.00  0.00    -0.290 OA
HETATM   18  C   UNK N   1      19.594  11.518   2.927  0.00  0.00     0.193 C 
HETATM   19  C   UNK N   1      21.058  11.360   3.281  0.00  0.00     0.053 C 
HETATM   20  C   UNK N   1      21.326  11.707   4.756  0.00  0.00    -0.017 C 
HETATM   21  C   UNK N   1      20.929  10.543   5.648  0.00  0.00     0.020 C 
HETATM   22  C   UNK N   1      22.829  11.907   4.862  0.00  0.00     0.020 C 
BRANCH  18  23
HETATM   23  O   UNK N   1      19.371  11.177   1.592  0.00  0.00    -0.388 OA
HETATM   24  H   UNK N   1      19.107  10.287   1.314  0.00  0.00     0.210 HD
ENDBRANCH  18  23
ENDBRANCH  12  13
ENDBRANCH   9  11
ENDBRANCH   7   8
ENDBRANCH   4   6
ENDBRANCH   1   3
BRANCH   2  25
HETATM   25  C   UNK N   1      25.079  15.864   6.035  0.00  0.00     0.007 C 
HETATM   26  C   UNK N   1      24.507  16.530   5.034  0.00  0.00    -0.062 C 
HETATM   27  C   UNK N   1      23.163  16.152   4.474  0.00  0.00     0.048 C 
BRANCH  26  28
HETATM   28  C   UNK N   1      25.106  17.798   4.660  0.00  0.00     0.007 C 
HETATM   29  C   UNK N   1      26.056  17.830   3.726  0.00  0.00     0.001 C 
BRANCH  29  30
HETATM   30  C   UNK N   1      26.478  16.633   2.941  0.00  0.00     0.007 C 
HETATM   31  C   UNK N   1      27.707  16.076   2.992  0.00  0.00    -0.062 C 
HETATM   32  C   UNK N   1      27.971  14.880   2.144  0.00  0.00     0.048 C 
BRANCH  31  33
HETATM   33  C   UNK N   1      28.797  16.568   3.879  0.00  0.00     0.007 C 
HETATM   34  C   UNK N   1      28.931  16.056   5.099  0.00  0.00     0.009 C 
BRANCH  34  35
HETATM   35  C   UNK N   1      29.934  16.340   6.132  0.00  0.00    -0.041 C 
HETATM   36  C   UNK N   1      29.535  17.103   7.186  0.00  0.00    -0.006 C 
HETATM   37  C   UNK N   1      28.110  17.574   7.316  0.00  0.00     0.052 C 
HETATM   38  C   UNK N   1      30.504  17.510   8.216  0.00  0.00     0.184 C 
HETATM   39  O   UNK N   1      30.125  18.044   9.249  0.00  0.00    -0.290 OA
HETATM   40  C   UNK N   1      31.962  17.327   7.937  0.00  0.00     0.193 C 
HETATM   41  C   UNK N   1      32.165  15.957   7.325  0.00  0.00     0.053 C 
HETATM   42  C   UNK N   1      31.361  15.791   6.024  0.00  0.00    -0.017 C 
HETATM   43  C   UNK N   1      32.081  16.473   4.872  0.00  0.00     0.020 C 
HETATM   44  C   UNK N   1      31.325  14.296   5.754  0.00  0.00     0.020 C 
BRANCH  40  45
HETATM   45  O   UNK N   1      32.717  17.461   9.103  0.00  0.00    -0.388 OA
HETATM   46  H   UNK N   1      32.508  18.109   9.793  0.00  0.00     0.210 HD
ENDBRANCH  40  45
ENDBRANCH  34  35
ENDBRANCH  31  33
ENDBRANCH  29  30
ENDBRANCH  26  28
ENDBRANCH   2  25
TORSDOF 12
ENDMDL
MODEL 7
REMARK VINA RESULT:      -8.2      2.270     10.096
REMARK  12 active torsions:
REMARK  status: ('A' for Active; 'I' for Inactive)
REMARK    1  A    between atoms: C_1  and  C_2 
REMARK    2  A    between atoms: C_3  and  C_5 
REMARK    3  A    between atoms: C_6  and  C_7 
REMARK    4  A    between atoms: C_8  and  C_10 
REMARK    5  A    between atoms: C_11  and  C_12 
REMARK    6  A    between atoms: C_13  and  C_14 
REMARK    7  A    between atoms: C_16  and  C_17 
REMARK    8  A    between atoms: C_18  and  C_19 
REMARK    9  A    between atoms: C_21  and  C_23 
REMARK   10  A    between atoms: C_27  and  O_29 
REMARK   11  A    between atoms: C_34  and  O_42 
REMARK   12  A    between atoms: C_35  and  C_37 
ROOT
HETATM    1  C   UNK N   1      24.960  14.943   1.916  0.00  0.00     0.001 C 
HETATM    2  C   UNK N   1      24.328  14.549   0.804  0.00  0.00     0.001 C 
ENDROOT
BRANCH   1   3
HETATM    3  C   UNK N   1      26.340  15.396   1.829  0.00  0.00     0.007 C 
HETATM    4  C   UNK N   1      27.242  15.109   2.765  0.00  0.00    -0.062 C 
HETATM    5  C   UNK N   1      26.888  14.380   4.034  0.00  0.00     0.048 C 
BRANCH   4   6
HETATM    6  C   UNK N   1      28.639  15.298   2.414  0.00  0.00     0.007 C 
HETATM    7  C   UNK N   1      29.307  16.342   2.903  0.00  0.00     0.001 C 
BRANCH   7   8
HETATM    8  C   UNK N   1      28.733  17.293   3.900  0.00  0.00     0.007 C 
HETATM    9  C   UNK N   1      29.134  17.388   5.187  0.00  0.00    -0.062 C 
HETATM   10  C   UNK N   1      28.459  18.391   6.057  0.00  0.00     0.048 C 
BRANCH   9  11
HETATM   11  C   UNK N   1      30.236  16.576   5.768  0.00  0.00     0.007 C 
HETATM   12  C   UNK N   1      31.467  17.079   5.816  0.00  0.00     0.009 C 
BRANCH  12  13
HETATM   13  C   UNK N   1      32.697  16.500   6.371  0.00  0.00    -0.041 C 
HETATM   14  C   UNK N   1      33.526  15.863   5.500  0.00  0.00    -0.006 C 
HETATM   15  C   UNK N   1      34.731  15.177   5.990  0.00  0.00     0.184 C 
HETATM   16  C   UNK N   1      33.226  15.820   4.024  0.00  0.00     0.052 C 
HETATM   17  O   UNK N   1      35.569  14.756   5.205  0.00  0.00    -0.290 OA
HETATM   18  C   UNK N   1      34.869  14.938   7.460  0.00  0.00     0.193 C 
HETATM   19  C   UNK N   1      34.470  16.203   8.192  0.00  0.00     0.053 C 
HETATM   20  C   UNK N   1      33.024  16.617   7.864  0.00  0.00    -0.017 C 
HETATM   21  C   UNK N   1      32.045  15.779   8.668  0.00  0.00     0.020 C 
HETATM   22  C   UNK N   1      32.903  18.064   8.312  0.00  0.00     0.020 C 
BRANCH  18  23
HETATM   23  O   UNK N   1      36.173  14.570   7.789  0.00  0.00    -0.388 OA
HETATM   24  H   UNK N   1      36.876  14.478   7.127  0.00  0.00     0.210 HD
ENDBRANCH  18  23
ENDBRANCH  12  13
ENDBRANCH   9  11
ENDBRANCH   7   8
ENDBRANCH   4   6
ENDBRANCH   1   3
BRANCH   2  25
HETATM   25  C   UNK N   1      22.947  14.100   0.891  0.00  0.00     0.007 C 
HETATM   26  C   UNK N   1      22.547  12.930   0.400  0.00  0.00    -0.062 C 
HETATM   27  C   UNK N   1      23.465  12.020  -0.371  0.00  0.00     0.048 C 
BRANCH  26  28
HETATM   28  C   UNK N   1      21.257  12.434   0.846  0.00  0.00     0.007 C 
HETATM   29  C   UNK N   1      21.191  11.624   1.902  0.00  0.00     0.001 C 
BRANCH  29  30
HETATM   30  C   UNK N   1      22.372  11.274   2.745  0.00  0.00     0.007 C 
HETATM   31  C   UNK N   1      22.799  11.994   3.804  0.00  0.00    -0.062 C 
HETATM   32  C   UNK N   1      23.997  11.510   4.544  0.00  0.00     0.048 C 
BRANCH  31  33
HETATM   33  C   UNK N   1      22.114  13.222   4.294  0.00  0.00     0.007 C 
HETATM   34  C   UNK N   1      22.771  14.070   5.080  0.00  0.00     0.009 C 
BRANCH  34  35
HETATM   35  C   UNK N   1      22.336  15.350   5.651  0.00  0.00    -0.041 C 
HETATM   36  C   UNK N   1      21.717  15.307   6.862  0.00  0.00    -0.006 C 
HETATM   37  C   UNK N   1      21.550  14.009   7.609  0.00  0.00     0.052 C 
HETATM   38  C   UNK N   1      21.168  16.534   7.459  0.00  0.00     0.184 C 
HETATM   39  O   UNK N   1      20.768  16.538   8.616  0.00  0.00    -0.290 OA
HETATM   40  C   UNK N   1      21.040  17.751   6.600  0.00  0.00     0.193 C 
HETATM   41  C   UNK N   1      22.313  17.905   5.793  0.00  0.00     0.053 C 
HETATM   42  C   UNK N   1      22.580  16.672   4.913  0.00  0.00    -0.017 C 
HETATM   43  C   UNK N   1      21.716  16.723   3.664  0.00  0.00     0.020 C 
HETATM   44  C   UNK N   1      24.038  16.775   4.497  0.00  0.00     0.020 C 
BRANCH  40  45
HETATM   45  O   UNK N   1      20.808  18.889   7.373  0.00  0.00    -0.388 OA
HETATM   46  H   UNK N   1      20.539  19.739   6.991  0.00  0.00     0.210 HD
ENDBRANCH  40  45
ENDBRANCH  34  35
ENDBRANCH  31  33
ENDBRANCH  29  30
ENDBRANCH  26  28
ENDBRANCH   2  25
TORSDOF 12
ENDMDL
MODEL 8
REMARK VINA RESULT:      -8.2      2.243      4.602
REMARK  12 active torsions:
REMARK  status: ('A' for Active; 'I' for Inactive)
REMARK    1  A    between atoms: C_1  and  C_2 
REMARK    2  A    between atoms: C_3  and  C_5 
REMARK    3  A    between atoms: C_6  and  C_7 
REMARK    4  A    between atoms: C_8  and  C_10 
REMARK    5  A    between atoms: C_11  and  C_12 
REMARK    6  A    between atoms: C_13  and  C_14 
REMARK    7  A    between atoms: C_16  and  C_17 
REMARK    8  A    between atoms: C_18  and  C_19 
REMARK    9  A    between atoms: C_21  and  C_23 
REMARK   10  A    between atoms: C_27  and  O_29 
REMARK   11  A    between atoms: C_34  and  O_42 
REMARK   12  A    between atoms: C_35  and  C_37 
ROOT
HETATM    1  C   UNK N   1      24.172  14.696   0.994  0.00  0.00     0.001 C 
HETATM    2  C   UNK N   1      25.064  14.372   1.938  0.00  0.00     0.001 C 
ENDROOT
BRANCH   1   3
HETATM    3  C   UNK N   1      22.801  14.225   1.117  0.00  0.00     0.007 C 
HETATM    4  C   UNK N   1      22.386  13.095   0.548  0.00  0.00    -0.062 C 
HETATM    5  C   UNK N   1      23.269  12.265  -0.344  0.00  0.00     0.048 C 
BRANCH   4   6
HETATM    6  C   UNK N   1      21.126  12.545   1.019  0.00  0.00     0.007 C 
HETATM    7  C   UNK N   1      21.124  11.663   2.017  0.00  0.00     0.001 C 
BRANCH   7   8
HETATM    8  C   UNK N   1      22.348  11.275   2.777  0.00  0.00     0.007 C 
HETATM    9  C   UNK N   1      22.807  11.920   3.872  0.00  0.00    -0.062 C 
HETATM   10  C   UNK N   1      24.048  11.407   4.517  0.00  0.00     0.048 C 
BRANCH   9  11
HETATM   11  C   UNK N   1      22.120  13.086   4.489  0.00  0.00     0.007 C 
HETATM   12  C   UNK N   1      22.841  14.112   4.933  0.00  0.00     0.009 C 
BRANCH  12  13
HETATM   13  C   UNK N   1      22.402  15.378   5.533  0.00  0.00    -0.041 C 
HETATM   14  C   UNK N   1      21.795  15.305   6.749  0.00  0.00    -0.006 C 
HETATM   15  C   UNK N   1      21.243  16.517   7.376  0.00  0.00     0.184 C 
HETATM   16  C   UNK N   1      21.646  13.992   7.472  0.00  0.00     0.052 C 
HETATM   17  O   UNK N   1      20.856  16.495   8.536  0.00  0.00    -0.290 OA
HETATM   18  C   UNK N   1      21.097  17.749   6.541  0.00  0.00     0.193 C 
HETATM   19  C   UNK N   1      22.359  17.929   5.724  0.00  0.00     0.053 C 
HETATM   20  C   UNK N   1      22.628  16.714   4.818  0.00  0.00    -0.017 C 
HETATM   21  C   UNK N   1      21.752  16.783   3.578  0.00  0.00     0.020 C 
HETATM   22  C   UNK N   1      24.081  16.838   4.390  0.00  0.00     0.020 C 
BRANCH  18  23
HETATM   23  O   UNK N   1      20.862  18.870   7.337  0.00  0.00    -0.388 OA
HETATM   24  H   UNK N   1      20.229  19.563   7.095  0.00  0.00     0.210 HD
ENDBRANCH  18  23
ENDBRANCH  12  13
ENDBRANCH   9  11
ENDBRANCH   7   8
ENDBRANCH   4   6
ENDBRANCH   1   3
BRANCH   2  25
HETATM   25  C   UNK N   1      26.434  14.847   1.817  0.00  0.00     0.007 C 
HETATM   26  C   UNK N   1      27.359  14.591   2.739  0.00  0.00    -0.062 C 
HETATM   27  C   UNK N   1      27.044  13.875   4.025  0.00  0.00     0.048 C 
BRANCH  26  28
HETATM   28  C   UNK N   1      28.744  14.799   2.358  0.00  0.00     0.007 C 
HETATM   29  C   UNK N   1      29.350  15.944   2.670  0.00  0.00     0.001 C 
BRANCH  29  30
HETATM   30  C   UNK N   1      28.718  17.008   3.504  0.00  0.00     0.007 C 
HETATM   31  C   UNK N   1      29.057  17.286   4.781  0.00  0.00    -0.062 C 
HETATM   32  C   UNK N   1      28.328  18.382   5.478  0.00  0.00     0.048 C 
BRANCH  31  33
HETATM   33  C   UNK N   1      30.146  16.582   5.514  0.00  0.00     0.007 C 
HETATM   34  C   UNK N   1      31.249  17.247   5.844  0.00  0.00     0.009 C 
BRANCH  34  35
HETATM   35  C   UNK N   1      32.429  16.796   6.592  0.00  0.00    -0.041 C 
HETATM   36  C   UNK N   1      33.458  16.279   5.867  0.00  0.00    -0.006 C 
HETATM   37  C   UNK N   1      33.411  16.237   4.362  0.00  0.00     0.052 C 
HETATM   38  C   UNK N   1      34.637  15.720   6.547  0.00  0.00     0.184 C 
HETATM   39  O   UNK N   1      35.635  15.413   5.909  0.00  0.00    -0.290 OA
HETATM   40  C   UNK N   1      34.557  15.463   8.018  0.00  0.00     0.193 C 
HETATM   41  C   UNK N   1      33.903  16.658   8.679  0.00  0.00     0.053 C 
HETATM   42  C   UNK N   1      32.493  16.915   8.119  0.00  0.00    -0.017 C 
HETATM   43  C   UNK N   1      31.497  15.953   8.745  0.00  0.00     0.020 C 
HETATM   44  C   UNK N   1      32.134  18.328   8.548  0.00  0.00     0.020 C 
BRANCH  40  45
HETATM   45  O   UNK N   1      35.825  15.237   8.557  0.00  0.00    -0.388 OA
HETATM   46  H   UNK N   1      36.640  15.537   8.128  0.00  0.00     0.210 HD
ENDBRANCH  40  45
ENDBRANCH  34  35
ENDBRANCH  31  33
ENDBRANCH  29  30
ENDBRANCH  26  28
ENDBRANCH   2  25
TORSDOF 12
ENDMDL
MODEL 9
REMARK VINA RESULT:      -8.1     13.602     17.070
REMARK  12 active torsions:
REMARK  status: ('A' for Active; 'I' for Inactive)
REMARK    1  A    between atoms: C_1  and  C_2 
REMARK    2  A    between atoms: C_3  and  C_5 
REMARK    3  A    between atoms: C_6  and  C_7 
REMARK    4  A    between atoms: C_8  and  C_10 
REMARK    5  A    between atoms: C_11  and  C_12 
REMARK    6  A    between atoms: C_13  and  C_14 
REMARK    7  A    between atoms: C_16  and  C_17 
REMARK    8  A    between atoms: C_18  and  C_19 
REMARK    9  A    between atoms: C_21  and  C_23 
REMARK   10  A    between atoms: C_27  and  O_29 
REMARK   11  A    between atoms: C_34  and  O_42 
REMARK   12  A    between atoms: C_35  and  C_37 
ROOT
HETATM    1  C   UNK N   1      29.579  23.255  -5.037  0.00  0.00     0.001 C 
HETATM    2  C   UNK N   1      29.522  22.748  -3.800  0.00  0.00     0.001 C 
ENDROOT
BRANCH   1   3
HETATM    3  C   UNK N   1      28.343  23.530  -5.753  0.00  0.00     0.007 C 
HETATM    4  C   UNK N   1      27.926  22.774  -6.767  0.00  0.00    -0.062 C 
HETATM    5  C   UNK N   1      28.742  21.635  -7.316  0.00  0.00     0.048 C 
BRANCH   4   6
HETATM    6  C   UNK N   1      26.537  22.918  -7.168  0.00  0.00     0.007 C 
HETATM    7  C   UNK N   1      26.233  23.641  -8.245  0.00  0.00     0.001 C 
BRANCH   7   8
HETATM    8  C   UNK N   1      27.257  24.234  -9.154  0.00  0.00     0.007 C 
HETATM    9  C   UNK N   1      27.580  25.546  -9.192  0.00  0.00    -0.062 C 
HETATM   10  C   UNK N   1      28.626  25.981 -10.160  0.00  0.00     0.048 C 
BRANCH   9  11
HETATM   11  C   UNK N   1      26.976  26.568  -8.297  0.00  0.00     0.007 C 
HETATM   12  C   UNK N   1      27.468  26.740  -7.072  0.00  0.00     0.009 C 
BRANCH  12  13
HETATM   13  C   UNK N   1      27.079  27.698  -6.030  0.00  0.00    -0.041 C 
HETATM   14  C   UNK N   1      27.671  28.923  -6.067  0.00  0.00    -0.006 C 
HETATM   15  C   UNK N   1      27.406  29.907  -5.006  0.00  0.00     0.184 C 
HETATM   16  C   UNK N   1      28.628  29.295  -7.169  0.00  0.00     0.052 C 
HETATM   17  O   UNK N   1      27.791  31.062  -5.121  0.00  0.00    -0.290 OA
HETATM   18  C   UNK N   1      26.726  29.444  -3.757  0.00  0.00     0.193 C 
HETATM   19  C   UNK N   1      25.572  28.544  -4.143  0.00  0.00     0.053 C 
HETATM   20  C   UNK N   1      26.047  27.328  -4.958  0.00  0.00    -0.017 C 
HETATM   21  C   UNK N   1      26.630  26.274  -4.033  0.00  0.00     0.020 C 
HETATM   22  C   UNK N   1      24.798  26.761  -5.611  0.00  0.00     0.020 C 
BRANCH  18  23
HETATM   23  O   UNK N   1      26.275  30.527  -3.001  0.00  0.00    -0.388 OA
HETATM   24  H   UNK N   1      26.867  31.218  -2.667  0.00  0.00     0.210 HD
ENDBRANCH  18  23
ENDBRANCH  12  13
ENDBRANCH   9  11
ENDBRANCH   7   8
ENDBRANCH   4   6
ENDBRANCH   1   3
BRANCH   2  25
HETATM   25  C   UNK N   1      30.758  22.477  -3.083  0.00  0.00     0.007 C 
HETATM   26  C   UNK N   1      31.427  21.335  -3.225  0.00  0.00    -0.062 C 
HETATM   27  C   UNK N   1      30.911  20.194  -4.061  0.00  0.00     0.048 C 
BRANCH  26  28
HETATM   28  C   UNK N   1      32.799  21.311  -2.752  0.00  0.00     0.007 C 
HETATM   29  C   UNK N   1      33.801  21.324  -3.632  0.00  0.00     0.001 C 
BRANCH  29  30
HETATM   30  C   UNK N   1      33.602  21.477  -5.103  0.00  0.00     0.007 C 
HETATM   31  C   UNK N   1      33.326  22.644  -5.723  0.00  0.00    -0.062 C 
HETATM   32  C   UNK N   1      33.155  22.629  -7.202  0.00  0.00     0.048 C 
BRANCH  31  33
HETATM   33  C   UNK N   1      33.225  23.949  -5.012  0.00  0.00     0.007 C 
HETATM   34  C   UNK N   1      33.209  25.078  -5.714  0.00  0.00     0.009 C 
BRANCH  34  35
HETATM   35  C   UNK N   1      33.077  26.466  -5.257  0.00  0.00    -0.041 C 
HETATM   36  C   UNK N   1      34.222  27.193  -5.154  0.00  0.00    -0.006 C 
HETATM   37  C   UNK N   1      35.554  26.616  -5.558  0.00  0.00     0.052 C 
HETATM   38  C   UNK N   1      34.186  28.562  -4.615  0.00  0.00     0.184 C 
HETATM   39  O   UNK N   1      35.174  29.281  -4.680  0.00  0.00    -0.290 OA
HETATM   40  C   UNK N   1      32.945  29.023  -3.920  0.00  0.00     0.193 C 
HETATM   41  C   UNK N   1      31.747  28.591  -4.740  0.00  0.00     0.053 C 
HETATM   42  C   UNK N   1      31.705  27.064  -4.921  0.00  0.00    -0.017 C 
HETATM   43  C   UNK N   1      31.156  26.402  -3.668  0.00  0.00     0.020 C 
HETATM   44  C   UNK N   1      30.734  26.815  -6.064  0.00  0.00     0.020 C 
BRANCH  40  45
HETATM   45  O   UNK N   1      32.950  30.408  -3.751  0.00  0.00    -0.388 OA
HETATM   46  H   UNK N   1      32.146  30.948  -3.803  0.00  0.00     0.210 HD
ENDBRANCH  40  45
ENDBRANCH  34  35
ENDBRANCH  31  33
ENDBRANCH  29  30
ENDBRANCH  26  28
ENDBRANCH   2  25
TORSDOF 12
ENDMDL
