MODEL 1
REMARK VINA RESULT:      -3.8      0.000      0.000
REMARK  2 active torsions:
REMARK  status: ('A' for Active; 'I' for Inactive)
REMARK    1  A    between atoms: C_3  and  C_2 
REMARK    2  A    between atoms: C_6  and  C_2 
ROOT
HETATM    1  C   UNK N   1      37.309  15.442  15.612  0.00  0.00     0.069 C 
HETATM    2  C   UNK N   1      35.831  14.207  12.476  0.00  0.00     0.138 A 
HETATM    3  C   UNK N   1      36.607  14.622  14.587  0.00  0.00     0.018 A 
HETATM    4  C   UNK N   1      36.012  13.365  14.829  0.00  0.00     0.007 A 
HETATM    5  N   UNK N   1      36.498  15.069  13.287  0.00  0.00    -0.363 N 
ATOM      6  HN  UNK N   1      36.879  15.959  12.966  1.00  0.00     0.165 HD
HETATM    7  S   UNK N   1      35.381  12.892  13.379  0.00  0.00    -0.087 SA
ENDROOT
BRANCH   4   8
HETATM    8  C   UNK N   1      35.920  12.551  16.094  0.00  0.00     0.063 C 
BRANCH   8   9
HETATM    9  C   UNK N   1      34.756  12.943  16.986  0.00  0.00     0.119 C 
HETATM   10 Cl   UNK N   1      35.295  13.992  18.312  0.00  0.00    -0.130 Cl
ENDBRANCH   8   9
ENDBRANCH   4   8
TORSDOF 2
ENDMDL
MODEL 2
REMARK VINA RESULT:      -3.8      1.956      2.695
REMARK  2 active torsions:
REMARK  status: ('A' for Active; 'I' for Inactive)
REMARK    1  A    between atoms: C_3  and  C_2 
REMARK    2  A    between atoms: C_6  and  C_2 
ROOT
HETATM    1  C   UNK N   1      33.765  10.694  14.345  0.00  0.00     0.069 C 
HETATM    2  C   UNK N   1      35.327  13.464  12.492  0.00  0.00     0.138 A 
HETATM    3  C   UNK N   1      34.568  11.889  13.967  0.00  0.00     0.018 A 
HETATM    4  C   UNK N   1      35.395  12.617  14.849  0.00  0.00     0.007 A 
HETATM    5  N   UNK N   1      34.543  12.370  12.674  0.00  0.00    -0.363 N 
ATOM      6  HN  UNK N   1      33.990  11.946  11.929  1.00  0.00     0.165 HD
HETATM    7  S   UNK N   1      36.048  13.829  13.939  0.00  0.00    -0.087 SA
ENDROOT
BRANCH   4   8
HETATM    8  C   UNK N   1      35.685  12.413  16.314  0.00  0.00     0.063 C 
BRANCH   8   9
HETATM    9  C   UNK N   1      34.893  13.335  17.225  0.00  0.00     0.119 C 
HETATM   10 Cl   UNK N   1      35.224  12.980  18.932  0.00  0.00    -0.130 Cl
ENDBRANCH   8   9
ENDBRANCH   4   8
TORSDOF 2
ENDMDL
MODEL 3
REMARK VINA RESULT:      -3.6      9.479     10.485
REMARK  2 active torsions:
REMARK  status: ('A' for Active; 'I' for Inactive)
REMARK    1  A    between atoms: C_3  and  C_2 
REMARK    2  A    between atoms: C_6  and  C_2 
ROOT
HETATM    1  C   UNK N   1      34.482  18.317   8.220  0.00  0.00     0.069 C 
HETATM    2  C   UNK N   1      31.041  17.038   8.478  0.00  0.00     0.138 A 
HETATM    3  C   UNK N   1      33.139  17.755   7.914  0.00  0.00     0.018 A 
HETATM    4  C   UNK N   1      32.693  17.385   6.627  0.00  0.00     0.007 A 
HETATM    5  N   UNK N   1      32.216  17.556   8.921  0.00  0.00    -0.363 N 
ATOM      6  HN  UNK N   1      32.398  17.777   9.900  1.00  0.00     0.165 HD
HETATM    7  S   UNK N   1      31.154  16.828   6.838  0.00  0.00    -0.087 SA
ENDROOT
BRANCH   4   8
HETATM    8  C   UNK N   1      33.391  17.447   5.293  0.00  0.00     0.063 C 
BRANCH   8   9
HETATM    9  C   UNK N   1      32.440  17.540   4.112  0.00  0.00     0.119 C 
HETATM   10 Cl   UNK N   1      32.928  16.433   2.814  0.00  0.00    -0.130 Cl
ENDBRANCH   8   9
ENDBRANCH   4   8
TORSDOF 2
ENDMDL
MODEL 4
REMARK VINA RESULT:      -3.6     14.399     15.176
REMARK  2 active torsions:
REMARK  status: ('A' for Active; 'I' for Inactive)
REMARK    1  A    between atoms: C_3  and  C_2 
REMARK    2  A    between atoms: C_6  and  C_2 
ROOT
HETATM    1  C   UNK N   1      20.318  12.187  11.412  0.00  0.00     0.069 C 
HETATM    2  C   UNK N   1      23.985  11.898  11.558  0.00  0.00     0.138 A 
HETATM    3  C   UNK N   1      21.766  12.157  11.066  0.00  0.00     0.018 A 
HETATM    4  C   UNK N   1      22.292  12.389   9.777  0.00  0.00     0.007 A 
HETATM    5  N   UNK N   1      22.713  11.888  12.034  0.00  0.00    -0.363 N 
ATOM      6  HN  UNK N   1      22.480  11.701  13.009  1.00  0.00     0.165 HD
HETATM    7  S   UNK N   1      23.928  12.241   9.938  0.00  0.00    -0.087 SA
ENDROOT
BRANCH   4   8
HETATM    8  C   UNK N   1      21.598  12.710   8.478  0.00  0.00     0.063 C 
BRANCH   8   9
HETATM    9  C   UNK N   1      21.699  14.172   8.079  0.00  0.00     0.119 C 
HETATM   10 Cl   UNK N   1      20.752  15.197   9.175  0.00  0.00    -0.130 Cl
ENDBRANCH   8   9
ENDBRANCH   4   8
TORSDOF 2
ENDMDL
MODEL 5
REMARK VINA RESULT:      -3.6     12.750     14.115
REMARK  2 active torsions:
REMARK  status: ('A' for Active; 'I' for Inactive)
REMARK    1  A    between atoms: C_3  and  C_2 
REMARK    2  A    between atoms: C_6  and  C_2 
ROOT
HETATM    1  C   UNK N   1      26.728  21.259   6.759  0.00  0.00     0.069 C 
HETATM    2  C   UNK N   1      28.193  18.240   8.270  0.00  0.00     0.138 A 
HETATM    3  C   UNK N   1      27.401  19.948   6.972  0.00  0.00     0.018 A 
HETATM    4  C   UNK N   1      27.916  19.129   5.945  0.00  0.00     0.007 A 
HETATM    5  N   UNK N   1      27.562  19.442   8.246  0.00  0.00    -0.363 N 
ATOM      6  HN  UNK N   1      27.240  19.924   9.085  1.00  0.00     0.165 HD
HETATM    7  S   UNK N   1      28.548  17.811   6.709  0.00  0.00    -0.087 SA
ENDROOT
BRANCH   4   8
HETATM    8  C   UNK N   1      27.935  19.327   4.451  0.00  0.00     0.063 C 
BRANCH   8   9
HETATM    9  C   UNK N   1      26.596  19.062   3.785  0.00  0.00     0.119 C 
HETATM   10 Cl   UNK N   1      25.993  20.517   2.967  0.00  0.00    -0.130 Cl
ENDBRANCH   8   9
ENDBRANCH   4   8
TORSDOF 2
ENDMDL
MODEL 6
REMARK VINA RESULT:      -3.5     13.563     14.323
REMARK  2 active torsions:
REMARK  status: ('A' for Active; 'I' for Inactive)
REMARK    1  A    between atoms: C_3  and  C_2 
REMARK    2  A    between atoms: C_6  and  C_2 
ROOT
HETATM    1  C   UNK N   1      24.962  13.421   8.681  0.00  0.00     0.069 C 
HETATM    2  C   UNK N   1      24.113  11.935  11.940  0.00  0.00     0.138 A 
HETATM    3  C   UNK N   1      24.231  12.877   9.859  0.00  0.00     0.018 A 
HETATM    4  C   UNK N   1      22.826  12.801   9.972  0.00  0.00     0.007 A 
HETATM    5  N   UNK N   1      24.923  12.396  10.951  0.00  0.00    -0.363 N 
ATOM      6  HN  UNK N   1      25.941  12.387  11.011  1.00  0.00     0.165 HD
HETATM    7  S   UNK N   1      22.541  12.128  11.451  0.00  0.00    -0.087 SA
ENDROOT
BRANCH   4   8
HETATM    8  C   UNK N   1      21.742  13.215   9.011  0.00  0.00     0.063 C 
BRANCH   8   9
HETATM    9  C   UNK N   1      21.091  14.541   9.364  0.00  0.00     0.119 C 
HETATM   10 Cl   UNK N   1      21.193  15.681   8.007  0.00  0.00    -0.130 Cl
ENDBRANCH   8   9
ENDBRANCH   4   8
TORSDOF 2
ENDMDL
MODEL 7
REMARK VINA RESULT:      -3.4      9.634     10.699
REMARK  2 active torsions:
REMARK  status: ('A' for Active; 'I' for Inactive)
REMARK    1  A    between atoms: C_3  and  C_2 
REMARK    2  A    between atoms: C_6  and  C_2 
ROOT
HETATM    1  C   UNK N   1      32.492  17.816   8.354  0.00  0.00     0.069 C 
HETATM    2  C   UNK N   1      29.022  18.373   9.447  0.00  0.00     0.138 A 
HETATM    3  C   UNK N   1      31.006  17.831   8.447  0.00  0.00     0.018 A 
HETATM    4  C   UNK N   1      30.133  17.243   7.507  0.00  0.00     0.007 A 
HETATM    5  N   UNK N   1      30.377  18.448   9.509  0.00  0.00    -0.363 N 
ATOM      6  HN  UNK N   1      30.879  18.914  10.264  1.00  0.00     0.165 HD
HETATM    7  S   UNK N   1      28.612  17.540   8.074  0.00  0.00    -0.087 SA
ENDROOT
BRANCH   4   8
HETATM    8  C   UNK N   1      30.426  16.490   6.235  0.00  0.00     0.063 C 
BRANCH   8   9
HETATM    9  C   UNK N   1      30.555  17.385   5.015  0.00  0.00     0.119 C 
HETATM   10 Cl   UNK N   1      32.260  17.625   4.580  0.00  0.00    -0.130 Cl
ENDBRANCH   8   9
ENDBRANCH   4   8
TORSDOF 2
ENDMDL
MODEL 8
REMARK VINA RESULT:      -3.4      4.378      5.152
REMARK  2 active torsions:
REMARK  status: ('A' for Active; 'I' for Inactive)
REMARK    1  A    between atoms: C_3  and  C_2 
REMARK    2  A    between atoms: C_6  and  C_2 
ROOT
HETATM    1  C   UNK N   1      35.286  14.399  18.230  0.00  0.00     0.069 C 
HETATM    2  C   UNK N   1      35.566  11.312  20.215  0.00  0.00     0.138 A 
HETATM    3  C   UNK N   1      35.346  12.975  18.660  0.00  0.00     0.018 A 
HETATM    4  C   UNK N   1      35.220  11.865  17.796  0.00  0.00     0.007 A 
HETATM    5  N   UNK N   1      35.536  12.651  19.988  0.00  0.00    -0.363 N 
ATOM      6  HN  UNK N   1      35.642  13.348  20.725  1.00  0.00     0.165 HD
HETATM    7  S   UNK N   1      35.357  10.537  18.766  0.00  0.00    -0.087 SA
ENDROOT
BRANCH   4   8
HETATM    8  C   UNK N   1      35.006  11.803  16.306  0.00  0.00     0.063 C 
BRANCH   8   9
HETATM    9  C   UNK N   1      34.443  10.476  15.828  0.00  0.00     0.119 C 
HETATM   10 Cl   UNK N   1      33.813  10.611  14.174  0.00  0.00    -0.130 Cl
ENDBRANCH   8   9
ENDBRANCH   4   8
TORSDOF 2
ENDMDL
MODEL 9
REMARK VINA RESULT:      -3.3      9.619     10.912
REMARK  2 active torsions:
REMARK  status: ('A' for Active; 'I' for Inactive)
REMARK    1  A    between atoms: C_3  and  C_2 
REMARK    2  A    between atoms: C_6  and  C_2 
ROOT
HETATM    1  C   UNK N   1      32.881  17.520   4.395  0.00  0.00     0.069 C 
HETATM    2  C   UNK N   1      29.221  17.576   4.782  0.00  0.00     0.138 A 
HETATM    3  C   UNK N   1      31.498  17.425   4.939  0.00  0.00     0.018 A 
HETATM    4  C   UNK N   1      31.174  17.055   6.262  0.00  0.00     0.007 A 
HETATM    5  N   UNK N   1      30.410  17.708   4.138  0.00  0.00    -0.363 N 
ATOM      6  HN  UNK N   1      30.491  17.988   3.161  1.00  0.00     0.165 HD
HETATM    7  S   UNK N   1      29.527  17.108   6.342  0.00  0.00    -0.087 SA
ENDROOT
BRANCH   4   8
HETATM    8  C   UNK N   1      32.063  16.678   7.419  0.00  0.00     0.063 C 
BRANCH   8   9
HETATM    9  C   UNK N   1      32.503  17.864   8.260  0.00  0.00     0.119 C 
HETATM   10 Cl   UNK N   1      34.181  18.312   7.898  0.00  0.00    -0.130 Cl
ENDBRANCH   8   9
ENDBRANCH   4   8
TORSDOF 2
ENDMDL
