REMARK  7 active torsions:
REMARK  status: ('A' for Active; 'I' for Inactive)
REMARK    1  A    between atoms: C_2  and  C_1 
REMARK    2  A    between atoms: O_3  and  C_11 
REMARK    3  A    between atoms: C_4  and  O_3 
REMARK    4  A    between atoms: C_8  and  C_4 
REMARK    5  A    between atoms: C_12  and  C_4 
REMARK    6  A    between atoms: C_16  and  C_12 
REMARK    7  A    between atoms: N_15  and  C_16 
ROOT
HETATM    1  C   UNK N   1      -0.872  -1.087   0.640  0.00  0.00     0.163 C 
ENDROOT
BRANCH   1   2
HETATM    2  O   UNK N   1      -0.725  -0.039  -0.259  0.00  0.00    -0.341 OA
BRANCH   2   3
HETATM    3  C   UNK N   1       0.269   0.873  -0.152  0.00  0.00     0.069 A 
HETATM    4  C   UNK N   1       1.571   0.544  -0.549  0.00  0.00     0.037 A 
HETATM    5  C   UNK N   1       2.606   1.466  -0.413  0.00  0.00     0.019 A 
HETATM    6  C   UNK N   1       2.354   2.734   0.124  0.00  0.00     0.048 A 
HETATM    7  C   UNK N   1       1.046   3.075   0.503  0.00  0.00     0.019 A 
HETATM    8  C   UNK N   1       0.005   2.149   0.359  0.00  0.00     0.037 A 
BRANCH   6   9
HETATM    9  C   UNK N   1       3.475   3.714   0.311  0.00  0.00     0.417 C 
HETATM   10  F   UNK N   1       3.202   4.877  -0.385  0.00  0.00    -0.166 F 
HETATM   11  F   UNK N   1       4.674   3.192  -0.147  0.00  0.00    -0.166 F 
HETATM   12  F   UNK N   1       3.606   4.008   1.656  0.00  0.00    -0.166 F 
ENDBRANCH   6   9
ENDBRANCH   2   3
ENDBRANCH   1   2
BRANCH   1  13
HETATM   13  C   UNK N   1      -2.104  -1.901   0.315  0.00  0.00    -0.029 A 
HETATM   14  C   UNK N   1      -2.044  -3.297   0.149  0.00  0.00     0.010 A 
HETATM   15  C   UNK N   1      -3.201  -4.028  -0.132  0.00  0.00     0.001 A 
HETATM   16  C   UNK N   1      -4.428  -3.373  -0.250  0.00  0.00     0.000 A 
HETATM   17  C   UNK N   1      -4.500  -1.988  -0.084  0.00  0.00     0.001 A 
HETATM   18  C   UNK N   1      -3.343  -1.255   0.202  0.00  0.00     0.010 A 
ENDBRANCH   1  13
BRANCH   1  19
HETATM   19  C   UNK N   1       0.414  -1.922   0.791  0.00  0.00     0.056 C 
BRANCH  19  20
HETATM   20  C   UNK N   1       0.900  -2.490  -0.534  0.00  0.00     0.114 C 
BRANCH  20  21
HETATM   21  N   UNK N   1       2.326  -2.747  -0.450  0.00  0.00    -0.430 N 
HETATM   22  H   UNK N   1       2.670  -3.706  -0.392  0.00  0.00     0.149 HD
HETATM   23  H   UNK N   1       2.985  -1.969  -0.450  0.00  0.00     0.149 HD
ENDBRANCH  20  21
ENDBRANCH  19  20
ENDBRANCH   1  19
TORSDOF 7
