MODEL 1
REMARK VINA RESULT:      -7.3      0.000      0.000
REMARK  4 active torsions:
REMARK  status: ('A' for Active; 'I' for Inactive)
REMARK    1  A    between atoms: C_4  and  C_1 
REMARK    2  A    between atoms: O_9  and  C_3 
REMARK       I    between atoms: N_8  and  C_4 
REMARK    3  A    between atoms: C_13  and  N_8 
REMARK    4  A    between atoms: C_17  and  N_8 
ROOT
HETATM    1  C   UNK N   1      28.830  17.789   5.730  0.00  0.00     0.134 A 
HETATM    2  C   UNK N   1      29.089  17.709   7.127  0.00  0.00     0.266 A 
HETATM    3  C   UNK N   1      29.919  17.523   4.850  0.00  0.00     0.101 A 
HETATM    4  N   UNK N   1      30.357  17.439   7.598  0.00  0.00    -0.317 N 
HETATM    5  C   UNK N   1      31.208  17.219   5.348  0.00  0.00     0.047 A 
HETATM    6  C   UNK N   1      31.402  17.196   6.750  0.00  0.00     0.051 A 
HETATM    7  O   UNK N   1      28.187  17.825   7.930  0.00  0.00    -0.267 OA
HETATM    8  C   UNK N   1      32.322  16.930   4.497  0.00  0.00     0.049 A 
HETATM    9  C   UNK N   1      30.571  17.382   9.047  0.00  0.00     0.159 C 
HETATM   10  C   UNK N   1      32.676  16.900   7.270  0.00  0.00     0.031 A 
HETATM   11 Cl   UNK N   1      32.243  16.895   2.737  0.00  0.00    -0.083 Cl
HETATM   12  C   UNK N   1      33.747  16.625   6.432  0.00  0.00     0.004 A 
HETATM   13  C   UNK N   1      33.568  16.638   5.056  0.00  0.00     0.025 A 
ENDROOT
BRANCH   1  14
HETATM   14  C   UNK N   1      27.453  18.067   5.102  0.00  0.00     0.266 C 
HETATM   15  N   UNK N   1      26.782  19.293   5.095  0.00  0.00    -0.314 N 
HETATM   16  O   UNK N   1      26.928  17.117   4.542  0.00  0.00    -0.267 OA
BRANCH  15  17
HETATM   17  C   UNK N   1      25.482  19.454   4.454  0.00  0.00     0.037 A 
HETATM   18  C   UNK N   1      24.352  18.700   4.837  0.00  0.00     0.029 A 
HETATM   19  C   UNK N   1      23.120  18.859   4.200  0.00  0.00     0.002 A 
HETATM   20  C   UNK N   1      22.982  19.786   3.168  0.00  0.00     0.000 A 
HETATM   21  C   UNK N   1      24.081  20.545   2.768  0.00  0.00     0.002 A 
HETATM   22  C   UNK N   1      25.316  20.375   3.397  0.00  0.00     0.029 A 
ENDBRANCH  15  17
BRANCH  15  23
HETATM   23  C   UNK N   1      27.415  20.491   5.617  0.00  0.00     0.128 C 
HETATM   24  C   UNK N   1      26.677  21.027   6.842  0.00  0.00     0.027 C 
ENDBRANCH  15  23
ENDBRANCH   1  14
BRANCH   3  25
HETATM   25  O   UNK N   1      29.716  17.573   3.521  0.00  0.00    -0.358 OA
HETATM   26  H   UNK N   1      28.884  17.836   3.179  0.00  0.00     0.217 HD
ENDBRANCH   3  25
TORSDOF 4
ENDMDL
MODEL 2
REMARK VINA RESULT:      -7.0      6.675      8.448
REMARK  4 active torsions:
REMARK  status: ('A' for Active; 'I' for Inactive)
REMARK    1  A    between atoms: C_4  and  C_1 
REMARK    2  A    between atoms: O_9  and  C_3 
REMARK       I    between atoms: N_8  and  C_4 
REMARK    3  A    between atoms: C_13  and  N_8 
REMARK    4  A    between atoms: C_17  and  N_8 
ROOT
HETATM    1  C   UNK N   1      22.370  15.781   6.751  0.00  0.00     0.134 A 
HETATM    2  C   UNK N   1      23.596  15.059   6.726  0.00  0.00     0.266 A 
HETATM    3  C   UNK N   1      21.405  15.393   7.724  0.00  0.00     0.101 A 
HETATM    4  N   UNK N   1      23.807  13.994   7.577  0.00  0.00    -0.317 N 
HETATM    5  C   UNK N   1      21.647  14.316   8.609  0.00  0.00     0.047 A 
HETATM    6  C   UNK N   1      22.873  13.616   8.502  0.00  0.00     0.051 A 
HETATM    7  O   UNK N   1      24.500  15.400   5.992  0.00  0.00    -0.267 OA
HETATM    8  C   UNK N   1      20.710  13.906   9.611  0.00  0.00     0.049 A 
HETATM    9  C   UNK N   1      25.083  13.276   7.500  0.00  0.00     0.159 C 
HETATM   10  C   UNK N   1      23.137  12.540   9.368  0.00  0.00     0.031 A 
HETATM   11 Cl   UNK N   1      19.154  14.684   9.890  0.00  0.00    -0.083 Cl
HETATM   12  C   UNK N   1      22.216  12.152  10.332  0.00  0.00     0.004 A 
HETATM   13  C   UNK N   1      21.014  12.835  10.452  0.00  0.00     0.025 A 
ENDROOT
BRANCH   1  14
HETATM   14  C   UNK N   1      22.041  16.992   5.859  0.00  0.00     0.266 C 
HETATM   15  N   UNK N   1      21.776  16.958   4.487  0.00  0.00    -0.314 N 
HETATM   16  O   UNK N   1      21.989  18.069   6.432  0.00  0.00    -0.267 OA
BRANCH  15  17
HETATM   17  C   UNK N   1      21.457  18.166   3.735  0.00  0.00     0.037 A 
HETATM   18  C   UNK N   1      22.419  19.163   3.463  0.00  0.00     0.029 A 
HETATM   19  C   UNK N   1      22.088  20.319   2.754  0.00  0.00     0.002 A 
HETATM   20  C   UNK N   1      20.787  20.506   2.290  0.00  0.00     0.000 A 
HETATM   21  C   UNK N   1      19.816  19.538   2.543  0.00  0.00     0.002 A 
HETATM   22  C   UNK N   1      20.145  18.388   3.264  0.00  0.00     0.029 A 
ENDBRANCH  15  17
BRANCH  15  23
HETATM   23  C   UNK N   1      21.683  15.694   3.778  0.00  0.00     0.128 C 
HETATM   24  C   UNK N   1      22.885  15.475   2.861  0.00  0.00     0.027 C 
ENDBRANCH  15  23
ENDBRANCH   1  14
BRANCH   3  25
HETATM   25  O   UNK N   1      20.237  16.058   7.792  0.00  0.00    -0.358 OA
HETATM   26  H   UNK N   1      19.607  15.979   7.104  0.00  0.00     0.217 HD
ENDBRANCH   3  25
TORSDOF 4
ENDMDL
MODEL 3
REMARK VINA RESULT:      -6.8      1.924      2.945
REMARK  4 active torsions:
REMARK  status: ('A' for Active; 'I' for Inactive)
REMARK    1  A    between atoms: C_4  and  C_1 
REMARK    2  A    between atoms: O_9  and  C_3 
REMARK       I    between atoms: N_8  and  C_4 
REMARK    3  A    between atoms: C_13  and  N_8 
REMARK    4  A    between atoms: C_17  and  N_8 
ROOT
HETATM    1  C   UNK N   1      28.072  17.540   5.293  0.00  0.00     0.134 A 
HETATM    2  C   UNK N   1      29.067  17.133   4.362  0.00  0.00     0.266 A 
HETATM    3  C   UNK N   1      28.494  17.784   6.632  0.00  0.00     0.101 A 
HETATM    4  N   UNK N   1      30.372  16.932   4.762  0.00  0.00    -0.317 N 
HETATM    5  C   UNK N   1      29.842  17.601   7.022  0.00  0.00     0.047 A 
HETATM    6  C   UNK N   1      30.770  17.155   6.052  0.00  0.00     0.051 A 
HETATM    7  O   UNK N   1      28.797  17.005   3.186  0.00  0.00    -0.267 OA
HETATM    8  C   UNK N   1      30.308  17.850   8.352  0.00  0.00     0.049 A 
HETATM    9  C   UNK N   1      31.354  16.498   3.765  0.00  0.00     0.159 C 
HETATM   10  C   UNK N   1      32.116  16.962   6.415  0.00  0.00     0.031 A 
HETATM   11 Cl   UNK N   1      29.288  18.428   9.668  0.00  0.00    -0.083 Cl
HETATM   12  C   UNK N   1      32.552  17.205   7.710  0.00  0.00     0.004 A 
HETATM   13  C   UNK N   1      31.652  17.649   8.669  0.00  0.00     0.025 A 
ENDROOT
BRANCH   1  14
HETATM   14  C   UNK N   1      26.596  17.807   4.948  0.00  0.00     0.266 C 
HETATM   15  N   UNK N   1      26.052  19.031   4.548  0.00  0.00    -0.314 N 
HETATM   16  O   UNK N   1      25.856  16.838   5.013  0.00  0.00    -0.267 OA
BRANCH  15  17
HETATM   17  C   UNK N   1      24.636  19.174   4.226  0.00  0.00     0.037 A 
HETATM   18  C   UNK N   1      23.638  18.393   4.847  0.00  0.00     0.029 A 
HETATM   19  C   UNK N   1      22.289  18.536   4.513  0.00  0.00     0.002 A 
HETATM   20  C   UNK N   1      21.902  19.472   3.555  0.00  0.00     0.000 A 
HETATM   21  C   UNK N   1      22.867  20.257   2.925  0.00  0.00     0.002 A 
HETATM   22  C   UNK N   1      24.217  20.104   3.251  0.00  0.00     0.029 A 
ENDBRANCH  15  17
BRANCH  15  23
HETATM   23  C   UNK N   1      26.903  20.184   4.314  0.00  0.00     0.128 C 
HETATM   24  C   UNK N   1      26.987  21.079   5.548  0.00  0.00     0.027 C 
ENDBRANCH  15  23
ENDBRANCH   1  14
BRANCH   3  25
HETATM   25  O   UNK N   1      27.588  18.185   7.543  0.00  0.00    -0.358 OA
HETATM   26  H   UNK N   1      26.694  18.313   7.296  0.00  0.00     0.217 HD
ENDBRANCH   3  25
TORSDOF 4
ENDMDL
MODEL 4
REMARK VINA RESULT:      -6.8      9.589     13.373
REMARK  4 active torsions:
REMARK  status: ('A' for Active; 'I' for Inactive)
REMARK    1  A    between atoms: C_4  and  C_1 
REMARK    2  A    between atoms: O_9  and  C_3 
REMARK       I    between atoms: N_8  and  C_4 
REMARK    3  A    between atoms: C_13  and  N_8 
REMARK    4  A    between atoms: C_17  and  N_8 
ROOT
HETATM    1  C   UNK N   1      35.057  12.155  12.713  0.00  0.00     0.134 A 
HETATM    2  C   UNK N   1      35.060  11.020  11.856  0.00  0.00     0.266 A 
HETATM    3  C   UNK N   1      35.106  13.438  12.095  0.00  0.00     0.101 A 
HETATM    4  N   UNK N   1      35.162  11.166  10.487  0.00  0.00    -0.317 N 
HETATM    5  C   UNK N   1      35.183  13.573  10.688  0.00  0.00     0.047 A 
HETATM    6  C   UNK N   1      35.223  12.399   9.899  0.00  0.00     0.051 A 
HETATM    7  O   UNK N   1      34.918   9.903  12.309  0.00  0.00    -0.267 OA
HETATM    8  C   UNK N   1      35.219  14.843  10.029  0.00  0.00     0.049 A 
HETATM    9  C   UNK N   1      35.175   9.962   9.651  0.00  0.00     0.159 C 
HETATM   10  C   UNK N   1      35.303  12.506   8.498  0.00  0.00     0.031 A 
HETATM   11 Cl   UNK N   1      35.155  16.395  10.863  0.00  0.00    -0.083 Cl
HETATM   12  C   UNK N   1      35.340  13.745   7.874  0.00  0.00     0.004 A 
HETATM   13  C   UNK N   1      35.295  14.903   8.637  0.00  0.00     0.025 A 
ENDROOT
BRANCH   1  14
HETATM   14  C   UNK N   1      34.929  12.103  14.246  0.00  0.00     0.266 C 
HETATM   15  N   UNK N   1      35.985  12.066  15.160  0.00  0.00    -0.314 N 
HETATM   16  O   UNK N   1      33.787  12.123  14.680  0.00  0.00    -0.267 OA
BRANCH  15  17
HETATM   17  C   UNK N   1      35.755  12.035  16.600  0.00  0.00     0.037 A 
HETATM   18  C   UNK N   1      35.855  10.848  17.356  0.00  0.00     0.029 A 
HETATM   19  C   UNK N   1      35.616  10.838  18.732  0.00  0.00     0.002 A 
HETATM   20  C   UNK N   1      35.278  12.020  19.390  0.00  0.00     0.000 A 
HETATM   21  C   UNK N   1      35.172  13.208  18.669  0.00  0.00     0.002 A 
HETATM   22  C   UNK N   1      35.399  13.214  17.291  0.00  0.00     0.029 A 
ENDBRANCH  15  17
BRANCH  15  23
HETATM   23  C   UNK N   1      37.362  12.184  14.713  0.00  0.00     0.128 C 
HETATM   24  C   UNK N   1      37.989  10.816  14.458  0.00  0.00     0.027 C 
ENDBRANCH  15  23
ENDBRANCH   1  14
BRANCH   3  25
HETATM   25  O   UNK N   1      35.091  14.540  12.867  0.00  0.00    -0.358 OA
HETATM   26  H   UNK N   1      35.469  14.522  13.724  0.00  0.00     0.217 HD
ENDBRANCH   3  25
TORSDOF 4
ENDMDL
MODEL 5
REMARK VINA RESULT:      -6.8      8.309     12.535
REMARK  4 active torsions:
REMARK  status: ('A' for Active; 'I' for Inactive)
REMARK    1  A    between atoms: C_4  and  C_1 
REMARK    2  A    between atoms: O_9  and  C_3 
REMARK       I    between atoms: N_8  and  C_4 
REMARK    3  A    between atoms: C_13  and  N_8 
REMARK    4  A    between atoms: C_17  and  N_8 
ROOT
HETATM    1  C   UNK N   1      36.166  13.592  11.579  0.00  0.00     0.134 A 
HETATM    2  C   UNK N   1      37.303  13.279  10.784  0.00  0.00     0.266 A 
HETATM    3  C   UNK N   1      35.014  14.087  10.901  0.00  0.00     0.101 A 
HETATM    4  N   UNK N   1      37.299  13.502   9.423  0.00  0.00    -0.317 N 
HETATM    5  C   UNK N   1      35.015  14.285   9.500  0.00  0.00     0.047 A 
HETATM    6  C   UNK N   1      36.196  13.990   8.778  0.00  0.00     0.051 A 
HETATM    7  O   UNK N   1      38.281  12.759  11.282  0.00  0.00    -0.267 OA
HETATM    8  C   UNK N   1      33.874  14.765   8.781  0.00  0.00     0.049 A 
HETATM    9  C   UNK N   1      38.503  13.175   8.654  0.00  0.00     0.159 C 
HETATM   10  C   UNK N   1      36.224  14.180   7.384  0.00  0.00     0.031 A 
HETATM   11 Cl   UNK N   1      32.326  15.157   9.526  0.00  0.00    -0.083 Cl
HETATM   12  C   UNK N   1      35.110  14.650   6.702  0.00  0.00     0.004 A 
HETATM   13  C   UNK N   1      33.945  14.937   7.398  0.00  0.00     0.025 A 
ENDROOT
BRANCH   1  14
HETATM   14  C   UNK N   1      36.061  13.366  13.098  0.00  0.00     0.266 C 
HETATM   15  N   UNK N   1      35.636  12.195  13.730  0.00  0.00    -0.314 N 
HETATM   16  O   UNK N   1      36.410  14.306  13.795  0.00  0.00    -0.267 OA
BRANCH  15  17
HETATM   17  C   UNK N   1      35.589  12.079  15.183  0.00  0.00     0.037 A 
HETATM   18  C   UNK N   1      36.216  11.023  15.878  0.00  0.00     0.029 A 
HETATM   19  C   UNK N   1      36.147  10.922  17.269  0.00  0.00     0.002 A 
HETATM   20  C   UNK N   1      35.454  11.884  18.004  0.00  0.00     0.000 A 
HETATM   21  C   UNK N   1      34.825  12.939  17.345  0.00  0.00     0.002 A 
HETATM   22  C   UNK N   1      34.884  13.030  15.953  0.00  0.00     0.029 A 
ENDBRANCH  15  17
BRANCH  15  23
HETATM   23  C   UNK N   1      35.343  10.998  12.961  0.00  0.00     0.128 C 
HETATM   24  C   UNK N   1      33.916  10.511  13.201  0.00  0.00     0.027 C 
ENDBRANCH  15  23
ENDBRANCH   1  14
BRANCH   3  25
HETATM   25  O   UNK N   1      33.910  14.383  11.612  0.00  0.00    -0.358 OA
HETATM   26  H   UNK N   1      33.246  13.736  11.745  0.00  0.00     0.217 HD
ENDBRANCH   3  25
TORSDOF 4
ENDMDL
MODEL 6
REMARK VINA RESULT:      -6.8      7.614     10.937
REMARK  4 active torsions:
REMARK  status: ('A' for Active; 'I' for Inactive)
REMARK    1  A    between atoms: C_4  and  C_1 
REMARK    2  A    between atoms: O_9  and  C_3 
REMARK       I    between atoms: N_8  and  C_4 
REMARK    3  A    between atoms: C_13  and  N_8 
REMARK    4  A    between atoms: C_17  and  N_8 
ROOT
HETATM    1  C   UNK N   1      35.246  13.730  12.168  0.00  0.00     0.134 A 
HETATM    2  C   UNK N   1      35.963  14.197  13.305  0.00  0.00     0.266 A 
HETATM    3  C   UNK N   1      34.895  12.349  12.142  0.00  0.00     0.101 A 
HETATM    4  N   UNK N   1      36.345  13.329  14.306  0.00  0.00    -0.317 N 
HETATM    5  C   UNK N   1      35.271  11.476  13.190  0.00  0.00     0.047 A 
HETATM    6  C   UNK N   1      36.018  12.002  14.271  0.00  0.00     0.051 A 
HETATM    7  O   UNK N   1      36.205  15.379  13.440  0.00  0.00    -0.267 OA
HETATM    8  C   UNK N   1      34.924  10.087  13.207  0.00  0.00     0.049 A 
HETATM    9  C   UNK N   1      37.095  13.861  15.448  0.00  0.00     0.159 C 
HETATM   10  C   UNK N   1      36.407  11.154  15.324  0.00  0.00     0.031 A 
HETATM   11 Cl   UNK N   1      33.981   9.285  11.954  0.00  0.00    -0.083 Cl
HETATM   12  C   UNK N   1      36.066   9.808  15.325  0.00  0.00     0.004 A 
HETATM   13  C   UNK N   1      35.328   9.282  14.274  0.00  0.00     0.025 A 
ENDROOT
BRANCH   1  14
HETATM   14  C   UNK N   1      34.757  14.615  11.007  0.00  0.00     0.266 C 
HETATM   15  N   UNK N   1      35.541  15.106   9.959  0.00  0.00    -0.314 N 
HETATM   16  O   UNK N   1      33.565  14.879  11.012  0.00  0.00    -0.267 OA
BRANCH  15  17
HETATM   17  C   UNK N   1      34.973  15.926   8.895  0.00  0.00     0.037 A 
HETATM   18  C   UNK N   1      34.632  15.396   7.632  0.00  0.00     0.029 A 
HETATM   19  C   UNK N   1      34.104  16.202   6.622  0.00  0.00     0.002 A 
HETATM   20  C   UNK N   1      33.894  17.562   6.852  0.00  0.00     0.000 A 
HETATM   21  C   UNK N   1      34.221  18.113   8.090  0.00  0.00     0.002 A 
HETATM   22  C   UNK N   1      34.761  17.308   9.095  0.00  0.00     0.029 A 
ENDBRANCH  15  17
BRANCH  15  23
HETATM   23  C   UNK N   1      36.931  14.710   9.819  0.00  0.00     0.128 C 
HETATM   24  C   UNK N   1      37.062  13.349   9.141  0.00  0.00     0.027 C 
ENDBRANCH  15  23
ENDBRANCH   1  14
BRANCH   3  25
HETATM   25  O   UNK N   1      34.204  11.867  11.092  0.00  0.00    -0.358 OA
HETATM   26  H   UNK N   1      33.658  11.113  11.192  0.00  0.00     0.217 HD
ENDBRANCH   3  25
TORSDOF 4
ENDMDL
MODEL 7
REMARK VINA RESULT:      -6.7      4.941      7.638
REMARK  4 active torsions:
REMARK  status: ('A' for Active; 'I' for Inactive)
REMARK    1  A    between atoms: C_4  and  C_1 
REMARK    2  A    between atoms: O_9  and  C_3 
REMARK       I    between atoms: N_8  and  C_4 
REMARK    3  A    between atoms: C_13  and  N_8 
REMARK    4  A    between atoms: C_17  and  N_8 
ROOT
HETATM    1  C   UNK N   1      33.939  14.660   8.815  0.00  0.00     0.134 A 
HETATM    2  C   UNK N   1      34.823  14.315   7.755  0.00  0.00     0.266 A 
HETATM    3  C   UNK N   1      34.387  14.409  10.144  0.00  0.00     0.101 A 
HETATM    4  N   UNK N   1      36.036  13.711   8.013  0.00  0.00    -0.317 N 
HETATM    5  C   UNK N   1      35.646  13.814  10.395  0.00  0.00     0.047 A 
HETATM    6  C   UNK N   1      36.456  13.459   9.290  0.00  0.00     0.051 A 
HETATM    7  O   UNK N   1      34.548  14.593   6.606  0.00  0.00    -0.267 OA
HETATM    8  C   UNK N   1      36.138  13.560  11.715  0.00  0.00     0.049 A 
HETATM    9  C   UNK N   1      36.902  13.362   6.883  0.00  0.00     0.159 C 
HETATM   10  C   UNK N   1      37.712  12.863   9.511  0.00  0.00     0.031 A 
HETATM   11 Cl   UNK N   1      35.266  13.961  13.192  0.00  0.00    -0.083 Cl
HETATM   12  C   UNK N   1      38.173  12.620  10.798  0.00  0.00     0.004 A 
HETATM   13  C   UNK N   1      37.391  12.970  11.889  0.00  0.00     0.025 A 
ENDROOT
BRANCH   1  14
HETATM   14  C   UNK N   1      32.575  15.351   8.638  0.00  0.00     0.266 C 
HETATM   15  N   UNK N   1      32.357  16.725   8.505  0.00  0.00    -0.314 N 
HETATM   16  O   UNK N   1      31.609  14.604   8.588  0.00  0.00    -0.267 OA
BRANCH  15  17
HETATM   17  C   UNK N   1      31.019  17.277   8.325  0.00  0.00     0.037 A 
HETATM   18  C   UNK N   1      30.311  17.160   7.110  0.00  0.00     0.029 A 
HETATM   19  C   UNK N   1      29.037  17.709   6.953  0.00  0.00     0.002 A 
HETATM   20  C   UNK N   1      28.432  18.383   8.013  0.00  0.00     0.000 A 
HETATM   21  C   UNK N   1      29.108  18.514   9.226  0.00  0.00     0.002 A 
HETATM   22  C   UNK N   1      30.388  17.976   9.377  0.00  0.00     0.029 A 
ENDBRANCH  15  17
BRANCH  15  23
HETATM   23  C   UNK N   1      33.473  17.650   8.414  0.00  0.00     0.128 C 
HETATM   24  C   UNK N   1      33.875  17.904   6.963  0.00  0.00     0.027 C 
ENDBRANCH  15  23
ENDBRANCH   1  14
BRANCH   3  25
HETATM   25  O   UNK N   1      33.589  14.733  11.179  0.00  0.00    -0.358 OA
HETATM   26  H   UNK N   1      32.940  15.402  11.083  0.00  0.00     0.217 HD
ENDBRANCH   3  25
TORSDOF 4
ENDMDL
MODEL 8
REMARK VINA RESULT:      -6.7      3.566      8.694
REMARK  4 active torsions:
REMARK  status: ('A' for Active; 'I' for Inactive)
REMARK    1  A    between atoms: C_4  and  C_1 
REMARK    2  A    between atoms: O_9  and  C_3 
REMARK       I    between atoms: N_8  and  C_4 
REMARK    3  A    between atoms: C_13  and  N_8 
REMARK    4  A    between atoms: C_17  and  N_8 
ROOT
HETATM    1  C   UNK N   1      31.749  16.137   7.315  0.00  0.00     0.134 A 
HETATM    2  C   UNK N   1      31.802  15.901   5.913  0.00  0.00     0.266 A 
HETATM    3  C   UNK N   1      30.679  16.943   7.799  0.00  0.00     0.101 A 
HETATM    4  N   UNK N   1      30.883  16.479   5.061  0.00  0.00    -0.317 N 
HETATM    5  C   UNK N   1      29.727  17.508   6.916  0.00  0.00     0.047 A 
HETATM    6  C   UNK N   1      29.865  17.263   5.529  0.00  0.00     0.051 A 
HETATM    7  O   UNK N   1      32.627  15.143   5.445  0.00  0.00    -0.267 OA
HETATM    8  C   UNK N   1      28.629  18.309   7.365  0.00  0.00     0.049 A 
HETATM    9  C   UNK N   1      30.993  16.214   3.624  0.00  0.00     0.159 C 
HETATM   10  C   UNK N   1      28.934  17.815   4.630  0.00  0.00     0.031 A 
HETATM   11 Cl   UNK N   1      28.303  18.687   9.055  0.00  0.00    -0.083 Cl
HETATM   12  C   UNK N   1      27.877  18.594   5.081  0.00  0.00     0.004 A 
HETATM   13  C   UNK N   1      27.726  18.835   6.439  0.00  0.00     0.025 A 
ENDROOT
BRANCH   1  14
HETATM   14  C   UNK N   1      32.712  15.528   8.350  0.00  0.00     0.266 C 
HETATM   15  N   UNK N   1      34.057  15.864   8.522  0.00  0.00    -0.314 N 
HETATM   16  O   UNK N   1      32.223  14.692   9.095  0.00  0.00    -0.267 OA
BRANCH  15  17
HETATM   17  C   UNK N   1      34.881  15.236   9.549  0.00  0.00     0.037 A 
HETATM   18  C   UNK N   1      35.643  14.075   9.301  0.00  0.00     0.029 A 
HETATM   19  C   UNK N   1      36.414  13.482  10.302  0.00  0.00     0.002 A 
HETATM   20  C   UNK N   1      36.449  14.041  11.579  0.00  0.00     0.000 A 
HETATM   21  C   UNK N   1      35.707  15.188  11.854  0.00  0.00     0.002 A 
HETATM   22  C   UNK N   1      34.926  15.773  10.854  0.00  0.00     0.029 A 
ENDBRANCH  15  17
BRANCH  15  23
HETATM   23  C   UNK N   1      34.656  16.949   7.765  0.00  0.00     0.128 C 
HETATM   24  C   UNK N   1      34.241  18.313   8.312  0.00  0.00     0.027 C 
ENDBRANCH  15  23
ENDBRANCH   1  14
BRANCH   3  25
HETATM   25  O   UNK N   1      30.581  17.181   9.120  0.00  0.00    -0.358 OA
HETATM   26  H   UNK N   1      30.798  16.511   9.738  0.00  0.00     0.217 HD
ENDBRANCH   3  25
TORSDOF 4
ENDMDL
MODEL 9
REMARK VINA RESULT:      -6.6      2.352      2.755
REMARK  4 active torsions:
REMARK  status: ('A' for Active; 'I' for Inactive)
REMARK    1  A    between atoms: C_4  and  C_1 
REMARK    2  A    between atoms: O_9  and  C_3 
REMARK       I    between atoms: N_8  and  C_4 
REMARK    3  A    between atoms: C_13  and  N_8 
REMARK    4  A    between atoms: C_17  and  N_8 
ROOT
HETATM    1  C   UNK N   1      29.199  16.654   6.193  0.00  0.00     0.134 A 
HETATM    2  C   UNK N   1      29.015  17.235   7.479  0.00  0.00     0.266 A 
HETATM    3  C   UNK N   1      30.535  16.561   5.706  0.00  0.00     0.101 A 
HETATM    4  N   UNK N   1      30.086  17.734   8.191  0.00  0.00    -0.317 N 
HETATM    5  C   UNK N   1      31.627  17.052   6.460  0.00  0.00     0.047 A 
HETATM    6  C   UNK N   1      31.365  17.654   7.714  0.00  0.00     0.051 A 
HETATM    7  O   UNK N   1      27.917  17.254   7.997  0.00  0.00    -0.267 OA
HETATM    8  C   UNK N   1      32.984  16.963   6.012  0.00  0.00     0.049 A 
HETATM    9  C   UNK N   1      29.839  18.335   9.504  0.00  0.00     0.159 C 
HETATM   10  C   UNK N   1      32.434  18.153   8.481  0.00  0.00     0.031 A 
HETATM   11 Cl   UNK N   1      33.479  16.225   4.491  0.00  0.00    -0.083 Cl
HETATM   12  C   UNK N   1      33.744  18.062   8.032  0.00  0.00     0.004 A 
HETATM   13  C   UNK N   1      34.014  17.468   6.807  0.00  0.00     0.025 A 
ENDROOT
BRANCH   1  14
HETATM   14  C   UNK N   1      28.077  16.054   5.327  0.00  0.00     0.266 C 
HETATM   15  N   UNK N   1      27.249  16.757   4.448  0.00  0.00    -0.314 N 
HETATM   16  O   UNK N   1      27.934  14.844   5.415  0.00  0.00    -0.267 OA
BRANCH  15  17
HETATM   17  C   UNK N   1      26.222  16.087   3.657  0.00  0.00     0.037 A 
HETATM   18  C   UNK N   1      24.931  15.824   4.163  0.00  0.00     0.029 A 
HETATM   19  C   UNK N   1      23.968  15.168   3.393  0.00  0.00     0.002 A 
HETATM   20  C   UNK N   1      24.269  14.766   2.092  0.00  0.00     0.000 A 
HETATM   21  C   UNK N   1      25.536  15.013   1.567  0.00  0.00     0.002 A 
HETATM   22  C   UNK N   1      26.502  15.658   2.342  0.00  0.00     0.029 A 
ENDBRANCH  15  17
BRANCH  15  23
HETATM   23  C   UNK N   1      27.463  18.171   4.193  0.00  0.00     0.128 C 
HETATM   24  C   UNK N   1      26.558  19.042   5.062  0.00  0.00     0.027 C 
ENDBRANCH  15  23
ENDBRANCH   1  14
BRANCH   3  25
HETATM   25  O   UNK N   1      30.757  16.005   4.501  0.00  0.00    -0.358 OA
HETATM   26  H   UNK N   1      31.461  16.309   3.963  0.00  0.00     0.217 HD
ENDBRANCH   3  25
TORSDOF 4
ENDMDL
