MODEL 1
REMARK VINA RESULT:      -7.6      0.000      0.000
REMARK  6 active torsions:
REMARK  status: ('A' for Active; 'I' for Inactive)
REMARK    1  A    between atoms: C_19  and  C_13 
REMARK    2  A    between atoms: C_20  and  C_14 
REMARK    3  A    between atoms: C_18  and  O_33 
REMARK    4  A    between atoms: C_21  and  O_34 
REMARK    5  A    between atoms: O_35  and  C_22 
REMARK    6  A    between atoms: C_23  and  O_36 
ROOT
HETATM    1  C   UNK N   1      25.611  24.569 -10.104  0.00  0.00     0.038 C 
HETATM    2  C   UNK N   1      25.826  24.937  -8.669  0.00  0.00     0.003 C 
HETATM    3  C   UNK N   1      30.230  26.442  -4.080  0.00  0.00    -0.027 C 
HETATM    4  C   UNK N   1      31.152  27.255  -4.931  0.00  0.00     0.038 C 
HETATM    5  C   UNK N   1      30.240  25.127  -4.264  0.00  0.00     0.002 C 
HETATM    6  C   UNK N   1      30.628  27.225  -6.392  0.00  0.00     0.090 C 
HETATM    7  C   UNK N   1      29.722  22.961  -3.023  0.00  0.00     0.120 C 
HETATM    8  C   UNK N   1      29.380  23.256  -8.099  0.00  0.00     0.119 C 
HETATM    9  C   UNK N   1      29.182  24.160  -3.815  0.00  0.00     0.162 C 
HETATM   10  C   UNK N   1      26.109  24.003  -7.737  0.00  0.00     0.081 C 
HETATM   11  C   UNK N   1      28.503  22.257  -7.270  0.00  0.00     0.168 C 
HETATM   12  C   UNK N   1      31.046  22.234  -3.248  0.00  0.00     0.114 C 
HETATM   13  C   UNK N   1      31.097  22.102  -5.750  0.00  0.00     0.161 C 
HETATM   14  C   UNK N   1      27.017  26.319  -4.842  0.00  0.00     0.187 C 
HETATM   15  C   UNK N   1      26.334  24.399  -6.307  0.00  0.00     0.163 C 
HETATM   16  C   UNK N   1      27.192  21.845  -7.947  0.00  0.00     0.140 C 
HETATM   17  C   UNK N   1      30.372  20.919  -6.363  0.00  0.00     0.135 C 
HETATM   18  C   UNK N   1      27.086  25.536  -3.502  0.00  0.00     0.282 C 
HETATM   19  N   UNK N   1      26.194  22.644  -8.149  0.00  0.00    -0.336 N 
ATOM     20  HN  UNK N   1      25.392  22.263  -8.651  1.00  0.00     0.168 HD
HETATM   21  N   UNK N   1      29.257  21.036  -7.016  0.00  0.00    -0.360 N 
ATOM     22  HN  UNK N   1      28.863  20.175  -7.393  1.00  0.00     0.162 HD
HETATM   23  N   UNK N   1      31.529  21.830  -4.387  0.00  0.00    -0.362 N 
ATOM     24  HN  UNK N   1      32.344  21.222  -4.312  1.00  0.00     0.162 HD
HETATM   25  N   UNK N   1      26.684  25.618  -6.069  0.00  0.00    -0.355 N 
ATOM     26  HN  UNK N   1      26.738  26.202  -6.903  1.00  0.00     0.162 HD
HETATM   27  O   UNK N   1      26.235  25.774  -2.661  0.00  0.00    -0.263 OA
HETATM   28  O   UNK N   1      28.100  24.687  -3.125  0.00  0.00    -0.310 OA
HETATM   29  S   UNK N   1      31.076  25.716  -7.371  0.00  0.00    -0.097 SA
HETATM   30  S   UNK N   1      29.078  25.071  -7.871  0.00  0.00    -0.095 SA
ENDROOT
BRANCH  13  31
HETATM   31  C   UNK N   1      32.343  22.441  -6.604  0.00  0.00     0.008 C 
HETATM   32  C   UNK N   1      33.631  22.373  -5.801  0.00  0.00     0.012 C 
HETATM   33  C   UNK N   1      32.511  21.555  -7.829  0.00  0.00     0.012 C 
ENDBRANCH  13  31
BRANCH  17  34
HETATM   34  O   UNK N   1      30.931  19.697  -6.267  0.00  0.00    -0.348 OA
HETATM   35  H   UNK N   1      31.349  19.262  -6.984  0.00  0.00     0.219 HD
ENDBRANCH  17  34
BRANCH  12  36
HETATM   36  O   UNK N   1      31.728  21.900  -2.137  0.00  0.00    -0.349 OA
HETATM   37  H   UNK N   1      31.326  21.704  -1.313  0.00  0.00     0.219 HD
ENDBRANCH  12  36
BRANCH  16  38
HETATM   38  O   UNK N   1      27.061  20.565  -8.356  0.00  0.00    -0.348 OA
HETATM   39  H   UNK N   1      27.338  20.224  -9.183  0.00  0.00     0.219 HD
ENDBRANCH  16  38
BRANCH  15  40
HETATM   40  O   UNK N   1      26.198  23.503  -5.311  0.00  0.00    -0.345 OA
HETATM   41  H   UNK N   1      26.532  23.023  -4.580  0.00  0.00     0.219 HD
ENDBRANCH  15  40
BRANCH  14  42
HETATM   42  C   UNK N   1      26.061  27.525  -4.783  0.00  0.00     0.010 C 
HETATM   43  C   UNK N   1      26.724  28.838  -5.175  0.00  0.00     0.012 C 
HETATM   44  C   UNK N   1      24.781  27.307  -5.575  0.00  0.00     0.012 C 
ENDBRANCH  14  42
TORSDOF 6
ENDMDL
MODEL 2
REMARK VINA RESULT:      -7.2     15.152     17.418
REMARK  6 active torsions:
REMARK  status: ('A' for Active; 'I' for Inactive)
REMARK    1  A    between atoms: C_19  and  C_13 
REMARK    2  A    between atoms: C_20  and  C_14 
REMARK    3  A    between atoms: C_18  and  O_33 
REMARK    4  A    between atoms: C_21  and  O_34 
REMARK    5  A    between atoms: O_35  and  C_22 
REMARK    6  A    between atoms: C_23  and  O_36 
ROOT
HETATM    1  C   UNK N   1      27.193  15.940   6.359  0.00  0.00     0.038 C 
HETATM    2  C   UNK N   1      25.944  15.316   6.898  0.00  0.00     0.003 C 
HETATM    3  C   UNK N   1      21.477  10.612   6.101  0.00  0.00    -0.027 C 
HETATM    4  C   UNK N   1      22.393   9.529   5.628  0.00  0.00     0.038 C 
HETATM    5  C   UNK N   1      21.214  11.596   5.249  0.00  0.00     0.002 C 
HETATM    6  C   UNK N   1      23.827  10.115   5.507  0.00  0.00     0.090 C 
HETATM    7  C   UNK N   1      19.428  13.345   4.750  0.00  0.00     0.120 C 
HETATM    8  C   UNK N   1      24.306  14.104   3.488  0.00  0.00     0.119 C 
HETATM    9  C   UNK N   1      20.644  12.942   5.596  0.00  0.00     0.162 C 
HETATM   10  C   UNK N   1      24.724  15.675   6.445  0.00  0.00     0.081 C 
HETATM   11  C   UNK N   1      23.343  15.296   3.810  0.00  0.00     0.168 C 
HETATM   12  C   UNK N   1      19.192  13.031   3.274  0.00  0.00     0.114 C 
HETATM   13  C   UNK N   1      21.471  13.463   2.326  0.00  0.00     0.161 C 
HETATM   14  C   UNK N   1      22.648  12.949   8.124  0.00  0.00     0.187 C 
HETATM   15  C   UNK N   1      23.488  15.025   6.992  0.00  0.00     0.163 C 
HETATM   16  C   UNK N   1      24.042  16.569   4.298  0.00  0.00     0.140 C 
HETATM   17  C   UNK N   1      21.766  14.902   1.948  0.00  0.00     0.135 C 
HETATM   18  C   UNK N   1      21.131  13.279   8.052  0.00  0.00     0.282 C 
HETATM   19  N   UNK N   1      24.648  16.676   5.436  0.00  0.00    -0.336 N 
ATOM     20  HN  UNK N   1      25.116  17.562   5.629  1.00  0.00     0.168 HD
HETATM   21  N   UNK N   1      22.587  15.653   2.616  0.00  0.00    -0.360 N 
ATOM     22  HN  UNK N   1      22.717  16.602   2.266  1.00  0.00     0.162 HD
HETATM   23  N   UNK N   1      20.044  13.175   2.302  0.00  0.00    -0.362 N 
ATOM     24  HN  UNK N   1      19.648  13.069   1.369  1.00  0.00     0.162 HD
HETATM   25  N   UNK N   1      23.612  13.864   7.541  0.00  0.00    -0.355 N 
ATOM     26  HN  UNK N   1      24.573  13.523   7.572  1.00  0.00     0.162 HD
HETATM   27  O   UNK N   1      20.559  13.546   9.096  0.00  0.00    -0.263 OA
HETATM   28  O   UNK N   1      20.343  13.172   6.931  0.00  0.00    -0.310 OA
HETATM   29  S   UNK N   1      24.172  11.068   3.955  0.00  0.00    -0.097 SA
HETATM   30  S   UNK N   1      24.738  12.941   4.865  0.00  0.00    -0.095 SA
ENDROOT
BRANCH  13  31
HETATM   31  C   UNK N   1      22.184  12.513   1.333  0.00  0.00     0.008 C 
HETATM   32  C   UNK N   1      21.209  11.607   0.600  0.00  0.00     0.012 C 
HETATM   33  C   UNK N   1      23.027  13.231   0.291  0.00  0.00     0.012 C 
ENDBRANCH  13  31
BRANCH  17  34
HETATM   34  O   UNK N   1      21.187  15.412   0.844  0.00  0.00    -0.348 OA
HETATM   35  H   UNK N   1      20.264  15.553   0.763  0.00  0.00     0.219 HD
ENDBRANCH  17  34
BRANCH  12  36
HETATM   36  O   UNK N   1      17.940  12.659   2.947  0.00  0.00    -0.349 OA
HETATM   37  H   UNK N   1      17.167  13.021   3.334  0.00  0.00     0.219 HD
ENDBRANCH  12  36
BRANCH  16  38
HETATM   38  O   UNK N   1      24.022  17.654   3.495  0.00  0.00    -0.348 OA
HETATM   39  H   UNK N   1      24.580  18.403   3.574  0.00  0.00     0.219 HD
ENDBRANCH  16  38
BRANCH  15  40
HETATM   40  O   UNK N   1      22.287  15.625   6.889  0.00  0.00    -0.345 OA
HETATM   41  H   UNK N   1      21.351  15.605   6.879  0.00  0.00     0.219 HD
ENDBRANCH  15  40
BRANCH  14  42
HETATM   42  C   UNK N   1      23.139  12.690   9.560  0.00  0.00     0.010 C 
HETATM   43  C   UNK N   1      22.841  11.282  10.054  0.00  0.00     0.012 C 
HETATM   44  C   UNK N   1      24.607  13.034   9.755  0.00  0.00     0.012 C 
ENDBRANCH  14  42
TORSDOF 6
ENDMDL
MODEL 3
REMARK VINA RESULT:      -6.9     14.425     16.751
REMARK  6 active torsions:
REMARK  status: ('A' for Active; 'I' for Inactive)
REMARK    1  A    between atoms: C_19  and  C_13 
REMARK    2  A    between atoms: C_20  and  C_14 
REMARK    3  A    between atoms: C_18  and  O_33 
REMARK    4  A    between atoms: C_21  and  O_34 
REMARK    5  A    between atoms: O_35  and  C_22 
REMARK    6  A    between atoms: C_23  and  O_36 
ROOT
HETATM    1  C   UNK N   1      22.647  11.914   8.557  0.00  0.00     0.038 C 
HETATM    2  C   UNK N   1      21.987  11.927   7.215  0.00  0.00     0.003 C 
HETATM    3  C   UNK N   1      22.274  14.151   1.075  0.00  0.00    -0.027 C 
HETATM    4  C   UNK N   1      23.754  14.055   0.885  0.00  0.00     0.038 C 
HETATM    5  C   UNK N   1      21.828  15.125   1.859  0.00  0.00     0.002 C 
HETATM    6  C   UNK N   1      24.392  13.584   2.220  0.00  0.00     0.090 C 
HETATM    7  C   UNK N   1      19.743  16.540   2.250  0.00  0.00     0.120 C 
HETATM    8  C   UNK N   1      23.032  15.569   6.019  0.00  0.00     0.119 C 
HETATM    9  C   UNK N   1      20.464  15.205   2.486  0.00  0.00     0.162 C 
HETATM   10  C   UNK N   1      21.132  12.910   6.859  0.00  0.00     0.081 C 
HETATM   11  C   UNK N   1      21.513  15.831   6.297  0.00  0.00     0.168 C 
HETATM   12  C   UNK N   1      20.379  17.927   2.178  0.00  0.00     0.114 C 
HETATM   13  C   UNK N   1      22.011  17.800   4.074  0.00  0.00     0.161 C 
HETATM   14  C   UNK N   1      20.774  12.066   3.154  0.00  0.00     0.187 C 
HETATM   15  C   UNK N   1      20.493  12.907   5.502  0.00  0.00     0.163 C 
HETATM   16  C   UNK N   1      20.986  15.214   7.597  0.00  0.00     0.140 C 
HETATM   17  C   UNK N   1      21.461  18.149   5.444  0.00  0.00     0.135 C 
HETATM   18  C   UNK N   1      19.585  12.837   2.518  0.00  0.00     0.282 C 
HETATM   19  N   UNK N   1      20.863  13.942   7.801  0.00  0.00    -0.336 N 
ATOM     20  HN  UNK N   1      20.542  13.652   8.725  1.00  0.00     0.168 HD
HETATM   21  N   UNK N   1      21.268  17.266   6.374  0.00  0.00    -0.360 N 
ATOM     22  HN  UNK N   1      20.903  17.615   7.259  1.00  0.00     0.162 HD
HETATM   23  N   UNK N   1      21.250  18.427   3.004  0.00  0.00    -0.362 N 
ATOM     24  HN  UNK N   1      21.430  19.423   2.882  1.00  0.00     0.162 HD
HETATM   25  N   UNK N   1      21.080  12.247   4.562  0.00  0.00    -0.355 N 
ATOM     26  HN  UNK N   1      21.922  11.758   4.866  1.00  0.00     0.162 HD
HETATM   27  O   UNK N   1      18.614  12.190   2.162  0.00  0.00    -0.263 OA
HETATM   28  O   UNK N   1      19.580  14.175   2.202  0.00  0.00    -0.310 OA
HETATM   29  S   UNK N   1      24.654  14.907   3.492  0.00  0.00    -0.097 SA
HETATM   30  S   UNK N   1      23.491  14.034   5.086  0.00  0.00    -0.095 SA
ENDROOT
BRANCH  13  31
HETATM   31  C   UNK N   1      23.484  18.270   3.975  0.00  0.00     0.008 C 
HETATM   32  C   UNK N   1      23.610  19.640   3.331  0.00  0.00     0.012 C 
HETATM   33  C   UNK N   1      24.207  18.316   5.312  0.00  0.00     0.012 C 
ENDBRANCH  13  31
BRANCH  17  34
HETATM   34  O   UNK N   1      21.203  19.441   5.726  0.00  0.00    -0.348 OA
HETATM   35  H   UNK N   1      21.858  20.049   6.009  0.00  0.00     0.219 HD
ENDBRANCH  17  34
BRANCH  12  36
HETATM   36  O   UNK N   1      19.910  18.738   1.212  0.00  0.00    -0.349 OA
HETATM   37  H   UNK N   1      19.681  19.637   1.347  0.00  0.00     0.219 HD
ENDBRANCH  12  36
BRANCH  16  38
HETATM   38  O   UNK N   1      20.618  16.046   8.594  0.00  0.00    -0.348 OA
HETATM   39  H   UNK N   1      21.177  16.660   9.027  0.00  0.00     0.219 HD
ENDBRANCH  16  38
BRANCH  15  40
HETATM   40  O   UNK N   1      19.358  13.594   5.270  0.00  0.00    -0.345 OA
HETATM   41  H   UNK N   1      18.428  13.691   5.311  0.00  0.00     0.219 HD
ENDBRANCH  15  40
BRANCH  14  42
HETATM   42  C   UNK N   1      20.683  10.543   2.944  0.00  0.00     0.010 C 
HETATM   43  C   UNK N   1      21.352  10.070   1.662  0.00  0.00     0.012 C 
HETATM   44  C   UNK N   1      21.182   9.748   4.141  0.00  0.00     0.012 C 
ENDBRANCH  14  42
TORSDOF 6
ENDMDL
MODEL 4
REMARK VINA RESULT:      -6.9     14.190     16.234
REMARK  6 active torsions:
REMARK  status: ('A' for Active; 'I' for Inactive)
REMARK    1  A    between atoms: C_19  and  C_13 
REMARK    2  A    between atoms: C_20  and  C_14 
REMARK    3  A    between atoms: C_18  and  O_33 
REMARK    4  A    between atoms: C_21  and  O_34 
REMARK    5  A    between atoms: O_35  and  C_22 
REMARK    6  A    between atoms: C_23  and  O_36 
ROOT
HETATM    1  C   UNK N   1      17.697  13.494   0.075  0.00  0.00     0.038 C 
HETATM    2  C   UNK N   1      19.126  13.144   0.347  0.00  0.00     0.003 C 
HETATM    3  C   UNK N   1      23.599  11.885   4.943  0.00  0.00    -0.027 C 
HETATM    4  C   UNK N   1      22.726  11.115   5.882  0.00  0.00     0.038 C 
HETATM    5  C   UNK N   1      23.411  13.197   4.882  0.00  0.00     0.002 C 
HETATM    6  C   UNK N   1      21.279  11.112   5.319  0.00  0.00     0.090 C 
HETATM    7  C   UNK N   1      24.658  15.341   4.289  0.00  0.00     0.120 C 
HETATM    8  C   UNK N   1      19.594  15.005   3.825  0.00  0.00     0.119 C 
HETATM    9  C   UNK N   1      23.885  14.112   3.789  0.00  0.00     0.162 C 
HETATM   10  C   UNK N   1      20.048  14.095   0.608  0.00  0.00     0.081 C 
HETATM   11  C   UNK N   1      20.443  15.962   2.922  0.00  0.00     0.168 C 
HETATM   12  C   UNK N   1      24.394  16.133   5.568  0.00  0.00     0.114 C 
HETATM   13  C   UNK N   1      21.892  16.255   5.545  0.00  0.00     0.161 C 
HETATM   14  C   UNK N   1      22.924  11.842   1.709  0.00  0.00     0.187 C 
HETATM   15  C   UNK N   1      21.472  13.718   0.890  0.00  0.00     0.163 C 
HETATM   16  C   UNK N   1      19.801  16.304   1.574  0.00  0.00     0.140 C 
HETATM   17  C   UNK N   1      21.294  17.397   4.744  0.00  0.00     0.135 C 
HETATM   18  C   UNK N   1      24.260  12.634   1.775  0.00  0.00     0.282 C 
HETATM   19  N   UNK N   1      19.628  15.456   0.612  0.00  0.00    -0.336 N 
ATOM     20  HN  UNK N   1      19.148  15.793  -0.221  1.00  0.00     0.168 HD
HETATM   21  N   UNK N   1      20.673  17.221   3.619  0.00  0.00    -0.360 N 
ATOM     22  HN  UNK N   1      20.303  18.059   3.172  1.00  0.00     0.162 HD
HETATM   23  N   UNK N   1      23.242  16.555   5.999  0.00  0.00    -0.362 N 
ATOM     24  HN  UNK N   1      23.292  17.204   6.783  1.00  0.00     0.162 HD
HETATM   25  N   UNK N   1      21.704  12.520   1.308  0.00  0.00    -0.355 N 
ATOM     26  HN  UNK N   1      20.871  11.935   1.369  1.00  0.00     0.162 HD
HETATM   27  O   UNK N   1      25.124  12.357   0.959  0.00  0.00    -0.263 OA
HETATM   28  O   UNK N   1      24.606  13.535   2.754  0.00  0.00    -0.310 OA
HETATM   29  S   UNK N   1      20.283  12.638   5.663  0.00  0.00    -0.097 SA
HETATM   30  S   UNK N   1      19.836  13.178   3.622  0.00  0.00    -0.095 SA
ENDROOT
BRANCH  13  31
HETATM   31  C   UNK N   1      21.005  15.975   6.783  0.00  0.00     0.008 C 
HETATM   32  C   UNK N   1      21.709  15.108   7.813  0.00  0.00     0.012 C 
HETATM   33  C   UNK N   1      20.516  17.231   7.488  0.00  0.00     0.012 C 
ENDBRANCH  13  31
BRANCH  17  34
HETATM   34  O   UNK N   1      21.372  18.646   5.243  0.00  0.00    -0.348 OA
HETATM   35  H   UNK N   1      21.743  18.845   6.081  0.00  0.00     0.219 HD
ENDBRANCH  17  34
BRANCH  12  36
HETATM   36  O   UNK N   1      25.486  16.505   6.262  0.00  0.00    -0.349 OA
HETATM   37  H   UNK N   1      25.992  17.271   6.072  0.00  0.00     0.219 HD
ENDBRANCH  12  36
BRANCH  16  38
HETATM   38  O   UNK N   1      19.392  17.574   1.367  0.00  0.00    -0.348 OA
HETATM   39  H   UNK N   1      19.911  18.264   1.004  0.00  0.00     0.219 HD
ENDBRANCH  16  38
BRANCH  15  40
HETATM   40  O   UNK N   1      22.468  14.610   0.736  0.00  0.00    -0.345 OA
HETATM   41  H   UNK N   1      22.815  15.412   0.398  0.00  0.00     0.219 HD
ENDBRANCH  15  40
BRANCH  14  42
HETATM   42  C   UNK N   1      23.013  10.589   0.818  0.00  0.00     0.010 C 
HETATM   43  C   UNK N   1      23.590   9.379   1.536  0.00  0.00     0.012 C 
HETATM   44  C   UNK N   1      21.692  10.243   0.149  0.00  0.00     0.012 C 
ENDBRANCH  14  42
TORSDOF 6
ENDMDL
MODEL 5
REMARK VINA RESULT:      -6.7      2.007      7.298
REMARK  6 active torsions:
REMARK  status: ('A' for Active; 'I' for Inactive)
REMARK    1  A    between atoms: C_19  and  C_13 
REMARK    2  A    between atoms: C_20  and  C_14 
REMARK    3  A    between atoms: C_18  and  O_33 
REMARK    4  A    between atoms: C_21  and  O_34 
REMARK    5  A    between atoms: O_35  and  C_22 
REMARK    6  A    between atoms: C_23  and  O_36 
ROOT
HETATM    1  C   UNK N   1      33.713  23.744  -5.188  0.00  0.00     0.038 C 
HETATM    2  C   UNK N   1      32.901  22.680  -5.856  0.00  0.00     0.003 C 
HETATM    3  C   UNK N   1      28.476  21.369 -10.484  0.00  0.00    -0.027 C 
HETATM    4  C   UNK N   1      28.967  22.327 -11.523  0.00  0.00     0.038 C 
HETATM    5  C   UNK N   1      27.851  21.886  -9.434  0.00  0.00     0.002 C 
HETATM    6  C   UNK N   1      30.152  23.135 -10.927  0.00  0.00     0.090 C 
HETATM    7  C   UNK N   1      26.140  21.254  -7.652  0.00  0.00     0.120 C 
HETATM    8  C   UNK N   1      29.681  24.814  -6.782  0.00  0.00     0.119 C 
HETATM    9  C   UNK N   1      27.601  21.197  -8.122  0.00  0.00     0.162 C 
HETATM   10  C   UNK N   1      31.639  22.404  -5.463  0.00  0.00     0.081 C 
HETATM   11  C   UNK N   1      29.075  23.953  -5.623  0.00  0.00     0.168 C 
HETATM   12  C   UNK N   1      25.159  22.409  -7.842  0.00  0.00     0.114 C 
HETATM   13  C   UNK N   1      26.630  24.371  -7.329  0.00  0.00     0.161 C 
HETATM   14  C   UNK N   1      30.624  20.091  -8.323  0.00  0.00     0.187 C 
HETATM   15  C   UNK N   1      30.841  21.341  -6.158  0.00  0.00     0.163 C 
HETATM   16  C   UNK N   1      29.980  23.810  -4.394  0.00  0.00     0.140 C 
HETATM   17  C   UNK N   1      26.747  24.743  -5.863  0.00  0.00     0.135 C 
HETATM   18  C   UNK N   1      29.306  19.338  -7.991  0.00  0.00     0.282 C 
HETATM   19  N   UNK N   1      31.093  23.151  -4.381  0.00  0.00    -0.336 N 
ATOM     20  HN  UNK N   1      31.629  23.166  -3.514  1.00  0.00     0.168 HD
HETATM   21  N   UNK N   1      27.826  24.549  -5.169  0.00  0.00    -0.360 N 
ATOM     22  HN  UNK N   1      27.794  24.846  -4.194  1.00  0.00     0.162 HD
HETATM   23  N   UNK N   1      25.388  23.669  -7.616  0.00  0.00    -0.362 N 
ATOM     24  HN  UNK N   1      24.561  24.264  -7.645  1.00  0.00     0.162 HD
HETATM   25  N   UNK N   1      31.183  21.023  -7.360  0.00  0.00    -0.355 N 
ATOM     26  HN  UNK N   1      32.005  21.521  -7.701  1.00  0.00     0.162 HD
HETATM   27  O   UNK N   1      29.371  18.132  -7.812  0.00  0.00    -0.263 OA
HETATM   28  O   UNK N   1      28.046  19.889  -8.005  0.00  0.00    -0.310 OA
HETATM   29  S   UNK N   1      29.681  24.566  -9.847  0.00  0.00    -0.097 SA
HETATM   30  S   UNK N   1      30.715  23.951  -8.056  0.00  0.00    -0.095 SA
ENDROOT
BRANCH  13  31
HETATM   31  C   UNK N   1      26.683  25.656  -8.192  0.00  0.00     0.008 C 
HETATM   32  C   UNK N   1      25.535  25.734  -9.183  0.00  0.00     0.012 C 
HETATM   33  C   UNK N   1      26.688  26.943  -7.382  0.00  0.00     0.012 C 
ENDBRANCH  13  31
BRANCH  17  34
HETATM   34  O   UNK N   1      25.701  25.345  -5.263  0.00  0.00    -0.348 OA
HETATM   35  H   UNK N   1      25.189  24.940  -4.591  0.00  0.00     0.219 HD
ENDBRANCH  17  34
BRANCH  12  36
HETATM   36  O   UNK N   1      23.905  22.062  -8.188  0.00  0.00    -0.349 OA
HETATM   37  H   UNK N   1      23.220  21.893  -7.571  0.00  0.00     0.219 HD
ENDBRANCH  12  36
BRANCH  16  38
HETATM   38  O   UNK N   1      29.592  24.405  -3.246  0.00  0.00    -0.348 OA
HETATM   39  H   UNK N   1      29.292  23.963  -2.476  0.00  0.00     0.219 HD
ENDBRANCH  16  38
BRANCH  15  40
HETATM   40  O   UNK N   1      29.787  20.760  -5.554  0.00  0.00    -0.345 OA
HETATM   41  H   UNK N   1      29.235  20.619  -4.811  0.00  0.00     0.219 HD
ENDBRANCH  15  40
BRANCH  14  42
HETATM   42  C   UNK N   1      31.778  19.143  -8.700  0.00  0.00     0.010 C 
HETATM   43  C   UNK N   1      31.892  18.899 -10.197  0.00  0.00     0.012 C 
HETATM   44  C   UNK N   1      33.114  19.577  -8.118  0.00  0.00     0.012 C 
ENDBRANCH  14  42
TORSDOF 6
ENDMDL
MODEL 6
REMARK VINA RESULT:      -6.5     13.970     15.283
REMARK  6 active torsions:
REMARK  status: ('A' for Active; 'I' for Inactive)
REMARK    1  A    between atoms: C_19  and  C_13 
REMARK    2  A    between atoms: C_20  and  C_14 
REMARK    3  A    between atoms: C_18  and  O_33 
REMARK    4  A    between atoms: C_21  and  O_34 
REMARK    5  A    between atoms: O_35  and  C_22 
REMARK    6  A    between atoms: C_23  and  O_36 
ROOT
HETATM    1  C   UNK N   1      19.471  16.070  -0.226  0.00  0.00     0.038 C 
HETATM    2  C   UNK N   1      20.113  16.581   1.026  0.00  0.00     0.003 C 
HETATM    3  C   UNK N   1      25.195  16.036   5.100  0.00  0.00    -0.027 C 
HETATM    4  C   UNK N   1      26.258  15.786   4.079  0.00  0.00     0.038 C 
HETATM    5  C   UNK N   1      24.347  15.045   5.344  0.00  0.00     0.002 C 
HETATM    6  C   UNK N   1      25.589  15.708   2.679  0.00  0.00     0.090 C 
HETATM    7  C   UNK N   1      22.809  14.176   7.183  0.00  0.00     0.120 C 
HETATM    8  C   UNK N   1      21.856  13.234   2.267  0.00  0.00     0.119 C 
HETATM    9  C   UNK N   1      23.014  15.165   6.027  0.00  0.00     0.162 C 
HETATM   10  C   UNK N   1      19.904  15.985   2.219  0.00  0.00     0.081 C 
HETATM   11  C   UNK N   1      20.707  13.317   3.328  0.00  0.00     0.168 C 
HETATM   12  C   UNK N   1      23.320  12.739   7.263  0.00  0.00     0.114 C 
HETATM   13  C   UNK N   1      22.843  11.935   4.938  0.00  0.00     0.161 C 
HETATM   14  C   UNK N   1      22.546  17.827   4.267  0.00  0.00     0.187 C 
HETATM   15  C   UNK N   1      20.570  16.509   3.457  0.00  0.00     0.163 C 
HETATM   16  C   UNK N   1      19.336  13.691   2.756  0.00  0.00     0.140 C 
HETATM   17  C   UNK N   1      21.444  11.398   4.699  0.00  0.00     0.135 C 
HETATM   18  C   UNK N   1      22.339  17.588   5.788  0.00  0.00     0.282 C 
HETATM   19  N   UNK N   1      19.044  14.852   2.265  0.00  0.00    -0.336 N 
ATOM     20  HN  UNK N   1      18.109  14.966   1.873  1.00  0.00     0.168 HD
HETATM   21  N   UNK N   1      20.558  12.028   3.992  0.00  0.00    -0.360 N 
ATOM     22  HN  UNK N   1      19.653  11.569   3.890  1.00  0.00     0.162 HD
HETATM   23  N   UNK N   1      23.236  11.831   6.336  0.00  0.00    -0.362 N 
ATOM     24  HN  UNK N   1      23.486  10.889   6.638  1.00  0.00     0.162 HD
HETATM   25  N   UNK N   1      21.641  17.212   3.312  0.00  0.00    -0.355 N 
ATOM     26  HN  UNK N   1      21.904  17.367   2.339  1.00  0.00     0.162 HD
HETATM   27  O   UNK N   1      21.987  18.537   6.469  0.00  0.00    -0.263 OA
HETATM   28  O   UNK N   1      22.642  16.428   6.462  0.00  0.00    -0.310 OA
HETATM   29  S   UNK N   1      24.813  14.079   2.253  0.00  0.00    -0.097 SA
HETATM   30  S   UNK N   1      22.805  14.782   1.891  0.00  0.00    -0.095 SA
ENDROOT
BRANCH  13  31
HETATM   31  C   UNK N   1      23.855  11.136   4.079  0.00  0.00     0.008 C 
HETATM   32  C   UNK N   1      24.881  10.405   4.927  0.00  0.00     0.012 C 
HETATM   33  C   UNK N   1      23.208  10.120   3.151  0.00  0.00     0.012 C 
ENDBRANCH  13  31
BRANCH  17  34
HETATM   34  O   UNK N   1      21.120  10.193   5.205  0.00  0.00    -0.348 OA
HETATM   35  H   UNK N   1      20.368  10.045   5.746  0.00  0.00     0.219 HD
ENDBRANCH  17  34
BRANCH  12  36
HETATM   36  O   UNK N   1      23.821  12.360   8.454  0.00  0.00    -0.349 OA
HETATM   37  H   UNK N   1      24.118  11.492   8.645  0.00  0.00     0.219 HD
ENDBRANCH  12  36
BRANCH  16  38
HETATM   38  O   UNK N   1      18.363  12.755   2.770  0.00  0.00    -0.348 OA
HETATM   39  H   UNK N   1      18.090  12.240   2.037  0.00  0.00     0.219 HD
ENDBRANCH  16  38
BRANCH  15  40
HETATM   40  O   UNK N   1      20.077  16.229   4.679  0.00  0.00    -0.345 OA
HETATM   41  H   UNK N   1      20.184  16.029   5.587  0.00  0.00     0.219 HD
ENDBRANCH  15  40
BRANCH  14  42
HETATM   42  C   UNK N   1      22.587  19.321   3.894  0.00  0.00     0.010 C 
HETATM   43  C   UNK N   1      23.967  19.797   3.468  0.00  0.00     0.012 C 
HETATM   44  C   UNK N   1      21.539  19.703   2.860  0.00  0.00     0.012 C 
ENDBRANCH  14  42
TORSDOF 6
ENDMDL
MODEL 7
REMARK VINA RESULT:      -6.4     14.581     16.805
REMARK  6 active torsions:
REMARK  status: ('A' for Active; 'I' for Inactive)
REMARK    1  A    between atoms: C_19  and  C_13 
REMARK    2  A    between atoms: C_20  and  C_14 
REMARK    3  A    between atoms: C_18  and  O_33 
REMARK    4  A    between atoms: C_21  and  O_34 
REMARK    5  A    between atoms: O_35  and  C_22 
REMARK    6  A    between atoms: C_23  and  O_36 
ROOT
HETATM    1  C   UNK N   1      22.311   8.577   5.345  0.00  0.00     0.038 C 
HETATM    2  C   UNK N   1      22.701   9.509   4.242  0.00  0.00     0.003 C 
HETATM    3  C   UNK N   1      24.544  15.589   2.706  0.00  0.00    -0.027 C 
HETATM    4  C   UNK N   1      25.417  15.851   3.891  0.00  0.00     0.038 C 
HETATM    5  C   UNK N   1      23.233  15.583   2.912  0.00  0.00     0.002 C 
HETATM    6  C   UNK N   1      25.342  14.623   4.839  0.00  0.00     0.090 C 
HETATM    7  C   UNK N   1      21.041  15.957   1.665  0.00  0.00     0.120 C 
HETATM    8  C   UNK N   1      21.284  12.905   5.739  0.00  0.00     0.119 C 
HETATM    9  C   UNK N   1      22.194  14.999   1.997  0.00  0.00     0.162 C 
HETATM   10  C   UNK N   1      21.795  10.311   3.643  0.00  0.00     0.081 C 
HETATM   11  C   UNK N   1      20.229  12.682   4.604  0.00  0.00     0.168 C 
HETATM   12  C   UNK N   1      20.410  16.992   2.594  0.00  0.00     0.114 C 
HETATM   13  C   UNK N   1      20.269  15.690   4.730  0.00  0.00     0.161 C 
HETATM   14  C   UNK N   1      24.185  12.490   1.617  0.00  0.00     0.187 C 
HETATM   15  C   UNK N   1      22.214  11.247   2.548  0.00  0.00     0.163 C 
HETATM   16  C   UNK N   1      19.720  11.242   4.480  0.00  0.00     0.140 C 
HETATM   17  C   UNK N   1      19.034  14.825   4.896  0.00  0.00     0.135 C 
HETATM   18  C   UNK N   1      23.416  13.323   0.555  0.00  0.00     0.282 C 
HETATM   19  N   UNK N   1      20.443  10.245   4.083  0.00  0.00    -0.336 N 
ATOM     20  HN  UNK N   1      20.002   9.326   4.085  1.00  0.00     0.168 HD
HETATM   21  N   UNK N   1      19.067  13.529   4.839  0.00  0.00    -0.360 N 
ATOM     22  HN  UNK N   1      18.178  13.049   4.974  1.00  0.00     0.162 HD
HETATM   23  N   UNK N   1      20.037  16.806   3.826  0.00  0.00    -0.362 N 
ATOM     24  HN  UNK N   1      19.489  17.569   4.224  1.00  0.00     0.162 HD
HETATM   25  N   UNK N   1      23.455  11.592   2.494  0.00  0.00    -0.355 N 
ATOM     26  HN  UNK N   1      24.037  11.149   3.205  1.00  0.00     0.162 HD
HETATM   27  O   UNK N   1      23.596  13.049  -0.620  0.00  0.00    -0.263 OA
HETATM   28  O   UNK N   1      22.644  14.431   0.814  0.00  0.00    -0.310 OA
HETATM   29  S   UNK N   1      23.864  14.565   5.957  0.00  0.00    -0.097 SA
HETATM   30  S   UNK N   1      23.074  12.660   5.321  0.00  0.00    -0.095 SA
ENDROOT
BRANCH  13  31
HETATM   31  C   UNK N   1      20.694  16.251   6.109  0.00  0.00     0.008 C 
HETATM   32  C   UNK N   1      21.309  17.636   6.005  0.00  0.00     0.012 C 
HETATM   33  C   UNK N   1      19.561  16.319   7.122  0.00  0.00     0.012 C 
ENDBRANCH  13  31
BRANCH  17  34
HETATM   34  O   UNK N   1      17.857  15.424   5.159  0.00  0.00    -0.348 OA
HETATM   35  H   UNK N   1      17.537  16.165   4.683  0.00  0.00     0.219 HD
ENDBRANCH  17  34
BRANCH  12  36
HETATM   36  O   UNK N   1      20.133  18.186   2.039  0.00  0.00    -0.349 OA
HETATM   37  H   UNK N   1      19.841  18.298   1.155  0.00  0.00     0.219 HD
ENDBRANCH  12  36
BRANCH  16  38
HETATM   38  O   UNK N   1      18.432  10.993   4.797  0.00  0.00    -0.348 OA
HETATM   39  H   UNK N   1      17.935  11.438   5.455  0.00  0.00     0.219 HD
ENDBRANCH  16  38
BRANCH  15  40
HETATM   40  O   UNK N   1      21.315  11.729   1.668  0.00  0.00    -0.345 OA
HETATM   41  H   UNK N   1      21.044  11.947   0.799  0.00  0.00     0.219 HD
ENDBRANCH  15  40
BRANCH  14  42
HETATM   42  C   UNK N   1      25.319  11.644   1.010  0.00  0.00     0.010 C 
HETATM   43  C   UNK N   1      26.667  11.877   1.676  0.00  0.00     0.012 C 
HETATM   44  C   UNK N   1      24.990  10.160   0.958  0.00  0.00     0.012 C 
ENDBRANCH  14  42
TORSDOF 6
ENDMDL
MODEL 8
REMARK VINA RESULT:      -6.3     14.908     18.536
REMARK  6 active torsions:
REMARK  status: ('A' for Active; 'I' for Inactive)
REMARK    1  A    between atoms: C_19  and  C_13 
REMARK    2  A    between atoms: C_20  and  C_14 
REMARK    3  A    between atoms: C_18  and  O_33 
REMARK    4  A    between atoms: C_21  and  O_34 
REMARK    5  A    between atoms: O_35  and  C_22 
REMARK    6  A    between atoms: C_23  and  O_36 
ROOT
HETATM    1  C   UNK N   1      30.565  16.905   6.207  0.00  0.00     0.038 C 
HETATM    2  C   UNK N   1      31.676  16.067   5.656  0.00  0.00     0.003 C 
HETATM    3  C   UNK N   1      35.545  10.894   6.652  0.00  0.00    -0.027 C 
HETATM    4  C   UNK N   1      34.536   9.996   7.294  0.00  0.00     0.038 C 
HETATM    5  C   UNK N   1      35.998  11.909   7.378  0.00  0.00     0.002 C 
HETATM    6  C   UNK N   1      33.204  10.781   7.445  0.00  0.00     0.090 C 
HETATM    7  C   UNK N   1      38.030  13.437   7.576  0.00  0.00     0.120 C 
HETATM    8  C   UNK N   1      33.404  14.972   9.062  0.00  0.00     0.119 C 
HETATM    9  C   UNK N   1      36.710  13.125   6.856  0.00  0.00     0.162 C 
HETATM   10  C   UNK N   1      32.964  16.297   5.991  0.00  0.00     0.081 C 
HETATM   11  C   UNK N   1      34.486  15.986   8.557  0.00  0.00     0.168 C 
HETATM   12  C   UNK N   1      38.337  13.236   9.058  0.00  0.00     0.114 C 
HETATM   13  C   UNK N   1      36.214  14.063  10.100  0.00  0.00     0.161 C 
HETATM   14  C   UNK N   1      34.534  13.166   4.476  0.00  0.00     0.187 C 
HETATM   15  C   UNK N   1      34.060  15.436   5.436  0.00  0.00     0.163 C 
HETATM   16  C   UNK N   1      33.921  17.290   7.984  0.00  0.00     0.140 C 
HETATM   17  C   UNK N   1      36.137  15.558  10.344  0.00  0.00     0.135 C 
HETATM   18  C   UNK N   1      36.081  13.291   4.415  0.00  0.00     0.282 C 
HETATM   19  N   UNK N   1      33.247  17.370   6.882  0.00  0.00    -0.336 N 
ATOM     20  HN  UNK N   1      32.885  18.289   6.629  1.00  0.00     0.168 HD
HETATM   21  N   UNK N   1      35.371  16.348   9.656  0.00  0.00    -0.360 N 
ATOM     22  HN  UNK N   1      35.393  17.334   9.913  1.00  0.00     0.162 HD
HETATM   23  N   UNK N   1      37.588  13.586  10.063  0.00  0.00    -0.362 N 
ATOM     24  HN  UNK N   1      38.039  13.516  10.974  1.00  0.00     0.162 HD
HETATM   25  N   UNK N   1      33.744  14.256   5.020  0.00  0.00    -0.355 N 
ATOM     26  HN  UNK N   1      32.748  14.048   5.087  1.00  0.00     0.162 HD
HETATM   27  O   UNK N   1      36.600  13.377   3.314  0.00  0.00    -0.263 OA
HETATM   28  O   UNK N   1      36.934  13.184   5.489  0.00  0.00    -0.310 OA
HETATM   29  S   UNK N   1      33.106  11.915   8.908  0.00  0.00    -0.097 SA
HETATM   30  S   UNK N   1      32.719  13.753   7.845  0.00  0.00    -0.095 SA
ENDROOT
BRANCH  13  31
HETATM   31  C   UNK N   1      35.463  13.317  11.231  0.00  0.00     0.008 C 
HETATM   32  C   UNK N   1      35.972  11.900  11.426  0.00  0.00     0.012 C 
HETATM   33  C   UNK N   1      35.520  14.022  12.577  0.00  0.00     0.012 C 
ENDBRANCH  13  31
BRANCH  17  34
HETATM   34  O   UNK N   1      36.861  16.087  11.350  0.00  0.00    -0.348 OA
HETATM   35  H   UNK N   1      37.671  15.722  11.650  0.00  0.00     0.219 HD
ENDBRANCH  17  34
BRANCH  12  36
HETATM   36  O   UNK N   1      39.551  12.729   9.342  0.00  0.00    -0.349 OA
HETATM   37  H   UNK N   1      39.756  11.814   9.317  0.00  0.00     0.219 HD
ENDBRANCH  12  36
BRANCH  16  38
HETATM   38  O   UNK N   1      34.143  18.433   8.666  0.00  0.00    -0.348 OA
HETATM   39  H   UNK N   1      34.472  18.493   9.542  0.00  0.00     0.219 HD
ENDBRANCH  16  38
BRANCH  15  40
HETATM   40  O   UNK N   1      35.333  15.873   5.398  0.00  0.00    -0.345 OA
HETATM   41  H   UNK N   1      36.076  16.288   5.788  0.00  0.00     0.219 HD
ENDBRANCH  15  40
BRANCH  14  42
HETATM   42  C   UNK N   1      33.904  12.842   3.109  0.00  0.00     0.010 C 
HETATM   43  C   UNK N   1      33.684  11.353   2.884  0.00  0.00     0.012 C 
HETATM   44  C   UNK N   1      32.626  13.623   2.845  0.00  0.00     0.012 C 
ENDBRANCH  14  42
TORSDOF 6
ENDMDL
MODEL 9
REMARK VINA RESULT:      -6.3     17.759     21.170
REMARK  6 active torsions:
REMARK  status: ('A' for Active; 'I' for Inactive)
REMARK    1  A    between atoms: C_19  and  C_13 
REMARK    2  A    between atoms: C_20  and  C_14 
REMARK    3  A    between atoms: C_18  and  O_33 
REMARK    4  A    between atoms: C_21  and  O_34 
REMARK    5  A    between atoms: O_35  and  C_22 
REMARK    6  A    between atoms: C_23  and  O_36 
ROOT
HETATM    1  C   UNK N   1      33.470   9.022   5.929  0.00  0.00     0.038 C 
HETATM    2  C   UNK N   1      33.908  10.401   6.309  0.00  0.00     0.003 C 
HETATM    3  C   UNK N   1      38.156  13.955   9.781  0.00  0.00    -0.027 C 
HETATM    4  C   UNK N   1      39.367  13.104   9.567  0.00  0.00     0.038 C 
HETATM    5  C   UNK N   1      37.225  13.484  10.602  0.00  0.00     0.002 C 
HETATM    6  C   UNK N   1      38.951  11.852   8.747  0.00  0.00     0.090 C 
HETATM    7  C   UNK N   1      35.342  14.296  12.117  0.00  0.00     0.120 C 
HETATM    8  C   UNK N   1      35.220   9.669   9.987  0.00  0.00     0.119 C 
HETATM    9  C   UNK N   1      35.801  13.955  10.693  0.00  0.00     0.162 C 
HETATM   10  C   UNK N   1      33.460  10.999   7.434  0.00  0.00     0.081 C 
HETATM   11  C   UNK N   1      33.909  10.445  10.347  0.00  0.00     0.168 C 
HETATM   12  C   UNK N   1      35.752  13.589  13.408  0.00  0.00     0.114 C 
HETATM   13  C   UNK N   1      35.648  11.191  12.689  0.00  0.00     0.161 C 
HETATM   14  C   UNK N   1      35.797  14.016   7.468  0.00  0.00     0.187 C 
HETATM   15  C   UNK N   1      33.925  12.378   7.799  0.00  0.00     0.163 C 
HETATM   16  C   UNK N   1      32.682  10.045   9.521  0.00  0.00     0.140 C 
HETATM   17  C   UNK N   1      34.286  10.530  12.787  0.00  0.00     0.135 C 
HETATM   18  C   UNK N   1      35.313  15.085   8.486  0.00  0.00     0.282 C 
HETATM   19  N   UNK N   1      32.545  10.285   8.257  0.00  0.00    -0.336 N 
ATOM     20  HN  UNK N   1      31.701   9.928   7.808  1.00  0.00     0.168 HD
HETATM   21  N   UNK N   1      33.574  10.222  11.748  0.00  0.00    -0.360 N 
ATOM     22  HN  UNK N   1      32.678   9.772  11.932  1.00  0.00     0.162 HD
HETATM   23  N   UNK N   1      35.783  12.306  13.615  0.00  0.00    -0.362 N 
ATOM     24  HN  UNK N   1      35.924  12.035  14.588  1.00  0.00     0.162 HD
HETATM   25  N   UNK N   1      35.042  12.787   7.301  0.00  0.00    -0.355 N 
ATOM     26  HN  UNK N   1      35.480  12.119   6.667  1.00  0.00     0.162 HD
HETATM   27  O   UNK N   1      34.899  16.144   8.044  0.00  0.00    -0.263 OA
HETATM   28  O   UNK N   1      35.428  14.995   9.854  0.00  0.00    -0.310 OA
HETATM   29  S   UNK N   1      38.175  10.480   9.722  0.00  0.00    -0.097 SA
HETATM   30  S   UNK N   1      36.303  10.366   8.653  0.00  0.00    -0.095 SA
ENDROOT
BRANCH  13  31
HETATM   31  C   UNK N   1      36.750  10.150  13.005  0.00  0.00     0.008 C 
HETATM   32  C   UNK N   1      37.623  10.570  14.175  0.00  0.00     0.012 C 
HETATM   33  C   UNK N   1      36.215   8.757  13.299  0.00  0.00     0.012 C 
ENDBRANCH  13  31
BRANCH  17  34
HETATM   34  O   UNK N   1      33.812  10.207  14.006  0.00  0.00    -0.348 OA
HETATM   35  H   UNK N   1      33.212  10.745  14.486  0.00  0.00     0.219 HD
ENDBRANCH  17  34
BRANCH  12  36
HETATM   36  O   UNK N   1      36.014  14.390  14.458  0.00  0.00    -0.349 OA
HETATM   37  H   UNK N   1      35.478  15.117  14.709  0.00  0.00     0.219 HD
ENDBRANCH  12  36
BRANCH  16  38
HETATM   38  O   UNK N   1      31.672   9.406  10.150  0.00  0.00    -0.348 OA
HETATM   39  H   UNK N   1      30.778   9.390   9.871  0.00  0.00     0.219 HD
ENDBRANCH  16  38
BRANCH  15  40
HETATM   40  O   UNK N   1      33.210  13.149   8.641  0.00  0.00    -0.345 OA
HETATM   41  H   UNK N   1      32.416  13.374   9.082  0.00  0.00     0.219 HD
ENDBRANCH  15  40
BRANCH  14  42
HETATM   42  C   UNK N   1      35.985  14.582   6.048  0.00  0.00     0.010 C 
HETATM   43  C   UNK N   1      37.332  14.234   5.434  0.00  0.00     0.012 C 
HETATM   44  C   UNK N   1      34.849  14.211   5.107  0.00  0.00     0.012 C 
ENDBRANCH  14  42
TORSDOF 6
ENDMDL
