MODEL 1
REMARK VINA RESULT:      -8.1      0.000      0.000
REMARK  4 active torsions:
REMARK  status: ('A' for Active; 'I' for Inactive)
REMARK    1  A    between atoms: N_5  and  N_6 
REMARK       I    between atoms: N_6  and  C_15 
REMARK    2  A    between atoms: N_7  and  C_21 
REMARK    3  A    between atoms: C_15  and  C_16 
REMARK    4  A    between atoms: C_18  and  C_19 
ROOT
HETATM    1  N   UNK N   1      36.338  13.469  13.866  0.00  0.00    -0.253 N 
HETATM    2  N   UNK N   1      36.042  14.552  13.164  0.00  0.00    -0.287 N 
ATOM      3  HN  UNK N   1      35.608  15.392  13.546  1.00  0.00     0.188 HD
HETATM    4  C   UNK N   1      36.391  14.390  11.886  0.00  0.00     0.126 A 
HETATM    5  C   UNK N   1      36.955  13.149  11.730  0.00  0.00     0.001 A 
HETATM    6  C   UNK N   1      36.922  12.553  13.002  0.00  0.00     0.075 A 
HETATM    7  C   UNK N   1      37.463  12.595  10.437  0.00  0.00     0.053 C 
ENDROOT
BRANCH   4   8
HETATM    8  C   UNK N   1      36.116  15.423  10.871  0.00  0.00     0.284 C 
HETATM    9  O   UNK N   1      36.762  16.461  10.845  0.00  0.00    -0.265 OA
HETATM   10  N   UNK N   1      35.166  15.171   9.933  0.00  0.00    -0.284 N 
HETATM   11  H   UNK N   1      34.622  14.356  10.028  0.00  0.00     0.184 HD
BRANCH  10  12
HETATM   12  N   UNK N   1      34.920  16.004   8.846  0.00  0.00    -0.229 NA
HETATM   13  C   UNK N   1      34.635  15.120   7.715  0.00  0.00     0.113 C 
HETATM   14  C   UNK N   1      34.428  15.940   6.445  0.00  0.00     0.016 C 
HETATM   15  C   UNK N   1      33.281  16.925   6.649  0.00  0.00     0.002 C 
HETATM   16  C   UNK N   1      33.504  17.756   7.910  0.00  0.00     0.016 C 
HETATM   17  C   UNK N   1      33.733  16.823   9.098  0.00  0.00     0.113 C 
ENDBRANCH  10  12
ENDBRANCH   4   8
BRANCH   1  18
HETATM   18  C   UNK N   1      35.987  13.446  15.293  0.00  0.00     0.078 A 
HETATM   19  C   UNK N   1      36.446  14.462  16.204  0.00  0.00     0.064 A 
HETATM   20 Cl   UNK N   1      37.477  15.824  15.767  0.00  0.00    -0.082 Cl
HETATM   21  C   UNK N   1      36.069  14.417  17.551  0.00  0.00     0.050 A 
HETATM   22  C   UNK N   1      35.253  13.401  18.032  0.00  0.00     0.035 A 
HETATM   23 Cl   UNK N   1      34.791  13.377  19.719  0.00  0.00    -0.084 Cl
HETATM   24  C   UNK N   1      34.806  12.411  17.169  0.00  0.00     0.026 A 
HETATM   25  C   UNK N   1      35.172  12.443  15.823  0.00  0.00     0.035 A 
ENDBRANCH   1  18
BRANCH   6  26
HETATM   26  C   UNK N   1      37.443  11.148  13.254  0.00  0.00    -0.007 A 
HETATM   27  C   UNK N   1      38.384  10.930  14.282  0.00  0.00     0.015 A 
HETATM   28  C   UNK N   1      38.900   9.658  14.547  0.00  0.00     0.024 A 
HETATM   29  C   UNK N   1      38.484   8.569  13.783  0.00  0.00     0.034 A 
HETATM   30 Cl   UNK N   1      39.127   6.972  14.103  0.00  0.00    -0.084 Cl
HETATM   31  C   UNK N   1      37.555   8.756  12.764  0.00  0.00     0.024 A 
HETATM   32  C   UNK N   1      37.047  10.032  12.511  0.00  0.00     0.015 A 
ENDBRANCH   6  26
TORSDOF 4
ENDMDL
MODEL 2
REMARK VINA RESULT:      -7.7      6.852     11.051
REMARK  4 active torsions:
REMARK  status: ('A' for Active; 'I' for Inactive)
REMARK    1  A    between atoms: N_5  and  N_6 
REMARK       I    between atoms: N_6  and  C_15 
REMARK    2  A    between atoms: N_7  and  C_21 
REMARK    3  A    between atoms: C_15  and  C_16 
REMARK    4  A    between atoms: C_18  and  C_19 
ROOT
HETATM    1  N   UNK N   1      30.838  16.524   5.947  0.00  0.00    -0.253 N 
HETATM    2  N   UNK N   1      29.664  17.033   5.606  0.00  0.00    -0.287 N 
ATOM      3  HN  UNK N   1      29.207  16.888   4.705  1.00  0.00     0.188 HD
HETATM    4  C   UNK N   1      29.162  17.762   6.605  0.00  0.00     0.126 A 
HETATM    5  C   UNK N   1      30.034  17.730   7.664  0.00  0.00     0.001 A 
HETATM    6  C   UNK N   1      31.114  16.935   7.244  0.00  0.00     0.075 A 
HETATM    7  C   UNK N   1      29.827  18.437   8.966  0.00  0.00     0.053 C 
ENDROOT
BRANCH   4   8
HETATM    8  C   UNK N   1      27.890  18.493   6.466  0.00  0.00     0.284 C 
HETATM    9  O   UNK N   1      27.667  19.493   7.133  0.00  0.00    -0.265 OA
HETATM   10  N   UNK N   1      26.994  18.061   5.541  0.00  0.00    -0.284 N 
HETATM   11  H   UNK N   1      27.178  17.214   5.073  0.00  0.00     0.184 HD
BRANCH  10  12
HETATM   12  N   UNK N   1      25.828  18.749   5.220  0.00  0.00    -0.229 NA
HETATM   13  C   UNK N   1      26.131  19.520   4.015  0.00  0.00     0.113 C 
HETATM   14  C   UNK N   1      24.932  20.379   3.623  0.00  0.00     0.016 C 
HETATM   15  C   UNK N   1      23.716  19.489   3.389  0.00  0.00     0.002 C 
HETATM   16  C   UNK N   1      23.477  18.579   4.591  0.00  0.00     0.016 C 
HETATM   17  C   UNK N   1      24.756  17.803   4.902  0.00  0.00     0.113 C 
ENDBRANCH  10  12
ENDBRANCH   4   8
BRANCH   1  18
HETATM   18  C   UNK N   1      31.566  15.722   4.954  0.00  0.00     0.078 A 
HETATM   19  C   UNK N   1      32.710  16.240   4.250  0.00  0.00     0.064 A 
HETATM   20 Cl   UNK N   1      33.373  17.862   4.449  0.00  0.00    -0.082 Cl
HETATM   21  C   UNK N   1      33.389  15.435   3.330  0.00  0.00     0.050 A 
HETATM   22  C   UNK N   1      32.979  14.132   3.079  0.00  0.00     0.035 A 
HETATM   23 Cl   UNK N   1      33.855  13.146   1.930  0.00  0.00    -0.084 Cl
HETATM   24  C   UNK N   1      31.876  13.618   3.744  0.00  0.00     0.026 A 
HETATM   25  C   UNK N   1      31.188  14.409   4.666  0.00  0.00     0.035 A 
ENDBRANCH   1  18
BRANCH   6  26
HETATM   26  C   UNK N   1      32.317  16.664   8.133  0.00  0.00    -0.007 A 
HETATM   27  C   UNK N   1      33.385  17.584   8.155  0.00  0.00     0.015 A 
HETATM   28  C   UNK N   1      34.517  17.375   8.949  0.00  0.00     0.024 A 
HETATM   29  C   UNK N   1      34.606  16.233   9.742  0.00  0.00     0.034 A 
HETATM   30 Cl   UNK N   1      36.021  15.958  10.736  0.00  0.00    -0.084 Cl
HETATM   31  C   UNK N   1      33.564  15.310   9.740  0.00  0.00     0.024 A 
HETATM   32  C   UNK N   1      32.439  15.532   8.943  0.00  0.00     0.015 A 
ENDBRANCH   6  26
TORSDOF 4
ENDMDL
MODEL 3
REMARK VINA RESULT:      -7.7      3.371      5.099
REMARK  4 active torsions:
REMARK  status: ('A' for Active; 'I' for Inactive)
REMARK    1  A    between atoms: N_5  and  N_6 
REMARK       I    between atoms: N_6  and  C_15 
REMARK    2  A    between atoms: N_7  and  C_21 
REMARK    3  A    between atoms: C_15  and  C_16 
REMARK    4  A    between atoms: C_18  and  C_19 
ROOT
HETATM    1  N   UNK N   1      35.172  14.785  10.410  0.00  0.00    -0.253 N 
HETATM    2  N   UNK N   1      34.258  15.740  10.334  0.00  0.00    -0.287 N 
ATOM      3  HN  UNK N   1      33.746  16.119  11.131  1.00  0.00     0.188 HD
HETATM    4  C   UNK N   1      34.099  16.138   9.070  0.00  0.00     0.126 A 
HETATM    5  C   UNK N   1      34.953  15.425   8.267  0.00  0.00     0.001 A 
HETATM    6  C   UNK N   1      35.645  14.553   9.125  0.00  0.00     0.075 A 
HETATM    7  C   UNK N   1      35.061  15.578   6.783  0.00  0.00     0.053 C 
ENDROOT
BRANCH   4   8
HETATM    8  C   UNK N   1      33.095  17.150   8.697  0.00  0.00     0.284 C 
HETATM    9  O   UNK N   1      33.438  18.244   8.271  0.00  0.00    -0.265 OA
HETATM   10  N   UNK N   1      31.780  16.820   8.786  0.00  0.00    -0.284 N 
HETATM   11  H   UNK N   1      31.543  15.956   9.197  0.00  0.00     0.184 HD
BRANCH  10  12
HETATM   12  N   UNK N   1      30.750  17.635   8.329  0.00  0.00    -0.229 NA
HETATM   13  C   UNK N   1      30.246  17.005   7.108  0.00  0.00     0.113 C 
HETATM   14  C   UNK N   1      29.157  17.871   6.480  0.00  0.00     0.016 C 
HETATM   15  C   UNK N   1      28.022  18.076   7.477  0.00  0.00     0.002 C 
HETATM   16  C   UNK N   1      28.561  18.601   8.805  0.00  0.00     0.016 C 
HETATM   17  C   UNK N   1      29.663  17.670   9.310  0.00  0.00     0.113 C 
ENDBRANCH  10  12
ENDBRANCH   4   8
BRANCH   1  18
HETATM   18  C   UNK N   1      35.455  14.192  11.723  0.00  0.00     0.078 A 
HETATM   19  C   UNK N   1      35.153  12.815  12.016  0.00  0.00     0.064 A 
HETATM   20 Cl   UNK N   1      34.407  11.680  10.889  0.00  0.00    -0.082 Cl
HETATM   21  C   UNK N   1      35.460  12.282  13.272  0.00  0.00     0.050 A 
HETATM   22  C   UNK N   1      36.056  13.062  14.254  0.00  0.00     0.035 A 
HETATM   23 Cl   UNK N   1      36.437  12.365  15.812  0.00  0.00    -0.084 Cl
HETATM   24  C   UNK N   1      36.349  14.392  13.992  0.00  0.00     0.026 A 
HETATM   25  C   UNK N   1      36.050  14.938  12.743  0.00  0.00     0.035 A 
ENDBRANCH   1  18
BRANCH   6  26
HETATM   26  C   UNK N   1      36.684  13.568   8.616  0.00  0.00    -0.007 A 
HETATM   27  C   UNK N   1      38.051  13.812   8.859  0.00  0.00     0.015 A 
HETATM   28  C   UNK N   1      39.045  12.941   8.404  0.00  0.00     0.024 A 
HETATM   29  C   UNK N   1      38.691  11.799   7.689  0.00  0.00     0.034 A 
HETATM   30 Cl   UNK N   1      39.927  10.703   7.109  0.00  0.00    -0.084 Cl
HETATM   31  C   UNK N   1      37.348  11.533   7.437  0.00  0.00     0.024 A 
HETATM   32  C   UNK N   1      36.365  12.412   7.899  0.00  0.00     0.015 A 
ENDBRANCH   6  26
TORSDOF 4
ENDMDL
MODEL 4
REMARK VINA RESULT:      -7.7      8.928     14.412
REMARK  4 active torsions:
REMARK  status: ('A' for Active; 'I' for Inactive)
REMARK    1  A    between atoms: N_5  and  N_6 
REMARK       I    between atoms: N_6  and  C_15 
REMARK    2  A    between atoms: N_7  and  C_21 
REMARK    3  A    between atoms: C_15  and  C_16 
REMARK    4  A    between atoms: C_18  and  C_19 
ROOT
HETATM    1  N   UNK N   1      27.332  16.677   4.886  0.00  0.00    -0.253 N 
HETATM    2  N   UNK N   1      28.373  16.518   5.689  0.00  0.00    -0.287 N 
ATOM      3  HN  UNK N   1      28.936  15.670   5.751  1.00  0.00     0.188 HD
HETATM    4  C   UNK N   1      28.582  17.623   6.408  0.00  0.00     0.126 A 
HETATM    5  C   UNK N   1      27.648  18.566   6.061  0.00  0.00     0.001 A 
HETATM    6  C   UNK N   1      26.841  17.961   5.082  0.00  0.00     0.075 A 
HETATM    7  C   UNK N   1      27.549  19.934   6.658  0.00  0.00     0.053 C 
ENDROOT
BRANCH   4   8
HETATM    8  C   UNK N   1      29.644  17.694   7.428  0.00  0.00     0.284 C 
HETATM    9  O   UNK N   1      29.378  17.974   8.588  0.00  0.00    -0.265 OA
HETATM   10  N   UNK N   1      30.915  17.387   7.061  0.00  0.00    -0.284 N 
HETATM   11  H   UNK N   1      31.100  17.233   6.105  0.00  0.00     0.184 HD
BRANCH  10  12
HETATM   12  N   UNK N   1      31.971  17.278   7.961  0.00  0.00    -0.229 NA
HETATM   13  C   UNK N   1      32.232  15.846   8.108  0.00  0.00     0.113 C 
HETATM   14  C   UNK N   1      33.329  15.615   9.144  0.00  0.00     0.016 C 
HETATM   15  C   UNK N   1      34.600  16.343   8.720  0.00  0.00     0.002 C 
HETATM   16  C   UNK N   1      34.304  17.813   8.427  0.00  0.00     0.016 C 
HETATM   17  C   UNK N   1      33.171  17.909   7.407  0.00  0.00     0.113 C 
ENDBRANCH  10  12
ENDBRANCH   4   8
BRANCH   1  18
HETATM   18  C   UNK N   1      26.923  15.546   4.043  0.00  0.00     0.078 A 
HETATM   19  C   UNK N   1      25.840  14.673   4.416  0.00  0.00     0.064 A 
HETATM   20 Cl   UNK N   1      24.892  14.812   5.897  0.00  0.00    -0.082 Cl
HETATM   21  C   UNK N   1      25.466  13.622   3.573  0.00  0.00     0.050 A 
HETATM   22  C   UNK N   1      26.124  13.400   2.371  0.00  0.00     0.035 A 
HETATM   23 Cl   UNK N   1      25.627  12.083   1.332  0.00  0.00    -0.084 Cl
HETATM   24  C   UNK N   1      27.173  14.228   1.997  0.00  0.00     0.026 A 
HETATM   25  C   UNK N   1      27.557  15.281   2.827  0.00  0.00     0.035 A 
ENDBRANCH   1  18
BRANCH   6  26
HETATM   26  C   UNK N   1      25.662  18.678   4.445  0.00  0.00    -0.007 A 
HETATM   27  C   UNK N   1      24.351  18.241   4.724  0.00  0.00     0.015 A 
HETATM   28  C   UNK N   1      23.234  18.861   4.155  0.00  0.00     0.024 A 
HETATM   29  C   UNK N   1      23.407  19.938   3.288  0.00  0.00     0.034 A 
HETATM   30 Cl   UNK N   1      22.016  20.719   2.566  0.00  0.00    -0.084 Cl
HETATM   31  C   UNK N   1      24.691  20.391   2.998  0.00  0.00     0.024 A 
HETATM   32  C   UNK N   1      25.797  19.762   3.574  0.00  0.00     0.015 A 
ENDBRANCH   6  26
TORSDOF 4
ENDMDL
MODEL 5
REMARK VINA RESULT:      -7.6      2.214      2.843
REMARK  4 active torsions:
REMARK  status: ('A' for Active; 'I' for Inactive)
REMARK    1  A    between atoms: N_5  and  N_6 
REMARK       I    between atoms: N_6  and  C_15 
REMARK    2  A    between atoms: N_7  and  C_21 
REMARK    3  A    between atoms: C_15  and  C_16 
REMARK    4  A    between atoms: C_18  and  C_19 
ROOT
HETATM    1  N   UNK N   1      35.220  12.266  12.437  0.00  0.00    -0.253 N 
HETATM    2  N   UNK N   1      34.609  13.078  11.588  0.00  0.00    -0.287 N 
ATOM      3  HN  UNK N   1      34.203  13.980  11.837  1.00  0.00     0.188 HD
HETATM    4  C   UNK N   1      34.600  12.552  10.362  0.00  0.00     0.126 A 
HETATM    5  C   UNK N   1      35.242  11.340  10.390  0.00  0.00     0.001 A 
HETATM    6  C   UNK N   1      35.642  11.152  11.724  0.00  0.00     0.075 A 
HETATM    7  C   UNK N   1      35.427  10.440   9.210  0.00  0.00     0.053 C 
ENDROOT
BRANCH   4   8
HETATM    8  C   UNK N   1      33.928  13.225   9.236  0.00  0.00     0.284 C 
HETATM    9  O   UNK N   1      32.880  12.788   8.782  0.00  0.00    -0.265 OA
HETATM   10  N   UNK N   1      34.471  14.372   8.750  0.00  0.00    -0.284 N 
HETATM   11  H   UNK N   1      35.349  14.654   9.095  0.00  0.00     0.184 HD
BRANCH  10  12
HETATM   12  N   UNK N   1      33.853  15.169   7.791  0.00  0.00    -0.229 NA
HETATM   13  C   UNK N   1      33.505  16.419   8.467  0.00  0.00     0.113 C 
HETATM   14  C   UNK N   1      32.746  17.338   7.514  0.00  0.00     0.016 C 
HETATM   15  C   UNK N   1      33.599  17.622   6.282  0.00  0.00     0.002 C 
HETATM   16  C   UNK N   1      34.084  16.318   5.653  0.00  0.00     0.016 C 
HETATM   17  C   UNK N   1      34.793  15.476   6.712  0.00  0.00     0.113 C 
ENDBRANCH  10  12
ENDBRANCH   4   8
BRANCH   1  18
HETATM   18  C   UNK N   1      35.292  12.660  13.851  0.00  0.00     0.078 A 
HETATM   19  C   UNK N   1      34.495  12.014  14.861  0.00  0.00     0.064 A 
HETATM   20 Cl   UNK N   1      33.341  10.714  14.563  0.00  0.00    -0.082 Cl
HETATM   21  C   UNK N   1      34.612  12.403  16.200  0.00  0.00     0.050 A 
HETATM   22  C   UNK N   1      35.488  13.411  16.578  0.00  0.00     0.035 A 
HETATM   23 Cl   UNK N   1      35.619  13.870  18.261  0.00  0.00    -0.084 Cl
HETATM   24  C   UNK N   1      36.259  14.049  15.617  0.00  0.00     0.026 A 
HETATM   25  C   UNK N   1      36.155  13.671  14.279  0.00  0.00     0.035 A 
ENDBRANCH   1  18
BRANCH   6  26
HETATM   26  C   UNK N   1      36.378   9.904  12.183  0.00  0.00    -0.007 A 
HETATM   27  C   UNK N   1      35.642   8.793  12.642  0.00  0.00     0.015 A 
HETATM   28  C   UNK N   1      36.273   7.626  13.083  0.00  0.00     0.024 A 
HETATM   29  C   UNK N   1      37.663   7.545  13.077  0.00  0.00     0.034 A 
HETATM   30 Cl   UNK N   1      38.465   6.091  13.632  0.00  0.00    -0.084 Cl
HETATM   31  C   UNK N   1      38.414   8.628  12.627  0.00  0.00     0.024 A 
HETATM   32  C   UNK N   1      37.771   9.787  12.188  0.00  0.00     0.015 A 
ENDBRANCH   6  26
TORSDOF 4
ENDMDL
MODEL 6
REMARK VINA RESULT:      -7.6      3.669      7.745
REMARK  4 active torsions:
REMARK  status: ('A' for Active; 'I' for Inactive)
REMARK    1  A    between atoms: N_5  and  N_6 
REMARK       I    between atoms: N_6  and  C_15 
REMARK    2  A    between atoms: N_7  and  C_21 
REMARK    3  A    between atoms: C_15  and  C_16 
REMARK    4  A    between atoms: C_18  and  C_19 
ROOT
HETATM    1  N   UNK N   1      35.240  13.612  11.363  0.00  0.00    -0.253 N 
HETATM    2  N   UNK N   1      34.605  13.485  12.518  0.00  0.00    -0.287 N 
ATOM      3  HN  UNK N   1      33.862  14.104  12.844  1.00  0.00     0.188 HD
HETATM    4  C   UNK N   1      35.072  12.435  13.196  0.00  0.00     0.126 A 
HETATM    5  C   UNK N   1      36.056  11.827  12.458  0.00  0.00     0.001 A 
HETATM    6  C   UNK N   1      36.167  12.582  11.278  0.00  0.00     0.075 A 
HETATM    7  C   UNK N   1      36.828  10.621  12.888  0.00  0.00     0.053 C 
ENDROOT
BRANCH   4   8
HETATM    8  C   UNK N   1      34.579  12.103  14.545  0.00  0.00     0.284 C 
HETATM    9  O   UNK N   1      33.670  11.300  14.699  0.00  0.00    -0.265 OA
HETATM   10  N   UNK N   1      35.195  12.669  15.616  0.00  0.00    -0.284 N 
HETATM   11  H   UNK N   1      35.876  13.361  15.450  0.00  0.00     0.184 HD
BRANCH  10  12
HETATM   12  N   UNK N   1      34.915  12.324  16.935  0.00  0.00    -0.229 NA
HETATM   13  C   UNK N   1      35.726  11.142  17.225  0.00  0.00     0.113 C 
HETATM   14  C   UNK N   1      35.430  10.633  18.633  0.00  0.00     0.016 C 
HETATM   15  C   UNK N   1      35.717  11.734  19.649  0.00  0.00     0.002 C 
HETATM   16  C   UNK N   1      34.982  13.018  19.272  0.00  0.00     0.016 C 
HETATM   17  C   UNK N   1      35.334  13.400  17.835  0.00  0.00     0.113 C 
ENDBRANCH  10  12
ENDBRANCH   4   8
BRANCH   1  18
HETATM   18  C   UNK N   1      34.888  14.743  10.494  0.00  0.00     0.078 A 
HETATM   19  C   UNK N   1      34.011  14.586   9.363  0.00  0.00     0.064 A 
HETATM   20 Cl   UNK N   1      33.272  13.067   8.857  0.00  0.00    -0.082 Cl
HETATM   21  C   UNK N   1      33.680  15.693   8.574  0.00  0.00     0.050 A 
HETATM   22  C   UNK N   1      34.187  16.954   8.862  0.00  0.00     0.035 A 
HETATM   23 Cl   UNK N   1      33.748  18.321   7.864  0.00  0.00    -0.084 Cl
HETATM   24  C   UNK N   1      35.038  17.122   9.945  0.00  0.00     0.026 A 
HETATM   25  C   UNK N   1      35.375  16.028  10.742  0.00  0.00     0.035 A 
ENDBRANCH   1  18
BRANCH   6  26
HETATM   26  C   UNK N   1      37.172  12.243  10.189  0.00  0.00    -0.007 A 
HETATM   27  C   UNK N   1      38.455  12.827  10.223  0.00  0.00     0.015 A 
HETATM   28  C   UNK N   1      39.412  12.555   9.240  0.00  0.00     0.024 A 
HETATM   29  C   UNK N   1      39.102  11.688   8.194  0.00  0.00     0.034 A 
HETATM   30 Cl   UNK N   1      40.290  11.344   6.954  0.00  0.00    -0.084 Cl
HETATM   31  C   UNK N   1      37.843  11.097   8.138  0.00  0.00     0.024 A 
HETATM   32  C   UNK N   1      36.898  11.377   9.127  0.00  0.00     0.015 A 
ENDBRANCH   6  26
TORSDOF 4
ENDMDL
MODEL 7
REMARK VINA RESULT:      -7.5     12.274     14.493
REMARK  4 active torsions:
REMARK  status: ('A' for Active; 'I' for Inactive)
REMARK    1  A    between atoms: N_5  and  N_6 
REMARK       I    between atoms: N_6  and  C_15 
REMARK    2  A    between atoms: N_7  and  C_21 
REMARK    3  A    between atoms: C_15  and  C_16 
REMARK    4  A    between atoms: C_18  and  C_19 
ROOT
HETATM    1  N   UNK N   1      23.938  13.450   7.474  0.00  0.00    -0.253 N 
HETATM    2  N   UNK N   1      24.844  14.385   7.233  0.00  0.00    -0.287 N 
ATOM      3  HN  UNK N   1      25.415  14.839   7.946  1.00  0.00     0.188 HD
HETATM    4  C   UNK N   1      24.906  14.650   5.926  0.00  0.00     0.126 A 
HETATM    5  C   UNK N   1      24.010  13.850   5.264  0.00  0.00     0.001 A 
HETATM    6  C   UNK N   1      23.385  13.076   6.257  0.00  0.00     0.075 A 
HETATM    7  C   UNK N   1      23.779  13.862   3.786  0.00  0.00     0.053 C 
ENDROOT
BRANCH   4   8
HETATM    8  C   UNK N   1      25.792  15.700   5.390  0.00  0.00     0.284 C 
HETATM    9  O   UNK N   1      26.819  15.407   4.795  0.00  0.00    -0.265 OA
HETATM   10  N   UNK N   1      25.413  16.997   5.526  0.00  0.00    -0.284 N 
HETATM   11  H   UNK N   1      24.616  17.195   6.070  0.00  0.00     0.184 HD
BRANCH  10  12
HETATM   12  N   UNK N   1      26.090  18.061   4.939  0.00  0.00    -0.229 NA
HETATM   13  C   UNK N   1      25.109  19.136   4.795  0.00  0.00     0.113 C 
HETATM   14  C   UNK N   1      25.736  20.331   4.082  0.00  0.00     0.016 C 
HETATM   15  C   UNK N   1      26.947  20.822   4.868  0.00  0.00     0.002 C 
HETATM   16  C   UNK N   1      27.911  19.671   5.145  0.00  0.00     0.016 C 
HETATM   17  C   UNK N   1      27.157  18.530   5.826  0.00  0.00     0.113 C 
ENDBRANCH  10  12
ENDBRANCH   4   8
BRANCH   1  18
HETATM   18  C   UNK N   1      23.699  13.054   8.868  0.00  0.00     0.078 A 
HETATM   19  C   UNK N   1      22.420  13.240   9.502  0.00  0.00     0.064 A 
HETATM   20 Cl   UNK N   1      21.005  13.964   8.736  0.00  0.00    -0.082 Cl
HETATM   21  C   UNK N   1      22.226  12.827  10.824  0.00  0.00     0.050 A 
HETATM   22  C   UNK N   1      23.254  12.235  11.547  0.00  0.00     0.035 A 
HETATM   23 Cl   UNK N   1      22.980  11.719  13.195  0.00  0.00    -0.084 Cl
HETATM   24  C   UNK N   1      24.495  12.052  10.954  0.00  0.00     0.026 A 
HETATM   25  C   UNK N   1      24.703  12.458   9.636  0.00  0.00     0.035 A 
ENDBRANCH   1  18
BRANCH   6  26
HETATM   26  C   UNK N   1      22.300  12.062   5.933  0.00  0.00    -0.007 A 
HETATM   27  C   UNK N   1      20.992  12.510   5.656  0.00  0.00     0.015 A 
HETATM   28  C   UNK N   1      19.957  11.617   5.362  0.00  0.00     0.024 A 
HETATM   29  C   UNK N   1      20.210  10.247   5.340  0.00  0.00     0.034 A 
HETATM   30 Cl   UNK N   1      18.921   9.118   4.978  0.00  0.00    -0.084 Cl
HETATM   31  C   UNK N   1      21.493   9.779   5.609  0.00  0.00     0.024 A 
HETATM   32  C   UNK N   1      22.517  10.683   5.900  0.00  0.00     0.015 A 
ENDBRANCH   6  26
TORSDOF 4
ENDMDL
MODEL 8
REMARK VINA RESULT:      -7.5      8.870     12.087
REMARK  4 active torsions:
REMARK  status: ('A' for Active; 'I' for Inactive)
REMARK    1  A    between atoms: N_5  and  N_6 
REMARK       I    between atoms: N_6  and  C_15 
REMARK    2  A    between atoms: N_7  and  C_21 
REMARK    3  A    between atoms: C_15  and  C_16 
REMARK    4  A    between atoms: C_18  and  C_19 
ROOT
HETATM    1  N   UNK N   1      29.139  16.596   5.542  0.00  0.00    -0.253 N 
HETATM    2  N   UNK N   1      28.468  15.608   4.969  0.00  0.00    -0.287 N 
ATOM      3  HN  UNK N   1      27.514  15.682   4.615  1.00  0.00     0.188 HD
HETATM    4  C   UNK N   1      29.214  14.503   4.918  0.00  0.00     0.126 A 
HETATM    5  C   UNK N   1      30.442  14.766   5.472  0.00  0.00     0.001 A 
HETATM    6  C   UNK N   1      30.397  16.112   5.875  0.00  0.00     0.075 A 
HETATM    7  C   UNK N   1      31.551  13.773   5.608  0.00  0.00     0.053 C 
ENDROOT
BRANCH   4   8
HETATM    8  C   UNK N   1      28.686  13.236   4.383  0.00  0.00     0.284 C 
HETATM    9  O   UNK N   1      28.925  12.173   4.939  0.00  0.00    -0.265 OA
HETATM   10  N   UNK N   1      27.882  13.282   3.288  0.00  0.00    -0.284 N 
HETATM   11  H   UNK N   1      27.768  14.146   2.829  0.00  0.00     0.184 HD
BRANCH  10  12
HETATM   12  N   UNK N   1      27.210  12.173   2.781  0.00  0.00    -0.229 NA
HETATM   13  C   UNK N   1      25.819  12.589   2.603  0.00  0.00     0.113 C 
HETATM   14  C   UNK N   1      24.975  11.412   2.121  0.00  0.00     0.016 C 
HETATM   15  C   UNK N   1      25.540  10.877   0.809  0.00  0.00     0.002 C 
HETATM   16  C   UNK N   1      27.029  10.573   0.949  0.00  0.00     0.016 C 
HETATM   17  C   UNK N   1      27.753  11.814   1.469  0.00  0.00     0.113 C 
ENDBRANCH  10  12
ENDBRANCH   4   8
BRANCH   1  18
HETATM   18  C   UNK N   1      28.461  17.886   5.724  0.00  0.00     0.078 A 
HETATM   19  C   UNK N   1      28.011  18.333   7.017  0.00  0.00     0.064 A 
HETATM   20 Cl   UNK N   1      28.180  17.422   8.518  0.00  0.00    -0.082 Cl
HETATM   21  C   UNK N   1      27.391  19.579   7.151  0.00  0.00     0.050 A 
HETATM   22  C   UNK N   1      27.198  20.404   6.051  0.00  0.00     0.035 A 
HETATM   23 Cl   UNK N   1      26.429  21.962   6.251  0.00  0.00    -0.084 Cl
HETATM   24  C   UNK N   1      27.620  19.988   4.796  0.00  0.00     0.026 A 
HETATM   25  C   UNK N   1      28.241  18.748   4.647  0.00  0.00     0.035 A 
ENDBRANCH   1  18
BRANCH   6  26
HETATM   26  C   UNK N   1      31.570  16.794   6.560  0.00  0.00    -0.007 A 
HETATM   27  C   UNK N   1      32.697  17.165   5.800  0.00  0.00     0.015 A 
HETATM   28  C   UNK N   1      33.805  17.787   6.385  0.00  0.00     0.024 A 
HETATM   29  C   UNK N   1      33.808  18.050   7.753  0.00  0.00     0.034 A 
HETATM   30 Cl   UNK N   1      35.191  18.823   8.498  0.00  0.00    -0.084 Cl
HETATM   31  C   UNK N   1      32.707  17.695   8.527  0.00  0.00     0.024 A 
HETATM   32  C   UNK N   1      31.607  17.076   7.928  0.00  0.00     0.015 A 
ENDBRANCH   6  26
TORSDOF 4
ENDMDL
MODEL 9
REMARK VINA RESULT:      -7.4     19.856     23.182
REMARK  4 active torsions:
REMARK  status: ('A' for Active; 'I' for Inactive)
REMARK    1  A    between atoms: N_5  and  N_6 
REMARK       I    between atoms: N_6  and  C_15 
REMARK    2  A    between atoms: N_7  and  C_21 
REMARK    3  A    between atoms: C_15  and  C_16 
REMARK    4  A    between atoms: C_18  and  C_19 
ROOT
HETATM    1  N   UNK N   1      29.761  21.448  -6.715  0.00  0.00    -0.253 N 
HETATM    2  N   UNK N   1      28.984  22.350  -6.135  0.00  0.00    -0.287 N 
ATOM      3  HN  UNK N   1      29.242  22.900  -5.316  1.00  0.00     0.188 HD
HETATM    4  C   UNK N   1      27.815  22.439  -6.774  0.00  0.00     0.126 A 
HETATM    5  C   UNK N   1      27.816  21.567  -7.833  0.00  0.00     0.001 A 
HETATM    6  C   UNK N   1      29.067  20.927  -7.798  0.00  0.00     0.075 A 
HETATM    7  C   UNK N   1      26.677  21.369  -8.781  0.00  0.00     0.053 C 
ENDROOT
BRANCH   4   8
HETATM    8  C   UNK N   1      26.738  23.327  -6.298  0.00  0.00     0.284 C 
HETATM    9  O   UNK N   1      25.581  22.936  -6.252  0.00  0.00    -0.265 OA
HETATM   10  N   UNK N   1      27.071  24.570  -5.861  0.00  0.00    -0.284 N 
HETATM   11  H   UNK N   1      28.001  24.871  -5.978  0.00  0.00     0.184 HD
BRANCH  10  12
HETATM   12  N   UNK N   1      26.168  25.440  -5.258  0.00  0.00    -0.229 NA
HETATM   13  C   UNK N   1      26.927  26.174  -4.246  0.00  0.00     0.113 C 
HETATM   14  C   UNK N   1      26.002  27.105  -3.467  0.00  0.00     0.016 C 
HETATM   15  C   UNK N   1      25.322  28.077  -4.427  0.00  0.00     0.002 C 
HETATM   16  C   UNK N   1      24.646  27.320  -5.567  0.00  0.00     0.016 C 
HETATM   17  C   UNK N   1      25.664  26.401  -6.241  0.00  0.00     0.113 C 
ENDBRANCH  10  12
ENDBRANCH   4   8
BRANCH   1  18
HETATM   18  C   UNK N   1      31.080  21.182  -6.123  0.00  0.00     0.078 A 
HETATM   19  C   UNK N   1      32.300  21.426  -6.847  0.00  0.00     0.064 A 
HETATM   20 Cl   UNK N   1      32.393  22.040  -8.498  0.00  0.00    -0.082 Cl
HETATM   21  C   UNK N   1      33.536  21.182  -6.239  0.00  0.00     0.050 A 
HETATM   22  C   UNK N   1      33.611  20.703  -4.938  0.00  0.00     0.035 A 
HETATM   23 Cl   UNK N   1      35.171  20.415  -4.201  0.00  0.00    -0.084 Cl
HETATM   24  C   UNK N   1      32.445  20.456  -4.228  0.00  0.00     0.026 A 
HETATM   25  C   UNK N   1      31.205  20.696  -4.820  0.00  0.00     0.035 A 
ENDBRANCH   1  18
BRANCH   6  26
HETATM   26  C   UNK N   1      29.461  19.860  -8.805  0.00  0.00    -0.007 A 
HETATM   27  C   UNK N   1      29.910  18.604  -8.347  0.00  0.00     0.015 A 
HETATM   28  C   UNK N   1      30.293  17.593  -9.233  0.00  0.00     0.024 A 
HETATM   29  C   UNK N   1      30.237  17.818 -10.607  0.00  0.00     0.034 A 
HETATM   30 Cl   UNK N   1      30.719  16.562 -11.727  0.00  0.00    -0.084 Cl
HETATM   31  C   UNK N   1      29.796  19.049 -11.086  0.00  0.00     0.024 A 
HETATM   32  C   UNK N   1      29.415  20.049 -10.189  0.00  0.00     0.015 A 
ENDBRANCH   6  26
TORSDOF 4
ENDMDL
