MODEL 1
REMARK VINA RESULT:      -4.5      0.000      0.000
REMARK  6 active torsions:
REMARK  status: ('A' for Active; 'I' for Inactive)
REMARK    1  A    between atoms: C_4  and  C_2 
REMARK    2  A    between atoms: N_6  and  C_2 
REMARK    3  A    between atoms: C_5  and  C_3 
REMARK    4  A    between atoms: S_11  and  C_3 
REMARK    5  A    between atoms: O_9  and  C_4 
REMARK    6  A    between atoms: O_10  and  C_5 
ROOT
HETATM    1  C   UNK N   1      22.960  20.503   3.019  0.00  0.00     0.125 C 
HETATM    2  N   UNK N   1      21.989  19.694   2.798  0.00  0.00    -0.364 N 
ATOM      3  HN  UNK N   1      22.168  18.692   2.868  1.00  0.00     0.161 HD
ENDROOT
BRANCH   1   4
HETATM    4  C   UNK N   1      24.306  19.947   3.369  0.00  0.00     0.114 C 
HETATM    5  C   UNK N   1      25.571  20.493   2.740  0.00  0.00     0.030 C 
BRANCH   4   6
HETATM    6  S   UNK N   1      24.438  18.588   4.573  0.00  0.00    -0.170 SA
HETATM    7  H   UNK N   1      24.148  17.313   4.196  0.00  0.00     0.102 HD
ENDBRANCH   4   6
ENDBRANCH   1   4
BRANCH   1   8
HETATM    8  O   UNK N   1      22.780  21.842   2.940  0.00  0.00    -0.349 OA
HETATM    9  H   UNK N   1      22.512  22.231   2.130  0.00  0.00     0.219 HD
ENDBRANCH   1   8
BRANCH   2  10
HETATM   10  C   UNK N   1      20.658  20.128   2.455  0.00  0.00     0.231 C 
BRANCH  10  11
HETATM   11  C   UNK N   1      20.643  20.623   1.041  0.00  0.00     0.158 C 
HETATM   12  O   UNK N   1      20.665  21.821   0.819  0.00  0.00    -0.649 OA
BRANCH  11  13
HETATM   13  O   UNK N   1      20.604  19.754   0.009  0.00  0.00    -0.775 OA
HETATM   14  H   UNK N   1      20.269  20.028  -0.821  0.00  0.00     0.167 HD
ENDBRANCH  11  13
ENDBRANCH  10  11
ENDBRANCH   2  10
TORSDOF 6
ENDMDL
MODEL 2
REMARK VINA RESULT:      -4.5      2.925      4.045
REMARK  6 active torsions:
REMARK  status: ('A' for Active; 'I' for Inactive)
REMARK    1  A    between atoms: C_4  and  C_2 
REMARK    2  A    between atoms: N_6  and  C_2 
REMARK    3  A    between atoms: C_5  and  C_3 
REMARK    4  A    between atoms: S_11  and  C_3 
REMARK    5  A    between atoms: O_9  and  C_4 
REMARK    6  A    between atoms: O_10  and  C_5 
ROOT
HETATM    1  C   UNK N   1      19.800  18.265   2.276  0.00  0.00     0.125 C 
HETATM    2  N   UNK N   1      20.766  19.107   2.199  0.00  0.00    -0.364 N 
ATOM      3  HN  UNK N   1      21.708  18.750   2.037  1.00  0.00     0.161 HD
ENDROOT
BRANCH   1   4
HETATM    4  C   UNK N   1      20.095  16.804   2.125  0.00  0.00     0.114 C 
HETATM    5  C   UNK N   1      20.084  16.135   0.766  0.00  0.00     0.030 C 
BRANCH   4   6
HETATM    6  S   UNK N   1      20.475  15.801   3.596  0.00  0.00    -0.170 SA
HETATM    7  H   UNK N   1      21.625  16.019   4.290  0.00  0.00     0.102 HD
ENDBRANCH   4   6
ENDBRANCH   1   4
BRANCH   1   8
HETATM    8  O   UNK N   1      18.531  18.682   2.489  0.00  0.00    -0.349 OA
HETATM    9  H   UNK N   1      18.175  19.380   1.976  0.00  0.00     0.219 HD
ENDBRANCH   1   8
BRANCH   2  10
HETATM   10  C   UNK N   1      20.588  20.531   2.330  0.00  0.00     0.231 C 
BRANCH  10  11
HETATM   11  C   UNK N   1      20.734  21.178   0.987  0.00  0.00     0.158 C 
HETATM   12  O   UNK N   1      21.168  20.535   0.048  0.00  0.00    -0.649 OA
BRANCH  11  13
HETATM   13  O   UNK N   1      20.388  22.470   0.807  0.00  0.00    -0.775 OA
HETATM   14  H   UNK N   1      20.403  22.843  -0.053  0.00  0.00     0.167 HD
ENDBRANCH  11  13
ENDBRANCH  10  11
ENDBRANCH   2  10
TORSDOF 6
ENDMDL
MODEL 3
REMARK VINA RESULT:      -4.4     10.795     12.392
REMARK  6 active torsions:
REMARK  status: ('A' for Active; 'I' for Inactive)
REMARK    1  A    between atoms: C_4  and  C_2 
REMARK    2  A    between atoms: N_6  and  C_2 
REMARK    3  A    between atoms: C_5  and  C_3 
REMARK    4  A    between atoms: S_11  and  C_3 
REMARK    5  A    between atoms: O_9  and  C_4 
REMARK    6  A    between atoms: O_10  and  C_5 
ROOT
HETATM    1  C   UNK N   1      31.469  17.323   8.146  0.00  0.00     0.125 C 
HETATM    2  N   UNK N   1      32.402  17.633   8.970  0.00  0.00    -0.364 N 
ATOM      3  HN  UNK N   1      32.163  18.207   9.779  1.00  0.00     0.161 HD
ENDROOT
BRANCH   1   4
HETATM    4  C   UNK N   1      30.077  17.814   8.404  0.00  0.00     0.114 C 
HETATM    5  C   UNK N   1      29.748  18.636   9.633  0.00  0.00     0.030 C 
BRANCH   4   6
HETATM    6  S   UNK N   1      28.746  17.421   7.226  0.00  0.00    -0.170 SA
HETATM    7  H   UNK N   1      29.021  16.708   6.101  0.00  0.00     0.102 HD
ENDBRANCH   4   6
ENDBRANCH   1   4
BRANCH   1   8
HETATM    8  O   UNK N   1      31.729  16.565   7.056  0.00  0.00    -0.349 OA
HETATM    9  H   UNK N   1      32.096  15.709   7.159  0.00  0.00     0.219 HD
ENDBRANCH   1   8
BRANCH   2  10
HETATM   10  C   UNK N   1      33.771  17.212   8.813  0.00  0.00     0.231 C 
BRANCH  10  11
HETATM   11  C   UNK N   1      34.505  18.204   7.964  0.00  0.00     0.158 C 
HETATM   12  O   UNK N   1      34.436  18.131   6.749  0.00  0.00    -0.649 OA
BRANCH  11  13
HETATM   13  O   UNK N   1      35.243  19.181   8.532  0.00  0.00    -0.775 OA
HETATM   14  H   UNK N   1      35.899  19.623   8.030  0.00  0.00     0.167 HD
ENDBRANCH  11  13
ENDBRANCH  10  11
ENDBRANCH   2  10
TORSDOF 6
ENDMDL
MODEL 4
REMARK VINA RESULT:      -4.2     13.551     14.854
REMARK  6 active torsions:
REMARK  status: ('A' for Active; 'I' for Inactive)
REMARK    1  A    between atoms: C_4  and  C_2 
REMARK    2  A    between atoms: N_6  and  C_2 
REMARK    3  A    between atoms: C_5  and  C_3 
REMARK    4  A    between atoms: S_11  and  C_3 
REMARK    5  A    between atoms: O_9  and  C_4 
REMARK    6  A    between atoms: O_10  and  C_5 
ROOT
HETATM    1  C   UNK N   1      34.800  16.109  10.168  0.00  0.00     0.125 C 
HETATM    2  N   UNK N   1      34.035  16.200   9.142  0.00  0.00    -0.364 N 
ATOM      3  HN  UNK N   1      33.859  15.358   8.593  1.00  0.00     0.161 HD
ENDROOT
BRANCH   1   4
HETATM    4  C   UNK N   1      35.397  14.779  10.515  0.00  0.00     0.114 C 
HETATM    5  C   UNK N   1      35.616  14.366  11.956  0.00  0.00     0.030 C 
BRANCH   4   6
HETATM    6  S   UNK N   1      35.875  13.628   9.188  0.00  0.00    -0.170 SA
HETATM    7  H   UNK N   1      37.189  13.444   8.887  0.00  0.00     0.102 HD
ENDBRANCH   4   6
ENDBRANCH   1   4
BRANCH   1   8
HETATM    8  O   UNK N   1      35.068  17.192  10.933  0.00  0.00    -0.349 OA
HETATM    9  H   UNK N   1      34.587  17.339  11.723  0.00  0.00     0.219 HD
ENDBRANCH   1   8
BRANCH   2  10
HETATM   10  C   UNK N   1      33.412  17.430   8.724  0.00  0.00     0.231 C 
BRANCH  10  11
HETATM   11  C   UNK N   1      34.371  18.216   7.883  0.00  0.00     0.158 C 
HETATM   12  O   UNK N   1      35.036  19.102   8.390  0.00  0.00    -0.649 OA
BRANCH  11  13
HETATM   13  O   UNK N   1      34.505  17.951   6.566  0.00  0.00    -0.775 OA
HETATM   14  H   UNK N   1      34.783  18.626   5.979  0.00  0.00     0.167 HD
ENDBRANCH  11  13
ENDBRANCH  10  11
ENDBRANCH   2  10
TORSDOF 6
ENDMDL
MODEL 5
REMARK VINA RESULT:      -4.1     16.471     17.940
REMARK  6 active torsions:
REMARK  status: ('A' for Active; 'I' for Inactive)
REMARK    1  A    between atoms: C_4  and  C_2 
REMARK    2  A    between atoms: N_6  and  C_2 
REMARK    3  A    between atoms: C_5  and  C_3 
REMARK    4  A    between atoms: S_11  and  C_3 
REMARK    5  A    between atoms: O_9  and  C_4 
REMARK    6  A    between atoms: O_10  and  C_5 
ROOT
HETATM    1  C   UNK N   1      35.663  13.847  13.488  0.00  0.00     0.125 C 
HETATM    2  N   UNK N   1      36.368  14.594  12.718  0.00  0.00    -0.364 N 
ATOM      3  HN  UNK N   1      37.160  15.095  13.121  1.00  0.00     0.161 HD
ENDROOT
BRANCH   1   4
HETATM    4  C   UNK N   1      36.031  13.742  14.936  0.00  0.00     0.114 C 
HETATM    5  C   UNK N   1      37.111  14.617  15.539  0.00  0.00     0.030 C 
BRANCH   4   6
HETATM    6  S   UNK N   1      35.171  12.545  16.004  0.00  0.00    -0.170 SA
HETATM    7  H   UNK N   1      34.046  11.922  15.560  0.00  0.00     0.102 HD
ENDBRANCH   4   6
ENDBRANCH   1   4
BRANCH   1   8
HETATM    8  O   UNK N   1      34.602  13.160  13.007  0.00  0.00    -0.349 OA
HETATM    9  H   UNK N   1      33.781  13.190  13.458  0.00  0.00     0.219 HD
ENDBRANCH   1   8
BRANCH   2  10
HETATM   10  C   UNK N   1      36.097  14.762  11.313  0.00  0.00     0.231 C 
BRANCH  10  11
HETATM   11  C   UNK N   1      34.993  15.758  11.131  0.00  0.00     0.158 C 
HETATM   12  O   UNK N   1      35.260  16.937  10.977  0.00  0.00    -0.649 OA
BRANCH  11  13
HETATM   13  O   UNK N   1      33.703  15.361  11.137  0.00  0.00    -0.775 OA
HETATM   14  H   UNK N   1      33.480  14.490  10.876  0.00  0.00     0.167 HD
ENDBRANCH  11  13
ENDBRANCH  10  11
ENDBRANCH   2  10
TORSDOF 6
ENDMDL
MODEL 6
REMARK VINA RESULT:      -4.1     10.429     12.035
REMARK  6 active torsions:
REMARK  status: ('A' for Active; 'I' for Inactive)
REMARK    1  A    between atoms: C_4  and  C_2 
REMARK    2  A    between atoms: N_6  and  C_2 
REMARK    3  A    between atoms: C_5  and  C_3 
REMARK    4  A    between atoms: S_11  and  C_3 
REMARK    5  A    between atoms: O_9  and  C_4 
REMARK    6  A    between atoms: O_10  and  C_5 
ROOT
HETATM    1  C   UNK N   1      31.030  17.516   8.268  0.00  0.00     0.125 C 
HETATM    2  N   UNK N   1      32.223  17.190   7.922  0.00  0.00    -0.364 N 
ATOM      3  HN  UNK N   1      32.353  16.700   7.037  1.00  0.00     0.161 HD
ENDROOT
BRANCH   1   4
HETATM    4  C   UNK N   1      29.888  17.165   7.364  0.00  0.00     0.114 C 
HETATM    5  C   UNK N   1      30.126  16.604   5.977  0.00  0.00     0.030 C 
BRANCH   4   6
HETATM    6  S   UNK N   1      28.176  17.414   7.931  0.00  0.00    -0.170 SA
HETATM    7  H   UNK N   1      27.183  17.619   7.025  0.00  0.00     0.102 HD
ENDBRANCH   4   6
ENDBRANCH   1   4
BRANCH   1   8
HETATM    8  O   UNK N   1      30.798  18.167   9.432  0.00  0.00    -0.349 OA
HETATM    9  H   UNK N   1      30.082  17.909   9.977  0.00  0.00     0.219 HD
ENDBRANCH   1   8
BRANCH   2  10
HETATM   10  C   UNK N   1      33.386  17.481   8.720  0.00  0.00     0.231 C 
BRANCH  10  11
HETATM   11  C   UNK N   1      34.376  18.251   7.899  0.00  0.00     0.158 C 
HETATM   12  O   UNK N   1      35.061  19.110   8.425  0.00  0.00    -0.649 OA
BRANCH  11  13
HETATM   13  O   UNK N   1      34.516  18.001   6.580  0.00  0.00    -0.775 OA
HETATM   14  H   UNK N   1      34.439  18.699   5.961  0.00  0.00     0.167 HD
ENDBRANCH  11  13
ENDBRANCH  10  11
ENDBRANCH   2  10
TORSDOF 6
ENDMDL
MODEL 7
REMARK VINA RESULT:      -3.9      9.137     10.173
REMARK  6 active torsions:
REMARK  status: ('A' for Active; 'I' for Inactive)
REMARK    1  A    between atoms: C_4  and  C_2 
REMARK    2  A    between atoms: N_6  and  C_2 
REMARK    3  A    between atoms: C_5  and  C_3 
REMARK    4  A    between atoms: S_11  and  C_3 
REMARK    5  A    between atoms: O_9  and  C_4 
REMARK    6  A    between atoms: O_10  and  C_5 
ROOT
HETATM    1  C   UNK N   1      27.262  24.469  -3.591  0.00  0.00     0.125 C 
HETATM    2  N   UNK N   1      28.373  24.205  -4.178  0.00  0.00    -0.364 N 
ATOM      3  HN  UNK N   1      28.627  24.751  -5.001  1.00  0.00     0.161 HD
ENDROOT
BRANCH   1   4
HETATM    4  C   UNK N   1      26.392  25.559  -4.136  0.00  0.00     0.114 C 
HETATM    5  C   UNK N   1      25.573  25.359  -5.394  0.00  0.00     0.030 C 
BRANCH   4   6
HETATM    6  S   UNK N   1      26.308  27.163  -3.278  0.00  0.00    -0.170 SA
HETATM    7  H   UNK N   1      25.248  27.990  -3.484  0.00  0.00     0.102 HD
ENDBRANCH   4   6
ENDBRANCH   1   4
BRANCH   1   8
HETATM    8  O   UNK N   1      26.875  23.776  -2.495  0.00  0.00    -0.349 OA
HETATM    9  H   UNK N   1      26.053  23.326  -2.492  0.00  0.00     0.219 HD
ENDBRANCH   1   8
BRANCH   2  10
HETATM   10  C   UNK N   1      29.280  23.177  -3.734  0.00  0.00     0.231 C 
BRANCH  10  11
HETATM   11  C   UNK N   1      30.246  23.755  -2.747  0.00  0.00     0.158 C 
HETATM   12  O   UNK N   1      30.748  24.846  -2.957  0.00  0.00    -0.649 OA
BRANCH  11  13
HETATM   13  O   UNK N   1      30.568  23.079  -1.624  0.00  0.00    -0.775 OA
HETATM   14  H   UNK N   1      30.027  23.152  -0.862  0.00  0.00     0.167 HD
ENDBRANCH  11  13
ENDBRANCH  10  11
ENDBRANCH   2  10
TORSDOF 6
ENDMDL
MODEL 8
REMARK VINA RESULT:      -3.9     17.406     19.009
REMARK  6 active torsions:
REMARK  status: ('A' for Active; 'I' for Inactive)
REMARK    1  A    between atoms: C_4  and  C_2 
REMARK    2  A    between atoms: N_6  and  C_2 
REMARK    3  A    between atoms: C_5  and  C_3 
REMARK    4  A    between atoms: S_11  and  C_3 
REMARK    5  A    between atoms: O_9  and  C_4 
REMARK    6  A    between atoms: O_10  and  C_5 
ROOT
HETATM    1  C   UNK N   1      35.889  14.093  12.227  0.00  0.00     0.125 C 
HETATM    2  N   UNK N   1      36.832  13.770  13.035  0.00  0.00    -0.364 N 
ATOM      3  HN  UNK N   1      37.779  14.090  12.827  1.00  0.00     0.161 HD
ENDROOT
BRANCH   1   4
HETATM    4  C   UNK N   1      36.215  14.920  11.020  0.00  0.00     0.114 C 
HETATM    5  C   UNK N   1      37.238  14.458  10.003  0.00  0.00     0.030 C 
BRANCH   4   6
HETATM    6  S   UNK N   1      35.372  16.512  10.760  0.00  0.00    -0.170 SA
HETATM    7  H   UNK N   1      35.093  17.316  11.820  0.00  0.00     0.102 HD
ENDBRANCH   4   6
ENDBRANCH   1   4
BRANCH   1   8
HETATM    8  O   UNK N   1      34.615  13.698  12.454  0.00  0.00    -0.349 OA
HETATM    9  H   UNK N   1      34.422  13.135  13.177  0.00  0.00     0.219 HD
ENDBRANCH   1   8
BRANCH   2  10
HETATM   10  C   UNK N   1      36.624  12.980  14.221  0.00  0.00     0.231 C 
BRANCH  10  11
HETATM   11  C   UNK N   1      36.707  13.861  15.430  0.00  0.00     0.158 C 
HETATM   12  O   UNK N   1      35.912  13.716  16.342  0.00  0.00    -0.649 OA
BRANCH  11  13
HETATM   13  O   UNK N   1      37.657  14.816  15.520  0.00  0.00    -0.775 OA
HETATM   14  H   UNK N   1      37.456  15.699  15.280  0.00  0.00     0.167 HD
ENDBRANCH  11  13
ENDBRANCH  10  11
ENDBRANCH   2  10
TORSDOF 6
ENDMDL
MODEL 9
REMARK VINA RESULT:      -3.8      3.030      3.754
REMARK  6 active torsions:
REMARK  status: ('A' for Active; 'I' for Inactive)
REMARK    1  A    between atoms: C_4  and  C_2 
REMARK    2  A    between atoms: N_6  and  C_2 
REMARK    3  A    between atoms: C_5  and  C_3 
REMARK    4  A    between atoms: S_11  and  C_3 
REMARK    5  A    between atoms: O_9  and  C_4 
REMARK    6  A    between atoms: O_10  and  C_5 
ROOT
HETATM    1  C   UNK N   1      20.328  17.676   3.711  0.00  0.00     0.125 C 
HETATM    2  N   UNK N   1      20.901  18.611   3.043  0.00  0.00    -0.364 N 
ATOM      3  HN  UNK N   1      21.895  18.777   3.197  1.00  0.00     0.161 HD
ENDROOT
BRANCH   1   4
HETATM    4  C   UNK N   1      21.140  16.873   4.681  0.00  0.00     0.114 C 
HETATM    5  C   UNK N   1      22.068  15.773   4.209  0.00  0.00     0.030 C 
BRANCH   4   6
HETATM    6  S   UNK N   1      21.017  17.216   6.465  0.00  0.00    -0.170 SA
HETATM    7  H   UNK N   1      19.841  17.648   6.996  0.00  0.00     0.102 HD
ENDBRANCH   4   6
ENDBRANCH   1   4
BRANCH   1   8
HETATM    8  O   UNK N   1      19.011  17.413   3.548  0.00  0.00    -0.349 OA
HETATM    9  H   UNK N   1      18.371  17.949   3.973  0.00  0.00     0.219 HD
ENDBRANCH   1   8
BRANCH   2  10
HETATM   10  C   UNK N   1      20.210  19.439   2.088  0.00  0.00     0.231 C 
BRANCH  10  11
HETATM   11  C   UNK N   1      21.090  20.585   1.691  0.00  0.00     0.158 C 
HETATM   12  O   UNK N   1      21.410  20.727   0.524  0.00  0.00    -0.649 OA
BRANCH  11  13
HETATM   13  O   UNK N   1      21.533  21.463   2.615  0.00  0.00    -0.775 OA
HETATM   14  H   UNK N   1      20.955  22.118   2.953  0.00  0.00     0.167 HD
ENDBRANCH  11  13
ENDBRANCH  10  11
ENDBRANCH   2  10
TORSDOF 6
ENDMDL
