REMARK  5 active torsions:
REMARK  status: ('A' for Active; 'I' for Inactive)
REMARK    1  A    between atoms: C_3  and  C_25 
REMARK    2  A    between atoms: C_24  and  C_3 
REMARK    3  A    between atoms: N_22  and  C_7 
REMARK    4  A    between atoms: C_7  and  C_11 
REMARK    5  A    between atoms: C_11  and  C_24 
ROOT
HETATM    1  C   UNK N   1      -1.630  -4.502   0.052  0.00  0.00     0.143 A 
HETATM    2  C   UNK N   1      -4.413  -3.589  -0.031  0.00  0.00     0.057 A 
HETATM    3  C   UNK N   1       0.001  -1.916   0.704  0.00  0.00     0.056 C 
HETATM    4  C   UNK N   1      -3.479  -1.394  -0.336  0.00  0.00    -0.021 A 
HETATM    5  C   UNK N   1      -5.712  -3.047  -0.132  0.00  0.00     0.031 A 
HETATM    6  C   UNK N   1      -2.047   0.203   0.811  0.00  0.00     0.283 C 
HETATM    7  C   UNK N   1      -3.351  -2.725  -0.124  0.00  0.00     0.064 A 
HETATM    8  N   UNK N   1      -4.160  -4.977   0.147  0.00  0.00    -0.382 N 
HETATM    9  C   UNK N   1      -0.140  -0.853   1.795  0.00  0.00     0.274 C 
HETATM   10  C   UNK N   1      -1.158  -2.001  -0.299  0.00  0.00     0.096 C 
HETATM   11  C   UNK N   1      -5.255  -5.909   0.236  0.00  0.00     0.150 C 
HETATM   12  N   UNK N   1      -0.684   0.406   1.281  0.00  0.00     0.089 N 
HETATM   13  C   UNK N   1      -5.876  -1.657  -0.326  0.00  0.00     0.003 A 
HETATM   14  N   UNK N   1      -2.037  -3.117  -0.042  0.00  0.00    -0.371 N 
HETATM   15  C   UNK N   1      -4.749  -0.815  -0.432  0.00  0.00     0.010 A 
HETATM   16  C   UNK N   1      -2.124  -0.742  -0.388  0.00  0.00     0.072 C 
HETATM   17  C   UNK N   1      -2.801  -5.508   0.233  0.00  0.00     0.142 A 
ENDROOT
BRANCH  12  18
HETATM   18  C   UNK N   1       0.145   1.237   0.383  0.00  0.00     0.273 C 
BRANCH  18  19
HETATM   19  C   UNK N   1       1.106   0.491  -0.550  0.00  0.00     0.038 C 
BRANCH  19  20
HETATM   20  C   UNK N   1       2.319   0.001   0.234  0.00  0.00     0.085 C 
BRANCH  20  21
HETATM   21  C   UNK N   1       3.605   0.641  -0.192  0.00  0.00     0.159 C 
HETATM   22  O   UNK N   1       4.499  -0.074  -0.618  0.00  0.00    -0.292 OA
BRANCH  21  23
HETATM   23  C   UNK N   1       3.831   2.099  -0.050  0.00  0.00     0.010 A 
HETATM   24  C   UNK N   1       2.809   2.944   0.409  0.00  0.00     0.018 A 
HETATM   25  C   UNK N   1       3.029   4.317   0.537  0.00  0.00     0.043 A 
HETATM   26  C   UNK N   1       4.276   4.856   0.217  0.00  0.00     0.116 A 
HETATM   27  F   UNK N   1       4.490   6.187   0.344  0.00  0.00    -0.206 F 
HETATM   28  C   UNK N   1       5.304   4.022  -0.233  0.00  0.00     0.043 A 
HETATM   29  C   UNK N   1       5.081   2.649  -0.369  0.00  0.00     0.018 A 
ENDBRANCH  21  23
ENDBRANCH  20  21
ENDBRANCH  19  20
ENDBRANCH  18  19
ENDBRANCH  12  18
TORSDOF 5
