MODEL 1
REMARK VINA RESULT:      -6.8      0.000      0.000
REMARK  7 active torsions:
REMARK  status: ('A' for Active; 'I' for Inactive)
REMARK    1  A    between atoms: O_2  and  C_21 
REMARK    2  A    between atoms: O_2  and  C_22 
REMARK    3  A    between atoms: N_4  and  C_9 
REMARK    4  A    between atoms: N_4  and  C_11 
REMARK    5  A    between atoms: N_7  and  C_12 
REMARK       I    between atoms: N_7  and  C_21 
REMARK    6  A    between atoms: N_8  and  C_14 
REMARK    7  A    between atoms: C_9  and  C_10 
ROOT
HETATM    1  N   UNK N   1      37.486  13.479  12.078  0.00  0.00    -0.327 N 
ATOM      2  HN  UNK N   1      38.468  13.223  12.177  1.00  0.00     0.169 HD
HETATM    3  C   UNK N   1      36.603  13.148  13.067  0.00  0.00     0.102 A 
HETATM    4  C   UNK N   1      35.716  14.507  10.810  0.00  0.00     0.080 A 
HETATM    5  C   UNK N   1      35.264  13.487  12.950  0.00  0.00     0.050 A 
HETATM    6  C   UNK N   1      37.072  14.148  10.958  0.00  0.00     0.127 A 
HETATM    7  C   UNK N   1      34.824  14.162  11.828  0.00  0.00     0.037 A 
ENDROOT
BRANCH   3   8
HETATM    8  N   UNK N   1      36.997  12.459  14.231  0.00  0.00    -0.372 N 
HETATM    9  H   UNK N   1      37.848  12.737  14.639  0.00  0.00     0.161 HD
BRANCH   8  10
HETATM   10  C   UNK N   1      36.290  11.389  14.887  0.00  0.00     0.159 C 
BRANCH  10  11
HETATM   11  C   UNK N   1      35.887  11.859  16.263  0.00  0.00    -0.040 A 
HETATM   12  C   UNK N   1      35.585  13.215  16.498  0.00  0.00     0.012 A 
HETATM   13  C   UNK N   1      35.212  13.654  17.767  0.00  0.00     0.043 A 
HETATM   14  C   UNK N   1      35.137  12.745  18.820  0.00  0.00     0.116 A 
HETATM   15  F   UNK N   1      34.774  13.176  20.051  0.00  0.00    -0.206 F 
HETATM   16  C   UNK N   1      35.434  11.395  18.602  0.00  0.00     0.043 A 
HETATM   17  C   UNK N   1      35.809  10.951  17.325  0.00  0.00     0.012 A 
ENDBRANCH  10  11
ENDBRANCH   8  10
ENDBRANCH   3   8
BRANCH   6  18
HETATM   18  N   UNK N   1      38.009  14.476   9.955  0.00  0.00    -0.384 N 
HETATM   19  H   UNK N   1      38.886  14.847  10.203  0.00  0.00     0.157 HD
HETATM   20  H   UNK N   1      37.784  14.334   9.006  0.00  0.00     0.157 HD
ENDBRANCH   6  18
BRANCH   4  21
HETATM   21  N   UNK N   1      35.264  15.206   9.647  0.00  0.00    -0.299 N 
HETATM   22  C   UNK N   1      35.036  16.551   9.580  0.00  0.00     0.365 C 
HETATM   23  O   UNK N   1      35.213  17.267  10.560  0.00  0.00    -0.238 OA
HETATM   24  H   UNK N   1      35.106  14.678   8.831  0.00  0.00     0.171 HD
BRANCH  22  25
HETATM   25  O   UNK N   1      34.608  17.100   8.420  0.00  0.00    -0.304 OA
BRANCH  25  26
HETATM   26  C   UNK N   1      33.363  16.816   7.904  0.00  0.00     0.176 C 
HETATM   27  C   UNK N   1      32.387  17.912   8.273  0.00  0.00     0.034 C 
ENDBRANCH  25  26
ENDBRANCH  22  25
ENDBRANCH   4  21
TORSDOF 7
ENDMDL
MODEL 2
REMARK VINA RESULT:      -6.8      9.709     12.944
REMARK  7 active torsions:
REMARK  status: ('A' for Active; 'I' for Inactive)
REMARK    1  A    between atoms: O_2  and  C_21 
REMARK    2  A    between atoms: O_2  and  C_22 
REMARK    3  A    between atoms: N_4  and  C_9 
REMARK    4  A    between atoms: N_4  and  C_11 
REMARK    5  A    between atoms: N_7  and  C_12 
REMARK       I    between atoms: N_7  and  C_21 
REMARK    6  A    between atoms: N_8  and  C_14 
REMARK    7  A    between atoms: C_9  and  C_10 
ROOT
HETATM    1  N   UNK N   1      28.092  19.490   5.056  0.00  0.00    -0.327 N 
ATOM      2  HN  UNK N   1      28.796  19.999   5.590  1.00  0.00     0.169 HD
HETATM    3  C   UNK N   1      28.413  18.284   4.500  0.00  0.00     0.102 A 
HETATM    4  C   UNK N   1      25.859  19.330   4.170  0.00  0.00     0.080 A 
HETATM    5  C   UNK N   1      27.470  17.578   3.770  0.00  0.00     0.050 A 
HETATM    6  C   UNK N   1      26.841  20.024   4.907  0.00  0.00     0.127 A 
HETATM    7  C   UNK N   1      26.201  18.098   3.606  0.00  0.00     0.037 A 
ENDROOT
BRANCH   3   8
HETATM    8  N   UNK N   1      29.692  17.708   4.634  0.00  0.00    -0.372 N 
HETATM    9  H   UNK N   1      30.391  18.043   4.028  0.00  0.00     0.161 HD
BRANCH   8  10
HETATM   10  C   UNK N   1      30.087  16.680   5.563  0.00  0.00     0.159 C 
BRANCH  10  11
HETATM   11  C   UNK N   1      31.350  17.124   6.257  0.00  0.00    -0.040 A 
HETATM   12  C   UNK N   1      32.565  17.210   5.549  0.00  0.00     0.012 A 
HETATM   13  C   UNK N   1      33.735  17.620   6.185  0.00  0.00     0.043 A 
HETATM   14  C   UNK N   1      33.708  17.951   7.538  0.00  0.00     0.116 A 
HETATM   15  F   UNK N   1      34.847  18.349   8.152  0.00  0.00    -0.206 F 
HETATM   16  C   UNK N   1      32.508  17.871   8.255  0.00  0.00     0.043 A 
HETATM   17  C   UNK N   1      31.330  17.458   7.616  0.00  0.00     0.012 A 
ENDBRANCH  10  11
ENDBRANCH   8  10
ENDBRANCH   3   8
BRANCH   6  18
HETATM   18  N   UNK N   1      26.540  21.271   5.494  0.00  0.00    -0.384 N 
HETATM   19  H   UNK N   1      26.265  22.029   4.928  0.00  0.00     0.157 HD
HETATM   20  H   UNK N   1      26.605  21.384   6.471  0.00  0.00     0.157 HD
ENDBRANCH   6  18
BRANCH   4  21
HETATM   21  N   UNK N   1      24.546  19.872   4.003  0.00  0.00    -0.299 N 
HETATM   22  C   UNK N   1      24.133  20.612   2.932  0.00  0.00     0.365 C 
HETATM   23  O   UNK N   1      24.902  20.864   2.010  0.00  0.00    -0.238 OA
HETATM   24  H   UNK N   1      23.888  19.698   4.715  0.00  0.00     0.171 HD
BRANCH  22  25
HETATM   25  O   UNK N   1      22.862  21.072   2.886  0.00  0.00    -0.304 OA
BRANCH  25  26
HETATM   26  C   UNK N   1      21.786  20.212   2.827  0.00  0.00     0.176 C 
HETATM   27  C   UNK N   1      20.985  20.470   1.571  0.00  0.00     0.034 C 
ENDBRANCH  25  26
ENDBRANCH  22  25
ENDBRANCH   4  21
TORSDOF 7
ENDMDL
MODEL 3
REMARK VINA RESULT:      -6.7      2.363      3.765
REMARK  7 active torsions:
REMARK  status: ('A' for Active; 'I' for Inactive)
REMARK    1  A    between atoms: O_2  and  C_21 
REMARK    2  A    between atoms: O_2  and  C_22 
REMARK    3  A    between atoms: N_4  and  C_9 
REMARK    4  A    between atoms: N_4  and  C_11 
REMARK    5  A    between atoms: N_7  and  C_12 
REMARK       I    between atoms: N_7  and  C_21 
REMARK    6  A    between atoms: N_8  and  C_14 
REMARK    7  A    between atoms: C_9  and  C_10 
ROOT
HETATM    1  N   UNK N   1      33.081  15.119  10.373  0.00  0.00    -0.327 N 
ATOM      2  HN  UNK N   1      32.432  15.216  11.154  1.00  0.00     0.169 HD
HETATM    3  C   UNK N   1      34.227  14.394  10.538  0.00  0.00     0.102 A 
HETATM    4  C   UNK N   1      33.682  15.592   8.090  0.00  0.00     0.080 A 
HETATM    5  C   UNK N   1      35.121  14.253   9.489  0.00  0.00     0.050 A 
HETATM    6  C   UNK N   1      32.792  15.718   9.177  0.00  0.00     0.127 A 
HETATM    7  C   UNK N   1      34.850  14.848   8.273  0.00  0.00     0.037 A 
ENDROOT
BRANCH   3   8
HETATM    8  N   UNK N   1      34.554  13.766  11.757  0.00  0.00    -0.372 N 
HETATM    9  H   UNK N   1      33.802  13.416  12.286  0.00  0.00     0.161 HD
BRANCH   8  10
HETATM   10  C   UNK N   1      35.870  13.584  12.313  0.00  0.00     0.159 C 
BRANCH  10  11
HETATM   11  C   UNK N   1      35.741  13.460  13.810  0.00  0.00    -0.040 A 
HETATM   12  C   UNK N   1      36.612  14.163  14.666  0.00  0.00     0.012 A 
HETATM   13  C   UNK N   1      36.498  14.052  16.050  0.00  0.00     0.043 A 
HETATM   14  C   UNK N   1      35.511  13.237  16.600  0.00  0.00     0.116 A 
HETATM   15  F   UNK N   1      35.403  13.131  17.946  0.00  0.00    -0.206 F 
HETATM   16  C   UNK N   1      34.638  12.532  15.763  0.00  0.00     0.043 A 
HETATM   17  C   UNK N   1      34.753  12.643  14.369  0.00  0.00     0.012 A 
ENDBRANCH  10  11
ENDBRANCH   8  10
ENDBRANCH   3   8
BRANCH   6  18
HETATM   18  N   UNK N   1      31.600  16.460   9.039  0.00  0.00    -0.384 N 
HETATM   19  H   UNK N   1      31.248  16.664   8.142  0.00  0.00     0.157 HD
HETATM   20  H   UNK N   1      31.119  16.775   9.839  0.00  0.00     0.157 HD
ENDBRANCH   6  18
BRANCH   4  21
HETATM   21  N   UNK N   1      33.397  16.211   6.832  0.00  0.00    -0.299 N 
HETATM   22  C   UNK N   1      33.870  17.428   6.432  0.00  0.00     0.365 C 
HETATM   23  O   UNK N   1      34.599  18.089   7.164  0.00  0.00    -0.238 OA
HETATM   24  H   UNK N   1      32.815  15.721   6.206  0.00  0.00     0.171 HD
BRANCH  22  25
HETATM   25  O   UNK N   1      33.530  17.911   5.214  0.00  0.00    -0.304 OA
BRANCH  25  26
HETATM   26  C   UNK N   1      32.360  17.535   4.591  0.00  0.00     0.176 C 
HETATM   27  C   UNK N   1      32.663  16.939   3.235  0.00  0.00     0.034 C 
ENDBRANCH  25  26
ENDBRANCH  22  25
ENDBRANCH   4  21
TORSDOF 7
ENDMDL
MODEL 4
REMARK VINA RESULT:      -6.7      1.619      2.375
REMARK  7 active torsions:
REMARK  status: ('A' for Active; 'I' for Inactive)
REMARK    1  A    between atoms: O_2  and  C_21 
REMARK    2  A    between atoms: O_2  and  C_22 
REMARK    3  A    between atoms: N_4  and  C_9 
REMARK    4  A    between atoms: N_4  and  C_11 
REMARK    5  A    between atoms: N_7  and  C_12 
REMARK       I    between atoms: N_7  and  C_21 
REMARK    6  A    between atoms: N_8  and  C_14 
REMARK    7  A    between atoms: C_9  and  C_10 
ROOT
HETATM    1  N   UNK N   1      34.209  14.265  11.617  0.00  0.00    -0.327 N 
ATOM      2  HN  UNK N   1      33.445  14.000  12.238  1.00  0.00     0.169 HD
HETATM    3  C   UNK N   1      35.496  13.972  11.973  0.00  0.00     0.102 A 
HETATM    4  C   UNK N   1      34.980  15.282   9.575  0.00  0.00     0.080 A 
HETATM    5  C   UNK N   1      36.547  14.326  11.142  0.00  0.00     0.050 A 
HETATM    6  C   UNK N   1      33.932  14.909  10.443  0.00  0.00     0.127 A 
HETATM    7  C   UNK N   1      36.291  14.977   9.952  0.00  0.00     0.037 A 
ENDROOT
BRANCH   3   8
HETATM    8  N   UNK N   1      35.814  13.310  13.175  0.00  0.00    -0.372 N 
HETATM    9  H   UNK N   1      35.609  12.349  13.215  0.00  0.00     0.161 HD
BRANCH   8  10
HETATM   10  C   UNK N   1      36.406  13.891  14.353  0.00  0.00     0.159 C 
BRANCH  10  11
HETATM   11  C   UNK N   1      36.073  13.014  15.534  0.00  0.00    -0.040 A 
HETATM   12  C   UNK N   1      35.416  13.546  16.661  0.00  0.00     0.012 A 
HETATM   13  C   UNK N   1      35.106  12.741  17.755  0.00  0.00     0.043 A 
HETATM   14  C   UNK N   1      35.448  11.391  17.739  0.00  0.00     0.116 A 
HETATM   15  F   UNK N   1      35.144  10.611  18.804  0.00  0.00    -0.206 F 
HETATM   16  C   UNK N   1      36.101  10.846  16.627  0.00  0.00     0.043 A 
HETATM   17  C   UNK N   1      36.414  11.656  15.525  0.00  0.00     0.012 A 
ENDBRANCH  10  11
ENDBRANCH   8  10
ENDBRANCH   3   8
BRANCH   6  18
HETATM   18  N   UNK N   1      32.593  15.197  10.104  0.00  0.00    -0.384 N 
HETATM   19  H   UNK N   1      32.290  15.105   9.172  0.00  0.00     0.157 HD
HETATM   20  H   UNK N   1      31.961  15.492  10.800  0.00  0.00     0.157 HD
ENDBRANCH   6  18
BRANCH   4  21
HETATM   21  N   UNK N   1      34.710  15.956   8.343  0.00  0.00    -0.299 N 
HETATM   22  C   UNK N   1      34.732  17.311   8.169  0.00  0.00     0.365 C 
HETATM   23  O   UNK N   1      34.997  18.059   9.105  0.00  0.00    -0.238 OA
HETATM   24  H   UNK N   1      34.492  15.401   7.559  0.00  0.00     0.171 HD
BRANCH  22  25
HETATM   25  O   UNK N   1      34.458  17.834   6.952  0.00  0.00    -0.304 OA
BRANCH  25  26
HETATM   26  C   UNK N   1      33.928  17.064   5.940  0.00  0.00     0.176 C 
HETATM   27  C   UNK N   1      32.445  17.334   5.806  0.00  0.00     0.034 C 
ENDBRANCH  25  26
ENDBRANCH  22  25
ENDBRANCH   4  21
TORSDOF 7
ENDMDL
MODEL 5
REMARK VINA RESULT:      -6.7      1.874      2.623
REMARK  7 active torsions:
REMARK  status: ('A' for Active; 'I' for Inactive)
REMARK    1  A    between atoms: O_2  and  C_21 
REMARK    2  A    between atoms: O_2  and  C_22 
REMARK    3  A    between atoms: N_4  and  C_9 
REMARK    4  A    between atoms: N_4  and  C_11 
REMARK    5  A    between atoms: N_7  and  C_12 
REMARK       I    between atoms: N_7  and  C_21 
REMARK    6  A    between atoms: N_8  and  C_14 
REMARK    7  A    between atoms: C_9  and  C_10 
ROOT
HETATM    1  N   UNK N   1      34.602  13.988  11.739  0.00  0.00    -0.327 N 
ATOM      2  HN  UNK N   1      33.946  13.696  12.463  1.00  0.00     0.169 HD
HETATM    3  C   UNK N   1      35.911  13.607  11.825  0.00  0.00     0.102 A 
HETATM    4  C   UNK N   1      35.056  15.166   9.688  0.00  0.00     0.080 A 
HETATM    5  C   UNK N   1      36.817  13.995  10.851  0.00  0.00     0.050 A 
HETATM    6  C   UNK N   1      34.158  14.756  10.697  0.00  0.00     0.127 A 
HETATM    7  C   UNK N   1      36.392  14.769   9.790  0.00  0.00     0.037 A 
ENDROOT
BRANCH   3   8
HETATM    8  N   UNK N   1      36.399  12.818  12.887  0.00  0.00    -0.372 N 
HETATM    9  H   UNK N   1      37.346  12.556  12.840  0.00  0.00     0.161 HD
BRANCH   8  10
HETATM   10  C   UNK N   1      35.660  12.352  14.031  0.00  0.00     0.159 C 
BRANCH  10  11
HETATM   11  C   UNK N   1      35.920  13.293  15.181  0.00  0.00    -0.040 A 
HETATM   12  C   UNK N   1      35.188  13.181  16.380  0.00  0.00     0.012 A 
HETATM   13  C   UNK N   1      35.424  14.047  17.445  0.00  0.00     0.043 A 
HETATM   14  C   UNK N   1      36.395  15.039  17.328  0.00  0.00     0.116 A 
HETATM   15  F   UNK N   1      36.622  15.880  18.365  0.00  0.00    -0.206 F 
HETATM   16  C   UNK N   1      37.130  15.164  16.143  0.00  0.00     0.043 A 
HETATM   17  C   UNK N   1      36.894  14.292  15.070  0.00  0.00     0.012 A 
ENDBRANCH  10  11
ENDBRANCH   8  10
ENDBRANCH   3   8
BRANCH   6  18
HETATM   18  N   UNK N   1      32.800  15.132  10.636  0.00  0.00    -0.384 N 
HETATM   19  H   UNK N   1      32.514  15.845  10.019  0.00  0.00     0.157 HD
HETATM   20  H   UNK N   1      32.138  14.683  11.210  0.00  0.00     0.157 HD
ENDBRANCH   6  18
BRANCH   4  21
HETATM   21  N   UNK N   1      34.612  15.968   8.591  0.00  0.00    -0.299 N 
HETATM   22  C   UNK N   1      34.714  17.328   8.522  0.00  0.00     0.365 C 
HETATM   23  O   UNK N   1      35.217  17.967   9.440  0.00  0.00    -0.238 OA
HETATM   24  H   UNK N   1      34.200  15.504   7.826  0.00  0.00     0.171 HD
BRANCH  22  25
HETATM   25  O   UNK N   1      34.256  17.979   7.428  0.00  0.00    -0.304 OA
BRANCH  25  26
HETATM   26  C   UNK N   1      33.929  17.304   6.272  0.00  0.00     0.176 C 
HETATM   27  C   UNK N   1      32.436  17.362   6.042  0.00  0.00     0.034 C 
ENDBRANCH  25  26
ENDBRANCH  22  25
ENDBRANCH   4  21
TORSDOF 7
ENDMDL
MODEL 6
REMARK VINA RESULT:      -6.4      5.343     10.651
REMARK  7 active torsions:
REMARK  status: ('A' for Active; 'I' for Inactive)
REMARK    1  A    between atoms: O_2  and  C_21 
REMARK    2  A    between atoms: O_2  and  C_22 
REMARK    3  A    between atoms: N_4  and  C_9 
REMARK    4  A    between atoms: N_4  and  C_11 
REMARK    5  A    between atoms: N_7  and  C_12 
REMARK       I    between atoms: N_7  and  C_21 
REMARK    6  A    between atoms: N_8  and  C_14 
REMARK    7  A    between atoms: C_9  and  C_10 
ROOT
HETATM    1  N   UNK N   1      31.464  16.237   7.851  0.00  0.00    -0.327 N 
ATOM      2  HN  UNK N   1      30.489  16.100   8.117  1.00  0.00     0.169 HD
HETATM    3  C   UNK N   1      31.756  16.829   6.655  0.00  0.00     0.102 A 
HETATM    4  C   UNK N   1      33.811  16.011   8.339  0.00  0.00     0.080 A 
HETATM    5  C   UNK N   1      33.075  17.023   6.276  0.00  0.00     0.050 A 
HETATM    6  C   UNK N   1      32.458  15.826   8.696  0.00  0.00     0.127 A 
HETATM    7  C   UNK N   1      34.095  16.616   7.113  0.00  0.00     0.037 A 
ENDROOT
BRANCH   3   8
HETATM    8  N   UNK N   1      30.755  17.261   5.762  0.00  0.00    -0.372 N 
HETATM    9  H   UNK N   1      31.052  17.812   5.003  0.00  0.00     0.161 HD
BRANCH   8  10
HETATM   10  C   UNK N   1      29.343  16.986   5.843  0.00  0.00     0.159 C 
BRANCH  10  11
HETATM   11  C   UNK N   1      28.606  18.300   5.919  0.00  0.00    -0.040 A 
HETATM   12  C   UNK N   1      28.293  19.015   4.747  0.00  0.00     0.012 A 
HETATM   13  C   UNK N   1      27.612  20.229   4.811  0.00  0.00     0.043 A 
HETATM   14  C   UNK N   1      27.234  20.746   6.048  0.00  0.00     0.116 A 
HETATM   15  F   UNK N   1      26.572  21.926   6.106  0.00  0.00    -0.206 F 
HETATM   16  C   UNK N   1      27.538  20.047   7.222  0.00  0.00     0.043 A 
HETATM   17  C   UNK N   1      28.223  18.825   7.158  0.00  0.00     0.012 A 
ENDBRANCH  10  11
ENDBRANCH   8  10
ENDBRANCH   3   8
BRANCH   6  18
HETATM   18  N   UNK N   1      32.124  15.219   9.925  0.00  0.00    -0.384 N 
HETATM   19  H   UNK N   1      32.833  14.862  10.508  0.00  0.00     0.157 HD
HETATM   20  H   UNK N   1      31.180  15.152  10.201  0.00  0.00     0.157 HD
ENDBRANCH   6  18
BRANCH   4  21
HETATM   21  N   UNK N   1      34.864  15.588   9.209  0.00  0.00    -0.299 N 
HETATM   22  C   UNK N   1      35.543  16.402  10.071  0.00  0.00     0.365 C 
HETATM   23  O   UNK N   1      35.273  17.596  10.151  0.00  0.00    -0.238 OA
HETATM   24  H   UNK N   1      35.121  14.637   9.185  0.00  0.00     0.171 HD
BRANCH  22  25
HETATM   25  O   UNK N   1      36.524  15.885  10.847  0.00  0.00    -0.304 OA
BRANCH  25  26
HETATM   26  C   UNK N   1      36.495  14.573  11.267  0.00  0.00     0.176 C 
HETATM   27  C   UNK N   1      35.810  14.475  12.612  0.00  0.00     0.034 C 
ENDBRANCH  25  26
ENDBRANCH  22  25
ENDBRANCH   4  21
TORSDOF 7
ENDMDL
MODEL 7
REMARK VINA RESULT:      -6.4      1.583      2.096
REMARK  7 active torsions:
REMARK  status: ('A' for Active; 'I' for Inactive)
REMARK    1  A    between atoms: O_2  and  C_21 
REMARK    2  A    between atoms: O_2  and  C_22 
REMARK    3  A    between atoms: N_4  and  C_9 
REMARK    4  A    between atoms: N_4  and  C_11 
REMARK    5  A    between atoms: N_7  and  C_12 
REMARK       I    between atoms: N_7  and  C_21 
REMARK    6  A    between atoms: N_8  and  C_14 
REMARK    7  A    between atoms: C_9  and  C_10 
ROOT
HETATM    1  N   UNK N   1      36.025  15.320  12.338  0.00  0.00    -0.327 N 
ATOM      2  HN  UNK N   1      36.226  16.007  13.064  1.00  0.00     0.169 HD
HETATM    3  C   UNK N   1      36.281  13.999  12.572  0.00  0.00     0.102 A 
HETATM    4  C   UNK N   1      35.218  14.797  10.130  0.00  0.00     0.080 A 
HETATM    5  C   UNK N   1      36.014  13.052  11.595  0.00  0.00     0.050 A 
HETATM    6  C   UNK N   1      35.502  15.736  11.143  0.00  0.00     0.127 A 
HETATM    7  C   UNK N   1      35.487  13.449  10.383  0.00  0.00     0.037 A 
ENDROOT
BRANCH   3   8
HETATM    8  N   UNK N   1      36.820  13.539  13.790  0.00  0.00    -0.372 N 
HETATM    9  H   UNK N   1      37.276  14.208  14.348  0.00  0.00     0.161 HD
BRANCH   8  10
HETATM   10  C   UNK N   1      36.776  12.195  14.305  0.00  0.00     0.159 C 
BRANCH  10  11
HETATM   11  C   UNK N   1      36.236  12.242  15.712  0.00  0.00    -0.040 A 
HETATM   12  C   UNK N   1      36.214  11.082  16.512  0.00  0.00     0.012 A 
HETATM   13  C   UNK N   1      35.716  11.120  17.812  0.00  0.00     0.043 A 
HETATM   14  C   UNK N   1      35.232  12.317  18.334  0.00  0.00     0.116 A 
HETATM   15  F   UNK N   1      34.749  12.350  19.599  0.00  0.00    -0.206 F 
HETATM   16  C   UNK N   1      35.247  13.478  17.552  0.00  0.00     0.043 A 
HETATM   17  C   UNK N   1      35.748  13.442  16.243  0.00  0.00     0.012 A 
ENDBRANCH  10  11
ENDBRANCH   8  10
ENDBRANCH   3   8
BRANCH   6  18
HETATM   18  N   UNK N   1      35.247  17.108  10.933  0.00  0.00    -0.384 N 
HETATM   19  H   UNK N   1      35.925  17.778  11.179  0.00  0.00     0.157 HD
HETATM   20  H   UNK N   1      34.391  17.395  10.540  0.00  0.00     0.157 HD
ENDBRANCH   6  18
BRANCH   4  21
HETATM   21  N   UNK N   1      34.672  15.212   8.875  0.00  0.00    -0.299 N 
HETATM   22  C   UNK N   1      33.339  15.323   8.599  0.00  0.00     0.365 C 
HETATM   23  O   UNK N   1      32.497  15.060   9.452  0.00  0.00    -0.238 OA
HETATM   24  H   UNK N   1      35.305  15.435   8.154  0.00  0.00     0.171 HD
BRANCH  22  25
HETATM   25  O   UNK N   1      32.941  15.727   7.370  0.00  0.00    -0.304 OA
BRANCH  25  26
HETATM   26  C   UNK N   1      32.718  17.057   7.087  0.00  0.00     0.176 C 
HETATM   27  C   UNK N   1      33.419  17.439   5.802  0.00  0.00     0.034 C 
ENDBRANCH  25  26
ENDBRANCH  22  25
ENDBRANCH   4  21
TORSDOF 7
ENDMDL
MODEL 8
REMARK VINA RESULT:      -6.2      7.297     12.649
REMARK  7 active torsions:
REMARK  status: ('A' for Active; 'I' for Inactive)
REMARK    1  A    between atoms: O_2  and  C_21 
REMARK    2  A    between atoms: O_2  and  C_22 
REMARK    3  A    between atoms: N_4  and  C_9 
REMARK    4  A    between atoms: N_4  and  C_11 
REMARK    5  A    between atoms: N_7  and  C_12 
REMARK       I    between atoms: N_7  and  C_21 
REMARK    6  A    between atoms: N_8  and  C_14 
REMARK    7  A    between atoms: C_9  and  C_10 
ROOT
HETATM    1  N   UNK N   1      29.729  17.043   6.544  0.00  0.00    -0.327 N 
ATOM      2  HN  UNK N   1      29.526  16.561   5.669  1.00  0.00     0.169 HD
HETATM    3  C   UNK N   1      28.790  17.876   7.085  0.00  0.00     0.102 A 
HETATM    4  C   UNK N   1      31.227  17.508   8.371  0.00  0.00     0.080 A 
HETATM    5  C   UNK N   1      29.048  18.541   8.273  0.00  0.00     0.050 A 
HETATM    6  C   UNK N   1      30.935  16.846   7.160  0.00  0.00     0.127 A 
HETATM    7  C   UNK N   1      30.259  18.357   8.912  0.00  0.00     0.037 A 
ENDROOT
BRANCH   3   8
HETATM    8  N   UNK N   1      27.539  18.100   6.475  0.00  0.00    -0.372 N 
HETATM    9  H   UNK N   1      26.949  18.754   6.912  0.00  0.00     0.161 HD
BRANCH   8  10
HETATM   10  C   UNK N   1      27.031  17.472   5.283  0.00  0.00     0.159 C 
BRANCH  10  11
HETATM   11  C   UNK N   1      26.134  18.456   4.573  0.00  0.00    -0.040 A 
HETATM   12  C   UNK N   1      24.733  18.355   4.680  0.00  0.00     0.012 A 
HETATM   13  C   UNK N   1      23.900  19.260   4.027  0.00  0.00     0.043 A 
HETATM   14  C   UNK N   1      24.454  20.280   3.257  0.00  0.00     0.116 A 
HETATM   15  F   UNK N   1      23.640  21.158   2.623  0.00  0.00    -0.206 F 
HETATM   16  C   UNK N   1      25.844  20.394   3.140  0.00  0.00     0.043 A 
HETATM   17  C   UNK N   1      26.685  19.482   3.798  0.00  0.00     0.012 A 
ENDBRANCH  10  11
ENDBRANCH   8  10
ENDBRANCH   3   8
BRANCH   6  18
HETATM   18  N   UNK N   1      31.883  15.979   6.577  0.00  0.00    -0.384 N 
HETATM   19  H   UNK N   1      32.748  15.824   7.022  0.00  0.00     0.157 HD
HETATM   20  H   UNK N   1      31.680  15.529   5.724  0.00  0.00     0.157 HD
ENDBRANCH   6  18
BRANCH   4  21
HETATM   21  N   UNK N   1      32.483  17.315   9.029  0.00  0.00    -0.299 N 
HETATM   22  C   UNK N   1      33.685  17.777   8.575  0.00  0.00     0.365 C 
HETATM   23  O   UNK N   1      33.758  18.412   7.528  0.00  0.00    -0.238 OA
HETATM   24  H   UNK N   1      32.480  16.811   9.875  0.00  0.00     0.171 HD
BRANCH  22  25
HETATM   25  O   UNK N   1      34.809  17.531   9.287  0.00  0.00    -0.304 OA
BRANCH  25  26
HETATM   26  C   UNK N   1      35.106  16.268   9.751  0.00  0.00     0.176 C 
HETATM   27  C   UNK N   1      35.797  16.358  11.093  0.00  0.00     0.034 C 
ENDBRANCH  25  26
ENDBRANCH  22  25
ENDBRANCH   4  21
TORSDOF 7
ENDMDL
MODEL 9
REMARK VINA RESULT:      -6.2      4.123      6.653
REMARK  7 active torsions:
REMARK  status: ('A' for Active; 'I' for Inactive)
REMARK    1  A    between atoms: O_2  and  C_21 
REMARK    2  A    between atoms: O_2  and  C_22 
REMARK    3  A    between atoms: N_4  and  C_9 
REMARK    4  A    between atoms: N_4  and  C_11 
REMARK    5  A    between atoms: N_7  and  C_12 
REMARK       I    between atoms: N_7  and  C_21 
REMARK    6  A    between atoms: N_8  and  C_14 
REMARK    7  A    between atoms: C_9  and  C_10 
ROOT
HETATM    1  N   UNK N   1      35.382  12.958  19.577  0.00  0.00    -0.327 N 
ATOM      2  HN  UNK N   1      35.425  13.492  20.444  1.00  0.00     0.169 HD
HETATM    3  C   UNK N   1      35.390  11.593  19.628  0.00  0.00     0.102 A 
HETATM    4  C   UNK N   1      35.255  12.891  17.173  0.00  0.00     0.080 A 
HETATM    5  C   UNK N   1      35.332  10.850  18.459  0.00  0.00     0.050 A 
HETATM    6  C   UNK N   1      35.316  13.619  18.380  0.00  0.00     0.127 A 
HETATM    7  C   UNK N   1      35.265  11.495  17.240  0.00  0.00     0.037 A 
ENDROOT
BRANCH   3   8
HETATM    8  N   UNK N   1      35.458  10.883  20.844  0.00  0.00    -0.372 N 
HETATM    9  H   UNK N   1      35.573  11.420  21.660  0.00  0.00     0.161 HD
BRANCH   8  10
HETATM   10  C   UNK N   1      35.380   9.456  21.020  0.00  0.00     0.159 C 
BRANCH  10  11
HETATM   11  C   UNK N   1      33.954   9.025  20.783  0.00  0.00    -0.040 A 
HETATM   12  C   UNK N   1      33.660   7.976  19.889  0.00  0.00     0.012 A 
HETATM   13  C   UNK N   1      32.345   7.574  19.666  0.00  0.00     0.043 A 
HETATM   14  C   UNK N   1      31.303   8.214  20.333  0.00  0.00     0.116 A 
HETATM   15  F   UNK N   1      30.026   7.820  20.113  0.00  0.00    -0.206 F 
HETATM   16  C   UNK N   1      31.578   9.258  21.224  0.00  0.00     0.043 A 
HETATM   17  C   UNK N   1      32.902   9.664  21.450  0.00  0.00     0.012 A 
ENDBRANCH  10  11
ENDBRANCH   8  10
ENDBRANCH   3   8
BRANCH   6  18
HETATM   18  N   UNK N   1      35.308  15.029  18.361  0.00  0.00    -0.384 N 
HETATM   19  H   UNK N   1      36.144  15.524  18.203  0.00  0.00     0.157 HD
HETATM   20  H   UNK N   1      34.465  15.519  18.507  0.00  0.00     0.157 HD
ENDBRANCH   6  18
BRANCH   4  21
HETATM   21  N   UNK N   1      35.185  13.563  15.913  0.00  0.00    -0.299 N 
HETATM   22  C   UNK N   1      36.215  13.666  15.021  0.00  0.00     0.365 C 
HETATM   23  O   UNK N   1      37.308  13.164  15.264  0.00  0.00    -0.238 OA
HETATM   24  H   UNK N   1      34.329  13.984  15.668  0.00  0.00     0.171 HD
BRANCH  22  25
HETATM   25  O   UNK N   1      36.028  14.330  13.857  0.00  0.00    -0.304 OA
BRANCH  25  26
HETATM   26  C   UNK N   1      36.223  13.716  12.639  0.00  0.00     0.176 C 
HETATM   27  C   UNK N   1      35.113  12.723  12.376  0.00  0.00     0.034 C 
ENDBRANCH  25  26
ENDBRANCH  22  25
ENDBRANCH   4  21
TORSDOF 7
ENDMDL
