MODEL 1
REMARK VINA RESULT:      -7.2      0.000      0.000
REMARK  5 active torsions:
REMARK  status: ('A' for Active; 'I' for Inactive)
REMARK    1  A    between atoms: C_4  and  N_7 
REMARK       I    between atoms: N_7  and  C_8 
REMARK    2  A    between atoms: C_8  and  C_10 
REMARK    3  A    between atoms: C_11  and  C_12 
REMARK    4  A    between atoms: C_22  and  C_23 
REMARK    5  A    between atoms: C_23  and  O_25 
ROOT
HETATM    1  C   UNK N   1      20.512  15.433   4.044  0.00  0.00     0.012 A 
HETATM    2  C   UNK N   1      20.715  16.803   3.831  0.00  0.00     0.025 A 
HETATM    3  C   UNK N   1      20.095  17.085   2.629  0.00  0.00     0.047 A 
HETATM    4  C   UNK N   1      20.105  18.351   2.055  0.00  0.00     0.054 A 
HETATM    5  C   UNK N   1      20.767  19.380   2.737  0.00  0.00     0.037 A 
HETATM    6  C   UNK N   1      21.377  19.129   3.976  0.00  0.00     0.048 A 
HETATM    7  C   UNK N   1      21.362  17.845   4.546  0.00  0.00     0.049 A 
HETATM    8 Cl   UNK N   1      22.111  17.685   6.121  0.00  0.00    -0.083 Cl
HETATM    9 Cl   UNK N   1      20.835  20.986   2.048  0.00  0.00    -0.084 Cl
HETATM   10  N   UNK N   1      19.505  15.998   2.102  0.00  0.00    -0.349 N 
HETATM   11  C   UNK N   1      19.749  14.989   2.961  0.00  0.00     0.118 A 
HETATM   12  H   UNK N   1      18.998  15.950   1.260  0.00  0.00     0.166 HD
ENDROOT
BRANCH   1  13
HETATM   13  C   UNK N   1      20.989  14.524   5.102  0.00  0.00     0.020 C 
HETATM   14  C   UNK N   1      20.439  14.427   6.306  0.00  0.00     0.075 C 
BRANCH  14  15
HETATM   15  C   UNK N   1      20.987  13.535   7.328  0.00  0.00     0.245 C 
HETATM   16  N   UNK N   1      21.682  14.056   8.376  0.00  0.00    -0.324 N 
HETATM   17  H   UNK N   1      21.748  15.037   8.425  0.00  0.00     0.169 HD
HETATM   18  O   UNK N   1      20.796  12.333   7.228  0.00  0.00    -0.268 OA
BRANCH  16  19
HETATM   19  C   UNK N   1      22.321  13.315   9.407  0.00  0.00     0.035 A 
HETATM   20  C   UNK N   1      21.551  12.869  10.487  0.00  0.00     0.029 A 
HETATM   21  C   UNK N   1      22.147  12.160  11.533  0.00  0.00     0.002 A 
HETATM   22  C   UNK N   1      23.521  11.902  11.510  0.00  0.00     0.000 A 
HETATM   23  C   UNK N   1      24.297  12.348  10.438  0.00  0.00     0.002 A 
HETATM   24  C   UNK N   1      23.700  13.052   9.390  0.00  0.00     0.029 A 
ENDBRANCH  16  19
ENDBRANCH  14  15
ENDBRANCH   1  13
BRANCH  11  25
HETATM   25  C   UNK N   1      19.267  13.609   2.722  0.00  0.00     0.194 C 
HETATM   26  O   UNK N   1      18.315  13.162   3.341  0.00  0.00    -0.645 OA
BRANCH  25  27
HETATM   27  O   UNK N   1      19.881  12.838   1.805  0.00  0.00    -0.772 OA
HETATM   28  H   UNK N   1      19.380  12.243   1.281  0.00  0.00     0.167 HD
ENDBRANCH  25  27
ENDBRANCH  11  25
TORSDOF 5
ENDMDL
MODEL 2
REMARK VINA RESULT:      -7.1     14.347     16.362
REMARK  5 active torsions:
REMARK  status: ('A' for Active; 'I' for Inactive)
REMARK    1  A    between atoms: C_4  and  N_7 
REMARK       I    between atoms: N_7  and  C_8 
REMARK    2  A    between atoms: C_8  and  C_10 
REMARK    3  A    between atoms: C_11  and  C_12 
REMARK    4  A    between atoms: C_22  and  C_23 
REMARK    5  A    between atoms: C_23  and  O_25 
ROOT
HETATM    1  C   UNK N   1      35.009  13.513  11.077  0.00  0.00     0.012 A 
HETATM    2  C   UNK N   1      34.500  12.524  10.226  0.00  0.00     0.025 A 
HETATM    3  C   UNK N   1      34.469  13.098   8.969  0.00  0.00     0.047 A 
HETATM    4  C   UNK N   1      33.989  12.431   7.848  0.00  0.00     0.054 A 
HETATM    5  C   UNK N   1      33.527  11.119   8.007  0.00  0.00     0.037 A 
HETATM    6  C   UNK N   1      33.578  10.500   9.266  0.00  0.00     0.048 A 
HETATM    7  C   UNK N   1      34.063  11.183  10.393  0.00  0.00     0.049 A 
HETATM    8 Cl   UNK N   1      34.122  10.274  11.889  0.00  0.00    -0.083 Cl
HETATM    9 Cl   UNK N   1      32.887  10.243   6.636  0.00  0.00    -0.084 Cl
HETATM   10  N   UNK N   1      34.946  14.355   8.981  0.00  0.00    -0.349 N 
HETATM   11  C   UNK N   1      35.283  14.614  10.260  0.00  0.00     0.118 A 
HETATM   12  H   UNK N   1      35.031  14.963   8.211  0.00  0.00     0.166 HD
ENDROOT
BRANCH   1  13
HETATM   13  C   UNK N   1      35.211  13.543  12.537  0.00  0.00     0.020 C 
HETATM   14  C   UNK N   1      36.189  12.905  13.167  0.00  0.00     0.075 C 
BRANCH  14  15
HETATM   15  C   UNK N   1      36.309  12.937  14.626  0.00  0.00     0.245 C 
HETATM   16  N   UNK N   1      35.418  12.251  15.392  0.00  0.00    -0.324 N 
HETATM   17  H   UNK N   1      34.744  11.713  14.919  0.00  0.00     0.169 HD
HETATM   18  O   UNK N   1      37.222  13.573  15.129  0.00  0.00    -0.268 OA
BRANCH  16  19
HETATM   19  C   UNK N   1      35.373  12.239  16.812  0.00  0.00     0.035 A 
HETATM   20  C   UNK N   1      35.106  13.437  17.484  0.00  0.00     0.029 A 
HETATM   21  C   UNK N   1      35.079  13.472  18.881  0.00  0.00     0.002 A 
HETATM   22  C   UNK N   1      35.330  12.309  19.615  0.00  0.00     0.000 A 
HETATM   23  C   UNK N   1      35.603  11.110  18.951  0.00  0.00     0.002 A 
HETATM   24  C   UNK N   1      35.625  11.075  17.556  0.00  0.00     0.029 A 
ENDBRANCH  16  19
ENDBRANCH  14  15
ENDBRANCH   1  13
BRANCH  11  25
HETATM   25  C   UNK N   1      35.842  15.917  10.686  0.00  0.00     0.194 C 
HETATM   26  O   UNK N   1      35.110  16.866  10.917  0.00  0.00    -0.645 OA
BRANCH  25  27
HETATM   27  O   UNK N   1      37.173  16.059  10.827  0.00  0.00    -0.772 OA
HETATM   28  H   UNK N   1      37.550  16.915  10.894  0.00  0.00     0.167 HD
ENDBRANCH  25  27
ENDBRANCH  11  25
TORSDOF 5
ENDMDL
MODEL 3
REMARK VINA RESULT:      -7.0      8.205     11.369
REMARK  5 active torsions:
REMARK  status: ('A' for Active; 'I' for Inactive)
REMARK    1  A    between atoms: C_4  and  N_7 
REMARK       I    between atoms: N_7  and  C_8 
REMARK    2  A    between atoms: C_8  and  C_10 
REMARK    3  A    between atoms: C_11  and  C_12 
REMARK    4  A    between atoms: C_22  and  C_23 
REMARK    5  A    between atoms: C_23  and  O_25 
ROOT
HETATM    1  C   UNK N   1      29.926  17.241   7.334  0.00  0.00     0.012 A 
HETATM    2  C   UNK N   1      31.067  16.759   6.679  0.00  0.00     0.025 A 
HETATM    3  C   UNK N   1      31.992  16.519   7.677  0.00  0.00     0.047 A 
HETATM    4  C   UNK N   1      33.277  16.057   7.417  0.00  0.00     0.054 A 
HETATM    5  C   UNK N   1      33.637  15.821   6.085  0.00  0.00     0.037 A 
HETATM    6  C   UNK N   1      32.707  16.026   5.054  0.00  0.00     0.048 A 
HETATM    7  C   UNK N   1      31.411  16.494   5.327  0.00  0.00     0.049 A 
HETATM    8 Cl   UNK N   1      30.335  16.651   3.954  0.00  0.00    -0.083 Cl
HETATM    9 Cl   UNK N   1      35.250  15.267   5.698  0.00  0.00    -0.084 Cl
HETATM   10  N   UNK N   1      31.496  16.791   8.896  0.00  0.00    -0.349 N 
HETATM   11  C   UNK N   1      30.235  17.225   8.697  0.00  0.00     0.118 A 
HETATM   12  H   UNK N   1      31.959  16.692   9.759  0.00  0.00     0.166 HD
ENDROOT
BRANCH   1  13
HETATM   13  C   UNK N   1      28.638  17.742   6.822  0.00  0.00     0.020 C 
HETATM   14  C   UNK N   1      28.444  18.975   6.371  0.00  0.00     0.075 C 
BRANCH  14  15
HETATM   15  C   UNK N   1      27.127  19.425   5.916  0.00  0.00     0.245 C 
HETATM   16  N   UNK N   1      26.534  18.813   4.855  0.00  0.00    -0.324 N 
HETATM   17  H   UNK N   1      27.007  18.046   4.459  0.00  0.00     0.169 HD
HETATM   18  O   UNK N   1      26.577  20.338   6.511  0.00  0.00    -0.268 OA
BRANCH  16  19
HETATM   19  C   UNK N   1      25.294  19.179   4.266  0.00  0.00     0.035 A 
HETATM   20  C   UNK N   1      25.269  20.252   3.369  0.00  0.00     0.029 A 
HETATM   21  C   UNK N   1      24.064  20.660   2.789  0.00  0.00     0.002 A 
HETATM   22  C   UNK N   1      22.875  20.001   3.111  0.00  0.00     0.000 A 
HETATM   23  C   UNK N   1      22.890  18.931   4.010  0.00  0.00     0.002 A 
HETATM   24  C   UNK N   1      24.094  18.522   4.585  0.00  0.00     0.029 A 
ENDBRANCH  16  19
ENDBRANCH  14  15
ENDBRANCH   1  13
BRANCH  11  25
HETATM   25  C   UNK N   1      29.353  17.640   9.812  0.00  0.00     0.194 C 
HETATM   26  O   UNK N   1      28.355  16.997  10.094  0.00  0.00    -0.645 OA
BRANCH  25  27
HETATM   27  O   UNK N   1      29.657  18.738  10.530  0.00  0.00    -0.772 OA
HETATM   28  H   UNK N   1      29.107  19.495  10.486  0.00  0.00     0.167 HD
ENDBRANCH  25  27
ENDBRANCH  11  25
TORSDOF 5
ENDMDL
MODEL 4
REMARK VINA RESULT:      -7.0      9.837     11.509
REMARK  5 active torsions:
REMARK  status: ('A' for Active; 'I' for Inactive)
REMARK    1  A    between atoms: C_4  and  N_7 
REMARK       I    between atoms: N_7  and  C_8 
REMARK    2  A    between atoms: C_8  and  C_10 
REMARK    3  A    between atoms: C_11  and  C_12 
REMARK    4  A    between atoms: C_22  and  C_23 
REMARK    5  A    between atoms: C_23  and  O_25 
ROOT
HETATM    1  C   UNK N   1      29.852  17.434   7.343  0.00  0.00     0.012 A 
HETATM    2  C   UNK N   1      29.113  17.601   6.165  0.00  0.00     0.025 A 
HETATM    3  C   UNK N   1      27.855  18.005   6.572  0.00  0.00     0.047 A 
HETATM    4  C   UNK N   1      26.816  18.244   5.682  0.00  0.00     0.054 A 
HETATM    5  C   UNK N   1      27.065  18.074   4.315  0.00  0.00     0.037 A 
HETATM    6  C   UNK N   1      28.342  17.697   3.870  0.00  0.00     0.048 A 
HETATM    7  C   UNK N   1      29.385  17.456   4.779  0.00  0.00     0.049 A 
HETATM    8 Cl   UNK N   1      30.941  17.047   4.086  0.00  0.00    -0.083 Cl
HETATM    9 Cl   UNK N   1      25.785  18.334   3.151  0.00  0.00    -0.084 Cl
HETATM   10  N   UNK N   1      27.777  18.124   7.909  0.00  0.00    -0.349 N 
HETATM   11  C   UNK N   1      28.991  17.785   8.386  0.00  0.00     0.118 A 
HETATM   12  H   UNK N   1      26.991  18.403   8.433  0.00  0.00     0.166 HD
ENDROOT
BRANCH   1  13
HETATM   13  C   UNK N   1      31.224  16.950   7.580  0.00  0.00     0.020 C 
HETATM   14  C   UNK N   1      32.304  17.720   7.545  0.00  0.00     0.075 C 
BRANCH  14  15
HETATM   15  C   UNK N   1      33.645  17.169   7.746  0.00  0.00     0.245 C 
HETATM   16  N   UNK N   1      33.796  15.976   8.381  0.00  0.00    -0.324 N 
HETATM   17  H   UNK N   1      32.974  15.502   8.644  0.00  0.00     0.169 HD
HETATM   18  O   UNK N   1      34.608  17.790   7.322  0.00  0.00    -0.268 OA
BRANCH  16  19
HETATM   19  C   UNK N   1      35.031  15.349   8.699  0.00  0.00     0.035 A 
HETATM   20  C   UNK N   1      35.607  14.488   7.760  0.00  0.00     0.029 A 
HETATM   21  C   UNK N   1      36.808  13.832   8.046  0.00  0.00     0.002 A 
HETATM   22  C   UNK N   1      37.434  14.026   9.280  0.00  0.00     0.000 A 
HETATM   23  C   UNK N   1      36.862  14.881  10.226  0.00  0.00     0.002 A 
HETATM   24  C   UNK N   1      35.666  15.539   9.938  0.00  0.00     0.029 A 
ENDBRANCH  16  19
ENDBRANCH  14  15
ENDBRANCH   1  13
BRANCH  11  25
HETATM   25  C   UNK N   1      29.302  17.779   9.833  0.00  0.00     0.194 C 
HETATM   26  O   UNK N   1      29.066  16.798  10.520  0.00  0.00    -0.645 OA
BRANCH  25  27
HETATM   27  O   UNK N   1      29.859  18.865  10.401  0.00  0.00    -0.772 OA
HETATM   28  H   UNK N   1      30.777  18.878  10.590  0.00  0.00     0.167 HD
ENDBRANCH  25  27
ENDBRANCH  11  25
TORSDOF 5
ENDMDL
MODEL 5
REMARK VINA RESULT:      -6.9      5.946      7.101
REMARK  5 active torsions:
REMARK  status: ('A' for Active; 'I' for Inactive)
REMARK    1  A    between atoms: C_4  and  N_7 
REMARK       I    between atoms: N_7  and  C_8 
REMARK    2  A    between atoms: C_8  and  C_10 
REMARK    3  A    between atoms: C_11  and  C_12 
REMARK    4  A    between atoms: C_22  and  C_23 
REMARK    5  A    between atoms: C_23  and  O_25 
ROOT
HETATM    1  C   UNK N   1      23.566  18.603   4.331  0.00  0.00     0.012 A 
HETATM    2  C   UNK N   1      22.609  17.603   4.546  0.00  0.00     0.025 A 
HETATM    3  C   UNK N   1      21.518  17.965   3.779  0.00  0.00     0.047 A 
HETATM    4  C   UNK N   1      20.339  17.229   3.751  0.00  0.00     0.054 A 
HETATM    5  C   UNK N   1      20.267  16.068   4.530  0.00  0.00     0.037 A 
HETATM    6  C   UNK N   1      21.372  15.659   5.293  0.00  0.00     0.048 A 
HETATM    7  C   UNK N   1      22.558  16.411   5.315  0.00  0.00     0.049 A 
HETATM    8 Cl   UNK N   1      23.877  15.756   6.265  0.00  0.00    -0.083 Cl
HETATM    9 Cl   UNK N   1      18.799  15.118   4.555  0.00  0.00    -0.084 Cl
HETATM   10  N   UNK N   1      21.744  19.097   3.090  0.00  0.00    -0.349 N 
HETATM   11  C   UNK N   1      22.992  19.489   3.415  0.00  0.00     0.118 A 
HETATM   12  H   UNK N   1      21.123  19.547   2.472  0.00  0.00     0.166 HD
ENDROOT
BRANCH   1  13
HETATM   13  C   UNK N   1      24.900  18.827   4.917  0.00  0.00     0.020 C 
HETATM   14  C   UNK N   1      25.996  18.179   4.544  0.00  0.00     0.075 C 
BRANCH  14  15
HETATM   15  C   UNK N   1      27.285  18.416   5.197  0.00  0.00     0.245 C 
HETATM   16  N   UNK N   1      27.638  17.674   6.282  0.00  0.00    -0.324 N 
HETATM   17  H   UNK N   1      27.017  16.963   6.559  0.00  0.00     0.169 HD
HETATM   18  O   UNK N   1      28.030  19.270   4.742  0.00  0.00    -0.268 OA
BRANCH  16  19
HETATM   19  C   UNK N   1      28.823  17.831   7.051  0.00  0.00     0.035 A 
HETATM   20  C   UNK N   1      29.981  17.161   6.643  0.00  0.00     0.029 A 
HETATM   21  C   UNK N   1      31.158  17.268   7.387  0.00  0.00     0.002 A 
HETATM   22  C   UNK N   1      31.181  18.039   8.553  0.00  0.00     0.000 A 
HETATM   23  C   UNK N   1      30.027  18.707   8.971  0.00  0.00     0.002 A 
HETATM   24  C   UNK N   1      28.853  18.604   8.224  0.00  0.00     0.029 A 
ENDBRANCH  16  19
ENDBRANCH  14  15
ENDBRANCH   1  13
BRANCH  11  25
HETATM   25  C   UNK N   1      23.607  20.717   2.863  0.00  0.00     0.194 C 
HETATM   26  O   UNK N   1      23.090  21.809   3.035  0.00  0.00    -0.645 OA
BRANCH  25  27
HETATM   27  O   UNK N   1      24.757  20.632   2.167  0.00  0.00    -0.772 OA
HETATM   28  H   UNK N   1      25.522  20.265   2.566  0.00  0.00     0.167 HD
ENDBRANCH  25  27
ENDBRANCH  11  25
TORSDOF 5
ENDMDL
MODEL 6
REMARK VINA RESULT:      -6.8     10.016     11.563
REMARK  5 active torsions:
REMARK  status: ('A' for Active; 'I' for Inactive)
REMARK    1  A    between atoms: C_4  and  N_7 
REMARK       I    between atoms: N_7  and  C_8 
REMARK    2  A    between atoms: C_8  and  C_10 
REMARK    3  A    between atoms: C_11  and  C_12 
REMARK    4  A    between atoms: C_22  and  C_23 
REMARK    5  A    between atoms: C_23  and  O_25 
ROOT
HETATM    1  C   UNK N   1      30.711  16.654   7.103  0.00  0.00     0.012 A 
HETATM    2  C   UNK N   1      29.702  17.625   7.143  0.00  0.00     0.025 A 
HETATM    3  C   UNK N   1      29.072  17.553   5.915  0.00  0.00     0.047 A 
HETATM    4  C   UNK N   1      28.024  18.392   5.556  0.00  0.00     0.054 A 
HETATM    5  C   UNK N   1      27.589  19.342   6.488  0.00  0.00     0.037 A 
HETATM    6  C   UNK N   1      28.189  19.415   7.755  0.00  0.00     0.048 A 
HETATM    7  C   UNK N   1      29.249  18.563   8.107  0.00  0.00     0.049 A 
HETATM    8 Cl   UNK N   1      29.867  18.724   9.738  0.00  0.00    -0.083 Cl
HETATM    9 Cl   UNK N   1      26.293  20.442   6.079  0.00  0.00    -0.084 Cl
HETATM   10  N   UNK N   1      29.602  16.593   5.136  0.00  0.00    -0.349 N 
HETATM   11  C   UNK N   1      30.597  16.036   5.855  0.00  0.00     0.118 A 
HETATM   12  H   UNK N   1      29.319  16.348   4.226  0.00  0.00     0.166 HD
ENDROOT
BRANCH   1  13
HETATM   13  C   UNK N   1      31.766  16.295   8.069  0.00  0.00     0.020 C 
HETATM   14  C   UNK N   1      32.902  16.964   8.216  0.00  0.00     0.075 C 
BRANCH  14  15
HETATM   15  C   UNK N   1      33.930  16.530   9.163  0.00  0.00     0.245 C 
HETATM   16  N   UNK N   1      34.119  15.201   9.391  0.00  0.00    -0.324 N 
HETATM   17  H   UNK N   1      33.575  14.575   8.862  0.00  0.00     0.169 HD
HETATM   18  O   UNK N   1      34.612  17.374   9.723  0.00  0.00    -0.268 OA
BRANCH  16  19
HETATM   19  C   UNK N   1      35.032  14.635  10.322  0.00  0.00     0.035 A 
HETATM   20  C   UNK N   1      36.293  14.236   9.866  0.00  0.00     0.029 A 
HETATM   21  C   UNK N   1      37.208  13.651  10.744  0.00  0.00     0.002 A 
HETATM   22  C   UNK N   1      36.863  13.452  12.084  0.00  0.00     0.000 A 
HETATM   23  C   UNK N   1      35.604  13.843  12.546  0.00  0.00     0.002 A 
HETATM   24  C   UNK N   1      34.692  14.432  11.669  0.00  0.00     0.029 A 
ENDBRANCH  16  19
ENDBRANCH  14  15
ENDBRANCH   1  13
BRANCH  11  25
HETATM   25  C   UNK N   1      31.437  14.937   5.328  0.00  0.00     0.194 C 
HETATM   26  O   UNK N   1      32.334  15.161   4.532  0.00  0.00    -0.645 OA
BRANCH  25  27
HETATM   27  O   UNK N   1      31.215  13.673   5.736  0.00  0.00    -0.772 OA
HETATM   28  H   UNK N   1      31.597  13.364   6.535  0.00  0.00     0.167 HD
ENDBRANCH  25  27
ENDBRANCH  11  25
TORSDOF 5
ENDMDL
MODEL 7
REMARK VINA RESULT:      -6.7     12.757     16.052
REMARK  5 active torsions:
REMARK  status: ('A' for Active; 'I' for Inactive)
REMARK    1  A    between atoms: C_4  and  N_7 
REMARK       I    between atoms: N_7  and  C_8 
REMARK    2  A    between atoms: C_8  and  C_10 
REMARK    3  A    between atoms: C_11  and  C_12 
REMARK    4  A    between atoms: C_22  and  C_23 
REMARK    5  A    between atoms: C_23  and  O_25 
ROOT
HETATM    1  C   UNK N   1      36.058  14.538   9.486  0.00  0.00     0.012 A 
HETATM    2  C   UNK N   1      37.134  13.996   8.772  0.00  0.00     0.025 A 
HETATM    3  C   UNK N   1      37.983  13.468   9.726  0.00  0.00     0.047 A 
HETATM    4  C   UNK N   1      39.192  12.864   9.406  0.00  0.00     0.054 A 
HETATM    5  C   UNK N   1      39.553  12.783   8.056  0.00  0.00     0.037 A 
HETATM    6  C   UNK N   1      38.695  13.281   7.063  0.00  0.00     0.048 A 
HETATM    7  C   UNK N   1      37.475  13.892   7.397  0.00  0.00     0.049 A 
HETATM    8 Cl   UNK N   1      36.476  14.418   6.058  0.00  0.00    -0.083 Cl
HETATM    9 Cl   UNK N   1      41.077  12.057   7.598  0.00  0.00    -0.084 Cl
HETATM   10  N   UNK N   1      37.496  13.623  10.969  0.00  0.00    -0.349 N 
HETATM   11  C   UNK N   1      36.320  14.268  10.832  0.00  0.00     0.118 A 
HETATM   12  H   UNK N   1      37.913  13.324  11.809  0.00  0.00     0.166 HD
ENDROOT
BRANCH   1  13
HETATM   13  C   UNK N   1      34.874  15.300   9.050  0.00  0.00     0.020 C 
HETATM   14  C   UNK N   1      34.797  16.625   9.052  0.00  0.00     0.075 C 
BRANCH  14  15
HETATM   15  C   UNK N   1      33.576  17.322   8.648  0.00  0.00     0.245 C 
HETATM   16  N   UNK N   1      32.363  16.746   8.872  0.00  0.00    -0.324 N 
HETATM   17  H   UNK N   1      32.360  15.885   9.350  0.00  0.00     0.169 HD
HETATM   18  O   UNK N   1      33.668  18.422   8.126  0.00  0.00    -0.268 OA
BRANCH  16  19
HETATM   19  C   UNK N   1      31.102  17.272   8.482  0.00  0.00     0.035 A 
HETATM   20  C   UNK N   1      30.394  18.060   9.395  0.00  0.00     0.029 A 
HETATM   21  C   UNK N   1      29.139  18.574   9.059  0.00  0.00     0.002 A 
HETATM   22  C   UNK N   1      28.580  18.294   7.809  0.00  0.00     0.000 A 
HETATM   23  C   UNK N   1      29.279  17.503   6.893  0.00  0.00     0.002 A 
HETATM   24  C   UNK N   1      30.535  16.994   7.228  0.00  0.00     0.029 A 
ENDBRANCH  16  19
ENDBRANCH  14  15
ENDBRANCH   1  13
BRANCH  11  25
HETATM   25  C   UNK N   1      35.476  14.635  11.992  0.00  0.00     0.194 C 
HETATM   26  O   UNK N   1      35.890  15.397  12.851  0.00  0.00    -0.645 OA
BRANCH  25  27
HETATM   27  O   UNK N   1      34.233  14.130  12.100  0.00  0.00    -0.772 OA
HETATM   28  H   UNK N   1      33.706  14.335  12.848  0.00  0.00     0.167 HD
ENDBRANCH  25  27
ENDBRANCH  11  25
TORSDOF 5
ENDMDL
MODEL 8
REMARK VINA RESULT:      -6.7      2.691      3.684
REMARK  5 active torsions:
REMARK  status: ('A' for Active; 'I' for Inactive)
REMARK    1  A    between atoms: C_4  and  N_7 
REMARK       I    between atoms: N_7  and  C_8 
REMARK    2  A    between atoms: C_8  and  C_10 
REMARK    3  A    between atoms: C_11  and  C_12 
REMARK    4  A    between atoms: C_22  and  C_23 
REMARK    5  A    between atoms: C_23  and  O_25 
ROOT
HETATM    1  C   UNK N   1      21.422  15.883   4.500  0.00  0.00     0.012 A 
HETATM    2  C   UNK N   1      20.807  15.622   3.269  0.00  0.00     0.025 A 
HETATM    3  C   UNK N   1      20.648  16.856   2.667  0.00  0.00     0.047 A 
HETATM    4  C   UNK N   1      20.038  17.016   1.428  0.00  0.00     0.054 A 
HETATM    5  C   UNK N   1      19.577  15.873   0.766  0.00  0.00     0.037 A 
HETATM    6  C   UNK N   1      19.754  14.604   1.339  0.00  0.00     0.048 A 
HETATM    7  C   UNK N   1      20.370  14.452   2.592  0.00  0.00     0.049 A 
HETATM    8 Cl   UNK N   1      20.579  12.810   3.164  0.00  0.00    -0.083 Cl
HETATM    9 Cl   UNK N   1      18.777  16.019  -0.782  0.00  0.00    -0.084 Cl
HETATM   10  N   UNK N   1      21.143  17.850   3.425  0.00  0.00    -0.349 N 
HETATM   11  C   UNK N   1      21.622  17.265   4.541  0.00  0.00     0.118 A 
HETATM   12  H   UNK N   1      21.153  18.810   3.207  0.00  0.00     0.166 HD
ENDROOT
BRANCH   1  13
HETATM   13  C   UNK N   1      21.782  14.999   5.624  0.00  0.00     0.020 C 
HETATM   14  C   UNK N   1      20.902  14.343   6.369  0.00  0.00     0.075 C 
BRANCH  14  15
HETATM   15  C   UNK N   1      21.323  13.514   7.500  0.00  0.00     0.245 C 
HETATM   16  N   UNK N   1      22.194  14.016   8.417  0.00  0.00    -0.324 N 
HETATM   17  H   UNK N   1      22.475  14.952   8.301  0.00  0.00     0.169 HD
HETATM   18  O   UNK N   1      20.868  12.386   7.607  0.00  0.00    -0.268 OA
BRANCH  16  19
HETATM   19  C   UNK N   1      22.736  13.313   9.527  0.00  0.00     0.035 A 
HETATM   20  C   UNK N   1      24.108  13.038   9.540  0.00  0.00     0.029 A 
HETATM   21  C   UNK N   1      24.674  12.326  10.601  0.00  0.00     0.002 A 
HETATM   22  C   UNK N   1      23.868  11.875  11.650  0.00  0.00     0.000 A 
HETATM   23  C   UNK N   1      22.497  12.141  11.641  0.00  0.00     0.002 A 
HETATM   24  C   UNK N   1      21.933  12.856  10.584  0.00  0.00     0.029 A 
ENDBRANCH  16  19
ENDBRANCH  14  15
ENDBRANCH   1  13
BRANCH  11  25
HETATM   25  C   UNK N   1      22.244  18.040   5.638  0.00  0.00     0.194 C 
HETATM   26  O   UNK N   1      23.427  18.337   5.603  0.00  0.00    -0.645 OA
BRANCH  25  27
HETATM   27  O   UNK N   1      21.495  18.430   6.687  0.00  0.00    -0.772 OA
HETATM   28  H   UNK N   1      21.156  19.304   6.723  0.00  0.00     0.167 HD
ENDBRANCH  25  27
ENDBRANCH  11  25
TORSDOF 5
ENDMDL
MODEL 9
REMARK VINA RESULT:      -6.7     12.620     15.831
REMARK  5 active torsions:
REMARK  status: ('A' for Active; 'I' for Inactive)
REMARK    1  A    between atoms: C_4  and  N_7 
REMARK       I    between atoms: N_7  and  C_8 
REMARK    2  A    between atoms: C_8  and  C_10 
REMARK    3  A    between atoms: C_11  and  C_12 
REMARK    4  A    between atoms: C_22  and  C_23 
REMARK    5  A    between atoms: C_23  and  O_25 
ROOT
HETATM    1  C   UNK N   1      34.559  13.188  10.256  0.00  0.00     0.012 A 
HETATM    2  C   UNK N   1      35.157  13.608  11.451  0.00  0.00     0.025 A 
HETATM    3  C   UNK N   1      35.035  12.541  12.320  0.00  0.00     0.047 A 
HETATM    4  C   UNK N   1      35.486  12.585  13.634  0.00  0.00     0.054 A 
HETATM    5  C   UNK N   1      36.096  13.762  14.084  0.00  0.00     0.037 A 
HETATM    6  C   UNK N   1      36.262  14.849  13.213  0.00  0.00     0.048 A 
HETATM    7  C   UNK N   1      35.801  14.796  11.888  0.00  0.00     0.049 A 
HETATM    8 Cl   UNK N   1      36.124  16.201  10.894  0.00  0.00    -0.083 Cl
HETATM    9 Cl   UNK N   1      36.657  13.882  15.736  0.00  0.00    -0.084 Cl
HETATM   10  N   UNK N   1      34.432  11.489  11.740  0.00  0.00    -0.349 N 
HETATM   11  C   UNK N   1      34.145  11.872  10.480  0.00  0.00     0.118 A 
HETATM   12  H   UNK N   1      34.240  10.616  12.152  0.00  0.00     0.166 HD
ENDROOT
BRANCH   1  13
HETATM   13  C   UNK N   1      34.305  13.891   8.985  0.00  0.00     0.020 C 
HETATM   14  C   UNK N   1      35.245  14.194   8.100  0.00  0.00     0.075 C 
BRANCH  14  15
HETATM   15  C   UNK N   1      34.935  14.933   6.875  0.00  0.00     0.245 C 
HETATM   16  N   UNK N   1      33.637  15.163   6.537  0.00  0.00    -0.324 N 
HETATM   17  H   UNK N   1      32.949  14.855   7.169  0.00  0.00     0.169 HD
HETATM   18  O   UNK N   1      35.854  15.345   6.185  0.00  0.00    -0.268 OA
BRANCH  16  19
HETATM   19  C   UNK N   1      33.184  15.810   5.355  0.00  0.00     0.035 A 
HETATM   20  C   UNK N   1      33.076  15.058   4.180  0.00  0.00     0.029 A 
HETATM   21  C   UNK N   1      32.660  15.663   2.991  0.00  0.00     0.002 A 
HETATM   22  C   UNK N   1      32.358  17.027   2.969  0.00  0.00     0.000 A 
HETATM   23  C   UNK N   1      32.469  17.786   4.136  0.00  0.00     0.002 A 
HETATM   24  C   UNK N   1      32.880  17.180   5.325  0.00  0.00     0.029 A 
ENDBRANCH  16  19
ENDBRANCH  14  15
ENDBRANCH   1  13
BRANCH  11  25
HETATM   25  C   UNK N   1      33.458  10.982   9.517  0.00  0.00     0.194 C 
HETATM   26  O   UNK N   1      34.093  10.323   8.710  0.00  0.00    -0.645 OA
BRANCH  25  27
HETATM   27  O   UNK N   1      32.114  10.891   9.533  0.00  0.00    -0.772 OA
HETATM   28  H   UNK N   1      31.659  10.807  10.349  0.00  0.00     0.167 HD
ENDBRANCH  25  27
ENDBRANCH  11  25
TORSDOF 5
ENDMDL
