MODEL 1
REMARK VINA RESULT:      -7.1      0.000      0.000
REMARK  3 active torsions:
REMARK  status: ('A' for Active; 'I' for Inactive)
REMARK    1  A    between atoms: C_11  and  C_8 
REMARK    2  A    between atoms: C_14  and  C_8 
REMARK    3  A    between atoms: O_19  and  C_14 
ROOT
HETATM    1  C   UNK N   1      25.820  28.356  -4.545  0.00  0.00     0.049 C 
HETATM    2  C   UNK N   1      28.178  26.881  -3.681  0.00  0.00     0.052 C 
HETATM    3  C   UNK N   1      29.691  20.748  -6.681  0.00  0.00     0.002 A 
HETATM    4  C   UNK N   1      30.489  21.288  -5.676  0.00  0.00     0.010 A 
HETATM    5  C   UNK N   1      28.561  21.432  -7.111  0.00  0.00     0.018 A 
HETATM    6  C   UNK N   1      25.344  26.535  -6.172  0.00  0.00     0.008 A 
HETATM    7  C   UNK N   1      25.639  25.313  -6.774  0.00  0.00     0.019 A 
HETATM    8  C   UNK N   1      26.168  27.045  -5.167  0.00  0.00    -0.053 A 
HETATM    9  C   UNK N   1      27.305  26.325  -4.756  0.00  0.00    -0.021 A 
HETATM   10  C   UNK N   1      30.188  22.516  -5.074  0.00  0.00    -0.013 A 
HETATM   11  C   UNK N   1      28.220  22.662  -6.539  0.00  0.00     0.049 A 
HETATM   12  C   UNK N   1      26.767  24.583  -6.378  0.00  0.00     0.049 A 
HETATM   13  C   UNK N   1      27.082  23.356  -6.968  0.00  0.00     0.198 A 
HETATM   14  C   UNK N   1      27.611  25.087  -5.362  0.00  0.00     0.096 A 
HETATM   15  C   UNK N   1      29.028  23.223  -5.512  0.00  0.00     0.097 A 
HETATM   16  O   UNK N   1      26.370  22.895  -7.851  0.00  0.00    -0.286 OA
HETATM   17  O   UNK N   1      28.686  24.394  -4.982  0.00  0.00    -0.308 OA
ENDROOT
BRANCH  10  18
HETATM   18  C   UNK N   1      31.179  22.935  -3.999  0.00  0.00     0.151 C 
BRANCH  18  19
HETATM   19  C   UNK N   1      31.294  22.441  -2.579  0.00  0.00     0.143 C 
HETATM   20  O   UNK N   1      30.564  22.928  -1.734  0.00  0.00    -0.650 OA
BRANCH  19  21
HETATM   21  O   UNK N   1      32.159  21.494  -2.209  0.00  0.00    -0.776 OA
HETATM   22  H   UNK N   1      32.946  21.729  -1.760  0.00  0.00     0.167 HD
ENDBRANCH  19  21
ENDBRANCH  18  19
ENDBRANCH  10  18
TORSDOF 3
ENDMDL
MODEL 2
REMARK VINA RESULT:      -7.0      1.587      4.833
REMARK  3 active torsions:
REMARK  status: ('A' for Active; 'I' for Inactive)
REMARK    1  A    between atoms: C_11  and  C_8 
REMARK    2  A    between atoms: C_14  and  C_8 
REMARK    3  A    between atoms: O_19  and  C_14 
ROOT
HETATM    1  C   UNK N   1      29.806  19.233  -8.982  0.00  0.00     0.049 C 
HETATM    2  C   UNK N   1      30.507  20.730  -6.584  0.00  0.00     0.052 C 
HETATM    3  C   UNK N   1      26.160  25.671  -4.219  0.00  0.00     0.002 A 
HETATM    4  C   UNK N   1      27.358  25.380  -3.573  0.00  0.00     0.010 A 
HETATM    5  C   UNK N   1      25.802  24.972  -5.365  0.00  0.00     0.018 A 
HETATM    6  C   UNK N   1      27.705  20.557  -9.128  0.00  0.00     0.008 A 
HETATM    7  C   UNK N   1      26.833  21.540  -8.663  0.00  0.00     0.019 A 
HETATM    8  C   UNK N   1      28.898  20.293  -8.453  0.00  0.00    -0.053 A 
HETATM    9  C   UNK N   1      29.228  21.022  -7.296  0.00  0.00    -0.021 A 
HETATM   10  C   UNK N   1      28.230  24.391  -4.045  0.00  0.00    -0.013 A 
HETATM   11  C   UNK N   1      26.641  23.975  -5.874  0.00  0.00     0.049 A 
HETATM   12  C   UNK N   1      27.146  22.275  -7.512  0.00  0.00     0.049 A 
HETATM   13  C   UNK N   1      26.287  23.266  -7.028  0.00  0.00     0.198 A 
HETATM   14  C   UNK N   1      28.350  22.020  -6.818  0.00  0.00     0.096 A 
HETATM   15  C   UNK N   1      27.868  23.669  -5.221  0.00  0.00     0.097 A 
HETATM   16  O   UNK N   1      25.237  23.509  -7.607  0.00  0.00    -0.286 OA
HETATM   17  O   UNK N   1      28.651  22.718  -5.722  0.00  0.00    -0.308 OA
ENDROOT
BRANCH  10  18
HETATM   18  C   UNK N   1      29.485  24.223  -3.202  0.00  0.00     0.151 C 
BRANCH  18  19
HETATM   19  C   UNK N   1      30.028  22.973  -2.560  0.00  0.00     0.143 C 
HETATM   20  O   UNK N   1      30.428  23.037  -1.411  0.00  0.00    -0.650 OA
BRANCH  19  21
HETATM   21  O   UNK N   1      30.090  21.800  -3.194  0.00  0.00    -0.776 OA
HETATM   22  H   UNK N   1      29.322  21.272  -3.278  0.00  0.00     0.167 HD
ENDBRANCH  19  21
ENDBRANCH  18  19
ENDBRANCH  10  18
TORSDOF 3
ENDMDL
MODEL 3
REMARK VINA RESULT:      -6.6      2.232      6.925
REMARK  3 active torsions:
REMARK  status: ('A' for Active; 'I' for Inactive)
REMARK    1  A    between atoms: C_11  and  C_8 
REMARK    2  A    between atoms: C_14  and  C_8 
REMARK    3  A    between atoms: O_19  and  C_14 
ROOT
HETATM    1  C   UNK N   1      34.582  19.186  -5.330  0.00  0.00     0.049 C 
HETATM    2  C   UNK N   1      32.289  20.095  -6.879  0.00  0.00     0.052 C 
HETATM    3  C   UNK N   1      27.545  24.264  -3.876  0.00  0.00     0.002 A 
HETATM    4  C   UNK N   1      27.425  23.854  -5.201  0.00  0.00     0.010 A 
HETATM    5  C   UNK N   1      28.629  23.844  -3.116  0.00  0.00     0.018 A 
HETATM    6  C   UNK N   1      33.708  20.467  -3.385  0.00  0.00     0.008 A 
HETATM    7  C   UNK N   1      32.766  21.297  -2.780  0.00  0.00     0.019 A 
HETATM    8  C   UNK N   1      33.553  20.076  -4.716  0.00  0.00    -0.053 A 
HETATM    9  C   UNK N   1      32.442  20.521  -5.456  0.00  0.00    -0.021 A 
HETATM   10  C   UNK N   1      28.374  23.019  -5.804  0.00  0.00    -0.013 A 
HETATM   11  C   UNK N   1      29.603  23.010  -3.675  0.00  0.00     0.049 A 
HETATM   12  C   UNK N   1      31.654  21.750  -3.501  0.00  0.00     0.049 A 
HETATM   13  C   UNK N   1      30.698  22.583  -2.914  0.00  0.00     0.198 A 
HETATM   14  C   UNK N   1      31.484  21.362  -4.850  0.00  0.00     0.096 A 
HETATM   15  C   UNK N   1      29.489  22.585  -5.028  0.00  0.00     0.097 A 
HETATM   16  O   UNK N   1      30.818  22.935  -1.748  0.00  0.00    -0.286 OA
HETATM   17  O   UNK N   1      30.426  21.791  -5.540  0.00  0.00    -0.308 OA
ENDROOT
BRANCH  10  18
HETATM   18  C   UNK N   1      28.065  22.684  -7.255  0.00  0.00     0.151 C 
BRANCH  18  19
HETATM   19  C   UNK N   1      28.025  21.332  -7.922  0.00  0.00     0.143 C 
HETATM   20  O   UNK N   1      27.259  21.167  -8.854  0.00  0.00    -0.650 OA
BRANCH  19  21
HETATM   21  O   UNK N   1      28.793  20.310  -7.535  0.00  0.00    -0.776 OA
HETATM   22  H   UNK N   1      29.470  19.994  -8.099  0.00  0.00     0.167 HD
ENDBRANCH  19  21
ENDBRANCH  18  19
ENDBRANCH  10  18
TORSDOF 3
ENDMDL
MODEL 4
REMARK VINA RESULT:      -6.6      1.846      5.269
REMARK  3 active torsions:
REMARK  status: ('A' for Active; 'I' for Inactive)
REMARK    1  A    between atoms: C_11  and  C_8 
REMARK    2  A    between atoms: C_14  and  C_8 
REMARK    3  A    between atoms: O_19  and  C_14 
ROOT
HETATM    1  C   UNK N   1      31.949  21.571  -2.888  0.00  0.00     0.049 C 
HETATM    2  C   UNK N   1      30.163  23.872  -2.892  0.00  0.00     0.052 C 
HETATM    3  C   UNK N   1      25.607  24.682  -8.135  0.00  0.00     0.002 A 
HETATM    4  C   UNK N   1      25.685  25.595  -7.086  0.00  0.00     0.010 A 
HETATM    5  C   UNK N   1      26.447  23.577  -8.157  0.00  0.00     0.018 A 
HETATM    6  C   UNK N   1      30.916  20.835  -5.029  0.00  0.00     0.008 A 
HETATM    7  C   UNK N   1      30.011  20.990  -6.077  0.00  0.00     0.019 A 
HETATM    8  C   UNK N   1      30.966  21.771  -3.994  0.00  0.00    -0.053 A 
HETATM    9  C   UNK N   1      30.099  22.879  -4.005  0.00  0.00    -0.021 A 
HETATM   10  C   UNK N   1      26.597  25.434  -6.035  0.00  0.00    -0.013 A 
HETATM   11  C   UNK N   1      27.374  23.374  -7.130  0.00  0.00     0.049 A 
HETATM   12  C   UNK N   1      29.140  22.087  -6.104  0.00  0.00     0.049 A 
HETATM   13  C   UNK N   1      28.225  22.262  -7.145  0.00  0.00     0.198 A 
HETATM   14  C   UNK N   1      29.179  23.043  -5.063  0.00  0.00     0.096 A 
HETATM   15  C   UNK N   1      27.463  24.300  -6.052  0.00  0.00     0.097 A 
HETATM   16  O   UNK N   1      28.168  21.451  -8.060  0.00  0.00    -0.286 OA
HETATM   17  O   UNK N   1      28.351  24.089  -5.085  0.00  0.00    -0.308 OA
ENDROOT
BRANCH  10  18
HETATM   18  C   UNK N   1      26.529  26.534  -4.987  0.00  0.00     0.151 C 
BRANCH  18  19
HETATM   19  C   UNK N   1      26.342  26.406  -3.497  0.00  0.00     0.143 C 
HETATM   20  O   UNK N   1      25.995  27.390  -2.868  0.00  0.00    -0.650 OA
BRANCH  19  21
HETATM   21  O   UNK N   1      26.540  25.262  -2.838  0.00  0.00    -0.776 OA
HETATM   22  H   UNK N   1      25.931  24.557  -2.930  0.00  0.00     0.167 HD
ENDBRANCH  19  21
ENDBRANCH  18  19
ENDBRANCH  10  18
TORSDOF 3
ENDMDL
MODEL 5
REMARK VINA RESULT:      -6.5     11.486     12.956
REMARK  3 active torsions:
REMARK  status: ('A' for Active; 'I' for Inactive)
REMARK    1  A    between atoms: C_11  and  C_8 
REMARK    2  A    between atoms: C_14  and  C_8 
REMARK    3  A    between atoms: O_19  and  C_14 
ROOT
HETATM    1  C   UNK N   1      28.206  18.587   4.576  0.00  0.00     0.049 C 
HETATM    2  C   UNK N   1      25.978  16.727   4.814  0.00  0.00     0.052 C 
HETATM    3  C   UNK N   1      19.564  18.785   2.935  0.00  0.00     0.002 A 
HETATM    4  C   UNK N   1      19.808  17.504   3.423  0.00  0.00     0.010 A 
HETATM    5  C   UNK N   1      20.609  19.691   2.812  0.00  0.00     0.018 A 
HETATM    6  C   UNK N   1      26.620  20.291   3.698  0.00  0.00     0.008 A 
HETATM    7  C   UNK N   1      25.344  20.708   3.322  0.00  0.00     0.019 A 
HETATM    8  C   UNK N   1      26.826  18.998   4.183  0.00  0.00    -0.053 A 
HETATM    9  C   UNK N   1      25.743  18.107   4.294  0.00  0.00    -0.021 A 
HETATM   10  C   UNK N   1      21.092  17.090   3.800  0.00  0.00    -0.013 A 
HETATM   11  C   UNK N   1      21.909  19.323   3.176  0.00  0.00     0.049 A 
HETATM   12  C   UNK N   1      24.255  19.834   3.426  0.00  0.00     0.049 A 
HETATM   13  C   UNK N   1      22.968  20.231   3.054  0.00  0.00     0.198 A 
HETATM   14  C   UNK N   1      24.448  18.522   3.915  0.00  0.00     0.096 A 
HETATM   15  C   UNK N   1      22.170  18.016   3.675  0.00  0.00     0.097 A 
HETATM   16  O   UNK N   1      22.769  21.361   2.627  0.00  0.00    -0.286 OA
HETATM   17  O   UNK N   1      23.413  17.687   4.015  0.00  0.00    -0.308 OA
ENDROOT
BRANCH  10  18
HETATM   18  C   UNK N   1      21.153  15.658   4.306  0.00  0.00     0.151 C 
BRANCH  18  19
HETATM   19  C   UNK N   1      21.684  15.145   5.620  0.00  0.00     0.143 C 
HETATM   20  O   UNK N   1      20.956  14.456   6.313  0.00  0.00    -0.650 OA
BRANCH  19  21
HETATM   21  O   UNK N   1      22.917  15.412   6.057  0.00  0.00    -0.776 OA
HETATM   22  H   UNK N   1      23.439  14.731   6.432  0.00  0.00     0.167 HD
ENDBRANCH  19  21
ENDBRANCH  18  19
ENDBRANCH  10  18
TORSDOF 3
ENDMDL
MODEL 6
REMARK VINA RESULT:      -6.5     23.739     27.389
REMARK  3 active torsions:
REMARK  status: ('A' for Active; 'I' for Inactive)
REMARK    1  A    between atoms: C_11  and  C_8 
REMARK    2  A    between atoms: C_14  and  C_8 
REMARK    3  A    between atoms: O_19  and  C_14 
ROOT
HETATM    1  C   UNK N   1      35.845   5.829  14.452  0.00  0.00     0.049 C 
HETATM    2  C   UNK N   1      35.770   8.683  13.876  0.00  0.00     0.052 C 
HETATM    3  C   UNK N   1      35.163  13.242  19.143  0.00  0.00     0.002 A 
HETATM    4  C   UNK N   1      35.250  13.661  17.819  0.00  0.00     0.010 A 
HETATM    5  C   UNK N   1      35.197  11.887  19.445  0.00  0.00     0.018 A 
HETATM    6  C   UNK N   1      35.632   6.368  16.872  0.00  0.00     0.008 A 
HETATM    7  C   UNK N   1      35.511   7.270  17.927  0.00  0.00     0.019 A 
HETATM    8  C   UNK N   1      35.716   6.826  15.556  0.00  0.00    -0.053 A 
HETATM    9  C   UNK N   1      35.679   8.206  15.287  0.00  0.00    -0.021 A 
HETATM   10  C   UNK N   1      35.371  12.750  16.762  0.00  0.00    -0.013 A 
HETATM   11  C   UNK N   1      35.317  10.939  18.424  0.00  0.00     0.049 A 
HETATM   12  C   UNK N   1      35.472   8.648  17.678  0.00  0.00     0.049 A 
HETATM   13  C   UNK N   1      35.351   9.571  18.721  0.00  0.00     0.198 A 
HETATM   14  C   UNK N   1      35.557   9.127  16.351  0.00  0.00     0.096 A 
HETATM   15  C   UNK N   1      35.406  11.356  17.066  0.00  0.00     0.097 A 
HETATM   16  O   UNK N   1      35.277   9.186  19.880  0.00  0.00    -0.286 OA
HETATM   17  O   UNK N   1      35.520  10.439  16.110  0.00  0.00    -0.308 OA
ENDROOT
BRANCH  10  18
HETATM   18  C   UNK N   1      35.451  13.403  15.391  0.00  0.00     0.151 C 
BRANCH  18  19
HETATM   19  C   UNK N   1      36.572  14.221  14.802  0.00  0.00     0.143 C 
HETATM   20  O   UNK N   1      36.459  14.620  13.656  0.00  0.00    -0.650 OA
BRANCH  19  21
HETATM   21  O   UNK N   1      37.680  14.528  15.480  0.00  0.00    -0.776 OA
HETATM   22  H   UNK N   1      37.640  15.133  16.194  0.00  0.00     0.167 HD
ENDBRANCH  19  21
ENDBRANCH  18  19
ENDBRANCH  10  18
TORSDOF 3
ENDMDL
MODEL 7
REMARK VINA RESULT:      -6.5      1.891      6.628
REMARK  3 active torsions:
REMARK  status: ('A' for Active; 'I' for Inactive)
REMARK    1  A    between atoms: C_11  and  C_8 
REMARK    2  A    between atoms: C_14  and  C_8 
REMARK    3  A    between atoms: O_19  and  C_14 
ROOT
HETATM    1  C   UNK N   1      33.082  19.768  -6.066  0.00  0.00     0.049 C 
HETATM    2  C   UNK N   1      30.561  20.460  -7.349  0.00  0.00     0.052 C 
HETATM    3  C   UNK N   1      26.231  24.971  -4.217  0.00  0.00     0.002 A 
HETATM    4  C   UNK N   1      25.921  24.391  -5.444  0.00  0.00     0.010 A 
HETATM    5  C   UNK N   1      27.427  24.658  -3.584  0.00  0.00     0.018 A 
HETATM    6  C   UNK N   1      32.483  21.290  -4.191  0.00  0.00     0.008 A 
HETATM    7  C   UNK N   1      31.625  22.189  -3.561  0.00  0.00     0.019 A 
HETATM    8  C   UNK N   1      32.138  20.728  -5.421  0.00  0.00    -0.053 A 
HETATM    9  C   UNK N   1      30.917  21.068  -6.033  0.00  0.00    -0.021 A 
HETATM   10  C   UNK N   1      26.787  23.487  -6.073  0.00  0.00    -0.013 A 
HETATM   11  C   UNK N   1      28.324  23.761  -4.174  0.00  0.00     0.049 A 
HETATM   12  C   UNK N   1      30.406  22.540  -4.156  0.00  0.00     0.049 A 
HETATM   13  C   UNK N   1      29.531  23.440  -3.541  0.00  0.00     0.198 A 
HETATM   14  C   UNK N   1      30.043  21.979  -5.401  0.00  0.00     0.096 A 
HETATM   15  C   UNK N   1      28.017  23.161  -5.427  0.00  0.00     0.097 A 
HETATM   16  O   UNK N   1      29.818  23.942  -2.463  0.00  0.00    -0.286 OA
HETATM   17  O   UNK N   1      28.883  22.311  -5.971  0.00  0.00    -0.308 OA
ENDROOT
BRANCH  10  18
HETATM   18  C   UNK N   1      26.270  22.964  -7.404  0.00  0.00     0.151 C 
BRANCH  18  19
HETATM   19  C   UNK N   1      25.124  22.019  -7.664  0.00  0.00     0.143 C 
HETATM   20  O   UNK N   1      24.464  21.632  -6.717  0.00  0.00    -0.650 OA
BRANCH  19  21
HETATM   21  O   UNK N   1      24.802  21.590  -8.887  0.00  0.00    -0.776 OA
HETATM   22  H   UNK N   1      25.477  21.369  -9.498  0.00  0.00     0.167 HD
ENDBRANCH  19  21
ENDBRANCH  18  19
ENDBRANCH  10  18
TORSDOF 3
ENDMDL
MODEL 8
REMARK VINA RESULT:      -6.4     13.001     14.476
REMARK  3 active torsions:
REMARK  status: ('A' for Active; 'I' for Inactive)
REMARK    1  A    between atoms: C_11  and  C_8 
REMARK    2  A    between atoms: C_14  and  C_8 
REMARK    3  A    between atoms: O_19  and  C_14 
ROOT
HETATM    1  C   UNK N   1      27.396  13.890   3.024  0.00  0.00     0.049 C 
HETATM    2  C   UNK N   1      27.471  15.303   5.570  0.00  0.00     0.052 C 
HETATM    3  C   UNK N   1      33.487  18.105   7.774  0.00  0.00     0.002 A 
HETATM    4  C   UNK N   1      32.316  18.204   8.522  0.00  0.00     0.010 A 
HETATM    5  C   UNK N   1      33.478  17.437   6.557  0.00  0.00     0.018 A 
HETATM    6  C   UNK N   1      29.820  14.380   2.744  0.00  0.00     0.008 A 
HETATM    7  C   UNK N   1      31.022  14.935   3.176  0.00  0.00     0.019 A 
HETATM    8  C   UNK N   1      28.666  14.499   3.521  0.00  0.00    -0.053 A 
HETATM    9  C   UNK N   1      28.712  15.183   4.749  0.00  0.00    -0.021 A 
HETATM   10  C   UNK N   1      31.110  17.643   8.082  0.00  0.00    -0.013 A 
HETATM   11  C   UNK N   1      32.298  16.861   6.076  0.00  0.00     0.049 A 
HETATM   12  C   UNK N   1      31.086  15.620   4.397  0.00  0.00     0.049 A 
HETATM   13  C   UNK N   1      32.281  16.185   4.850  0.00  0.00     0.198 A 
HETATM   14  C   UNK N   1      29.926  15.749   5.194  0.00  0.00     0.096 A 
HETATM   15  C   UNK N   1      31.095  16.955   6.832  0.00  0.00     0.097 A 
HETATM   16  O   UNK N   1      33.302  16.090   4.181  0.00  0.00    -0.286 OA
HETATM   17  O   UNK N   1      29.984  16.400   6.357  0.00  0.00    -0.308 OA
ENDROOT
BRANCH  10  18
HETATM   18  C   UNK N   1      29.947  17.858   9.037  0.00  0.00     0.151 C 
BRANCH  18  19
HETATM   19  C   UNK N   1      28.578  18.417   8.745  0.00  0.00     0.143 C 
HETATM   20  O   UNK N   1      28.457  19.207   7.826  0.00  0.00    -0.650 OA
BRANCH  19  21
HETATM   21  O   UNK N   1      27.494  18.083   9.449  0.00  0.00    -0.776 OA
HETATM   22  H   UNK N   1      26.895  18.747   9.728  0.00  0.00     0.167 HD
ENDBRANCH  19  21
ENDBRANCH  18  19
ENDBRANCH  10  18
TORSDOF 3
ENDMDL
MODEL 9
REMARK VINA RESULT:      -6.4     10.290     13.253
REMARK  3 active torsions:
REMARK  status: ('A' for Active; 'I' for Inactive)
REMARK    1  A    between atoms: C_11  and  C_8 
REMARK    2  A    between atoms: C_14  and  C_8 
REMARK    3  A    between atoms: O_19  and  C_14 
ROOT
HETATM    1  C   UNK N   1      27.700  13.100   2.459  0.00  0.00     0.049 C 
HETATM    2  C   UNK N   1      26.372  15.646   1.971  0.00  0.00     0.052 C 
HETATM    3  C   UNK N   1      27.256  20.911   6.488  0.00  0.00     0.002 A 
HETATM    4  C   UNK N   1      26.459  21.045   5.354  0.00  0.00     0.010 A 
HETATM    5  C   UNK N   1      27.900  19.707   6.744  0.00  0.00     0.018 A 
HETATM    6  C   UNK N   1      28.677  14.070   4.532  0.00  0.00     0.008 A 
HETATM    7  C   UNK N   1      28.858  15.115   5.436  0.00  0.00     0.019 A 
HETATM    8  C   UNK N   1      27.870  14.242   3.406  0.00  0.00    -0.053 A 
HETATM    9  C   UNK N   1      27.233  15.476   3.178  0.00  0.00    -0.021 A 
HETATM   10  C   UNK N   1      26.281  19.992   4.448  0.00  0.00    -0.013 A 
HETATM   11  C   UNK N   1      27.753  18.627   5.868  0.00  0.00     0.049 A 
HETATM   12  C   UNK N   1      28.231  16.350   5.226  0.00  0.00     0.049 A 
HETATM   13  C   UNK N   1      28.399  17.411   6.120  0.00  0.00     0.198 A 
HETATM   14  C   UNK N   1      27.411  16.539   4.090  0.00  0.00     0.096 A 
HETATM   15  C   UNK N   1      26.940  18.753   4.706  0.00  0.00     0.097 A 
HETATM   16  O   UNK N   1      29.103  17.277   7.111  0.00  0.00    -0.286 OA
HETATM   17  O   UNK N   1      26.813  17.713   3.886  0.00  0.00    -0.308 OA
ENDROOT
BRANCH  10  18
HETATM   18  C   UNK N   1      25.375  20.335   3.276  0.00  0.00     0.151 C 
BRANCH  18  19
HETATM   19  C   UNK N   1      23.869  20.330   3.216  0.00  0.00     0.143 C 
HETATM   20  O   UNK N   1      23.277  19.317   3.545  0.00  0.00    -0.650 OA
BRANCH  19  21
HETATM   21  O   UNK N   1      23.156  21.387   2.819  0.00  0.00    -0.776 OA
HETATM   22  H   UNK N   1      22.545  21.301   2.115  0.00  0.00     0.167 HD
ENDBRANCH  19  21
ENDBRANCH  18  19
ENDBRANCH  10  18
TORSDOF 3
ENDMDL
