MODEL 1
REMARK VINA RESULT:      -7.7      0.000      0.000
REMARK  11 active torsions:
REMARK  status: ('A' for Active; 'I' for Inactive)
REMARK    1  A    between atoms: S_1  and  N_7 
REMARK    2  A    between atoms: S_1  and  C_21 
REMARK    3  A    between atoms: O_4  and  C_27 
REMARK    4  A    between atoms: O_4  and  C_35 
REMARK    5  A    between atoms: N_7  and  C_19 
REMARK    6  A    between atoms: C_14  and  C_18 
REMARK    7  A    between atoms: C_18  and  C_19 
REMARK    8  A    between atoms: C_23  and  C_26 
REMARK    9  A    between atoms: C_28  and  C_31 
REMARK   10  A    between atoms: C_31  and  C_33 
REMARK   11  A    between atoms: C_35  and  C_37 
ROOT
HETATM    1  C   UNK N   1      24.943  19.650   3.913  0.00  0.00     0.080 A 
HETATM    2  C   UNK N   1      24.343  18.661   4.715  0.00  0.00     0.043 A 
HETATM    3  C   UNK N   1      22.983  18.398   4.696  0.00  0.00     0.043 A 
HETATM    4  C   UNK N   1      24.116  20.389   3.056  0.00  0.00     0.028 A 
HETATM    5  C   UNK N   1      22.152  19.143   3.828  0.00  0.00     0.082 A 
HETATM    6  C   UNK N   1      22.737  20.137   3.011  0.00  0.00     0.039 A 
ENDROOT
BRANCH   3   7
HETATM    7  C   UNK N   1      22.527  17.345   5.627  0.00  0.00     0.121 A 
HETATM    8  N   UNK N   1      21.509  17.553   6.521  0.00  0.00    -0.338 N 
HETATM    9  C   UNK N   1      21.189  16.538   7.364  0.00  0.00     0.092 A 
HETATM   10  H   UNK N   1      21.027  18.411   6.551  0.00  0.00     0.167 HD
HETATM   11  C   UNK N   1      20.242  16.451   8.359  0.00  0.00     0.055 A 
HETATM   12  C   UNK N   1      21.826  15.342   7.354  0.00  0.00     0.147 A 
HETATM   13  N   UNK N   1      20.326  15.220   8.923  0.00  0.00    -0.300 N 
HETATM   14  N   UNK N   1      21.295  14.553   8.302  0.00  0.00    -0.289 N 
ATOM     15  HN  UNK N   1      19.750  14.869   9.688  1.00  0.00     0.187 HD
HETATM   16  C   UNK N   1      21.688  13.193   8.633  0.00  0.00     0.178 C 
HETATM   17  C   UNK N   1      22.850  15.114   6.455  0.00  0.00     0.277 A 
HETATM   18  O   UNK N   1      23.447  14.054   6.415  0.00  0.00    -0.265 OA
HETATM   19  N   UNK N   1      23.183  16.134   5.604  0.00  0.00    -0.307 N 
ATOM     20  HN  UNK N   1      23.938  15.991   4.933  1.00  0.00     0.170 HD
BRANCH  11  21
HETATM   21  C   UNK N   1      19.283  17.509   8.784  0.00  0.00     0.061 C 
BRANCH  21  22
HETATM   22  C   UNK N   1      18.003  16.880   9.297  0.00  0.00     0.002 C 
HETATM   23  C   UNK N   1      17.210  17.915  10.064  0.00  0.00     0.005 C 
ENDBRANCH  21  22
ENDBRANCH  11  21
ENDBRANCH   3   7
BRANCH   5  24
HETATM   24  O   UNK N   1      20.817  18.904   3.783  0.00  0.00    -0.350 OA
BRANCH  24  25
HETATM   25  C   UNK N   1      20.153  18.567   2.623  0.00  0.00     0.175 C 
BRANCH  25  26
HETATM   26  C   UNK N   1      20.508  17.152   2.223  0.00  0.00     0.022 C 
HETATM   27  C   UNK N   1      20.008  16.188   3.279  0.00  0.00     0.007 C 
ENDBRANCH  25  26
ENDBRANCH  24  25
ENDBRANCH   5  24
BRANCH   1  28
HETATM   28  S   UNK N   1      26.759  19.992   3.934  0.00  0.00     0.258 S 
HETATM   29  O   UNK N   1      26.500  18.496   3.684  0.00  0.00    -0.201 OA
HETATM   30  O   UNK N   1      26.411  20.217   5.416  0.00  0.00    -0.201 OA
BRANCH  28  31
HETATM   31  N   UNK N   1      28.022  19.057   4.758  0.00  0.00    -0.315 N 
HETATM   32  H   UNK N   1      28.849  18.668   4.307  0.00  0.00     0.172 HD
BRANCH  31  33
HETATM   33  C   UNK N   1      27.707  18.925   6.175  0.00  0.00     0.134 C 
BRANCH  33  34
HETATM   34  C   UNK N   1      27.805  17.477   6.619  0.00  0.00     0.056 C 
BRANCH  34  35
HETATM   35  C   UNK N   1      28.712  17.418   7.835  0.00  0.00     0.224 C 
HETATM   36  N   UNK N   1      30.095  17.679   7.498  0.00  0.00     0.088 N 
HETATM   37  C   UNK N   1      30.702  18.001   8.782  0.00  0.00     0.272 C 
HETATM   38  C   UNK N   1      30.689  16.439   7.024  0.00  0.00     0.310 C 
HETATM   39  C   UNK N   1      29.600  18.533   9.694  0.00  0.00     0.032 C 
HETATM   40  C   UNK N   1      28.340  18.444   8.871  0.00  0.00     0.037 C 
ENDBRANCH  34  35
ENDBRANCH  33  34
ENDBRANCH  31  33
ENDBRANCH  28  31
ENDBRANCH   1  28
TORSDOF 11
ENDMDL
MODEL 2
REMARK VINA RESULT:      -7.4      1.427      2.913
REMARK  11 active torsions:
REMARK  status: ('A' for Active; 'I' for Inactive)
REMARK    1  A    between atoms: S_1  and  N_7 
REMARK    2  A    between atoms: S_1  and  C_21 
REMARK    3  A    between atoms: O_4  and  C_27 
REMARK    4  A    between atoms: O_4  and  C_35 
REMARK    5  A    between atoms: N_7  and  C_19 
REMARK    6  A    between atoms: C_14  and  C_18 
REMARK    7  A    between atoms: C_18  and  C_19 
REMARK    8  A    between atoms: C_23  and  C_26 
REMARK    9  A    between atoms: C_28  and  C_31 
REMARK   10  A    between atoms: C_31  and  C_33 
REMARK   11  A    between atoms: C_35  and  C_37 
ROOT
HETATM    1  C   UNK N   1      25.113  19.830   3.775  0.00  0.00     0.080 A 
HETATM    2  C   UNK N   1      24.479  18.900   4.618  0.00  0.00     0.043 A 
HETATM    3  C   UNK N   1      23.115  18.657   4.583  0.00  0.00     0.043 A 
HETATM    4  C   UNK N   1      24.318  20.532   2.858  0.00  0.00     0.028 A 
HETATM    5  C   UNK N   1      22.316  19.364   3.655  0.00  0.00     0.082 A 
HETATM    6  C   UNK N   1      22.936  20.299   2.796  0.00  0.00     0.039 A 
ENDROOT
BRANCH   3   7
HETATM    7  C   UNK N   1      22.620  17.667   5.562  0.00  0.00     0.121 A 
HETATM    8  N   UNK N   1      23.138  16.401   5.645  0.00  0.00    -0.338 N 
HETATM    9  C   UNK N   1      22.590  15.550   6.548  0.00  0.00     0.092 A 
HETATM   10  H   UNK N   1      23.883  16.118   5.066  0.00  0.00     0.167 HD
HETATM   11  C   UNK N   1      22.880  14.239   6.850  0.00  0.00     0.055 A 
HETATM   12  C   UNK N   1      21.565  15.899   7.364  0.00  0.00     0.147 A 
HETATM   13  N   UNK N   1      22.034  13.827   7.828  0.00  0.00    -0.300 N 
HETATM   14  N   UNK N   1      21.238  14.848   8.134  0.00  0.00    -0.289 N 
ATOM     15  HN  UNK N   1      22.012  12.901   8.254  1.00  0.00     0.187 HD
HETATM   16  C   UNK N   1      20.190  14.791   9.140  0.00  0.00     0.178 C 
HETATM   17  C   UNK N   1      21.035  17.173   7.297  0.00  0.00     0.277 A 
HETATM   18  O   UNK N   1      20.115  17.525   8.013  0.00  0.00    -0.265 OA
HETATM   19  N   UNK N   1      21.579  18.038   6.386  0.00  0.00    -0.307 N 
ATOM     20  HN  UNK N   1      21.203  18.984   6.315  1.00  0.00     0.170 HD
BRANCH  11  21
HETATM   21  C   UNK N   1      23.923  13.380   6.223  0.00  0.00     0.061 C 
BRANCH  21  22
HETATM   22  C   UNK N   1      25.235  13.521   6.967  0.00  0.00     0.002 C 
HETATM   23  C   UNK N   1      26.228  14.258   6.095  0.00  0.00     0.005 C 
ENDBRANCH  21  22
ENDBRANCH  11  21
ENDBRANCH   3   7
BRANCH   5  24
HETATM   24  O   UNK N   1      20.978  19.144   3.593  0.00  0.00    -0.350 OA
BRANCH  24  25
HETATM   25  C   UNK N   1      20.354  18.619   2.482  0.00  0.00     0.175 C 
BRANCH  25  26
HETATM   26  C   UNK N   1      20.247  17.116   2.618  0.00  0.00     0.022 C 
HETATM   27  C   UNK N   1      20.360  16.476   1.249  0.00  0.00     0.007 C 
ENDBRANCH  25  26
ENDBRANCH  24  25
ENDBRANCH   5  24
BRANCH   1  28
HETATM   28  S   UNK N   1      26.934  20.144   3.818  0.00  0.00     0.258 S 
HETATM   29  O   UNK N   1      26.654  18.668   3.486  0.00  0.00    -0.201 OA
HETATM   30  O   UNK N   1      26.586  20.292   5.310  0.00  0.00    -0.201 OA
BRANCH  28  31
HETATM   31  N   UNK N   1      28.180  19.147   4.591  0.00  0.00    -0.315 N 
HETATM   32  H   UNK N   1      29.008  18.778   4.123  0.00  0.00     0.172 HD
BRANCH  31  33
HETATM   33  C   UNK N   1      27.853  18.931   5.995  0.00  0.00     0.134 C 
BRANCH  33  34
HETATM   34  C   UNK N   1      28.071  17.479   6.385  0.00  0.00     0.056 C 
BRANCH  34  35
HETATM   35  C   UNK N   1      28.848  17.454   7.688  0.00  0.00     0.224 C 
HETATM   36  N   UNK N   1      30.269  17.637   7.481  0.00  0.00     0.088 N 
HETATM   37  C   UNK N   1      30.759  18.009   8.801  0.00  0.00     0.272 C 
HETATM   38  C   UNK N   1      30.848  16.349   7.138  0.00  0.00     0.310 C 
HETATM   39  C   UNK N   1      29.598  18.638   9.566  0.00  0.00     0.032 C 
HETATM   40  C   UNK N   1      28.423  18.553   8.624  0.00  0.00     0.037 C 
ENDBRANCH  34  35
ENDBRANCH  33  34
ENDBRANCH  31  33
ENDBRANCH  28  31
ENDBRANCH   1  28
TORSDOF 11
ENDMDL
MODEL 3
REMARK VINA RESULT:      -7.2      7.140     11.634
REMARK  11 active torsions:
REMARK  status: ('A' for Active; 'I' for Inactive)
REMARK    1  A    between atoms: S_1  and  N_7 
REMARK    2  A    between atoms: S_1  and  C_21 
REMARK    3  A    between atoms: O_4  and  C_27 
REMARK    4  A    between atoms: O_4  and  C_35 
REMARK    5  A    between atoms: N_7  and  C_19 
REMARK    6  A    between atoms: C_14  and  C_18 
REMARK    7  A    between atoms: C_18  and  C_19 
REMARK    8  A    between atoms: C_23  and  C_26 
REMARK    9  A    between atoms: C_28  and  C_31 
REMARK   10  A    between atoms: C_31  and  C_33 
REMARK   11  A    between atoms: C_35  and  C_37 
ROOT
HETATM    1  C   UNK N   1      35.167  15.366   9.882  0.00  0.00     0.080 A 
HETATM    2  C   UNK N   1      33.910  15.893   9.533  0.00  0.00     0.043 A 
HETATM    3  C   UNK N   1      33.357  15.749   8.270  0.00  0.00     0.043 A 
HETATM    4  C   UNK N   1      35.878  14.661   8.901  0.00  0.00     0.028 A 
HETATM    5  C   UNK N   1      34.074  15.034   7.284  0.00  0.00     0.082 A 
HETATM    6  C   UNK N   1      35.337  14.494   7.618  0.00  0.00     0.039 A 
ENDROOT
BRANCH   3   7
HETATM    7  C   UNK N   1      32.041  16.394   8.076  0.00  0.00     0.121 A 
HETATM    8  N   UNK N   1      31.192  16.027   7.065  0.00  0.00    -0.338 N 
HETATM    9  C   UNK N   1      30.023  16.706   6.942  0.00  0.00     0.092 A 
HETATM   10  H   UNK N   1      31.423  15.296   6.447  0.00  0.00     0.167 HD
HETATM   11  C   UNK N   1      28.993  16.581   6.038  0.00  0.00     0.055 A 
HETATM   12  C   UNK N   1      29.667  17.717   7.772  0.00  0.00     0.147 A 
HETATM   13  N   UNK N   1      28.047  17.507   6.336  0.00  0.00    -0.300 N 
HETATM   14  N   UNK N   1      28.468  18.194   7.395  0.00  0.00    -0.289 N 
ATOM     15  HN  UNK N   1      27.170  17.652   5.836  1.00  0.00     0.187 HD
HETATM   16  C   UNK N   1      27.725  19.281   8.008  0.00  0.00     0.178 C 
HETATM   17  C   UNK N   1      30.508  18.095   8.800  0.00  0.00     0.277 A 
HETATM   18  O   UNK N   1      30.224  18.997   9.565  0.00  0.00    -0.265 OA
HETATM   19  N   UNK N   1      31.692  17.419   8.929  0.00  0.00    -0.307 N 
ATOM     20  HN  UNK N   1      32.333  17.681   9.678  1.00  0.00     0.170 HD
BRANCH  11  21
HETATM   21  C   UNK N   1      28.901  15.618   4.906  0.00  0.00     0.061 C 
BRANCH  21  22
HETATM   22  C   UNK N   1      29.212  16.316   3.597  0.00  0.00     0.002 C 
HETATM   23  C   UNK N   1      29.409  15.281   2.512  0.00  0.00     0.005 C 
ENDBRANCH  21  22
ENDBRANCH  11  21
ENDBRANCH   3   7
BRANCH   5  24
HETATM   24  O   UNK N   1      33.556  14.872   6.040  0.00  0.00    -0.350 OA
BRANCH  24  25
HETATM   25  C   UNK N   1      34.150  15.383   4.906  0.00  0.00     0.175 C 
BRANCH  25  26
HETATM   26  C   UNK N   1      33.108  16.063   4.046  0.00  0.00     0.022 C 
HETATM   27  C   UNK N   1      32.968  17.511   4.470  0.00  0.00     0.007 C 
ENDBRANCH  25  26
ENDBRANCH  24  25
ENDBRANCH   5  24
BRANCH   1  28
HETATM   28  S   UNK N   1      35.898  15.552  11.570  0.00  0.00     0.258 S 
HETATM   29  O   UNK N   1      36.850  14.756  10.659  0.00  0.00    -0.201 OA
HETATM   30  O   UNK N   1      34.734  14.591  11.869  0.00  0.00    -0.201 OA
BRANCH  28  31
HETATM   31  N   UNK N   1      36.692  14.298  12.543  0.00  0.00    -0.315 N 
HETATM   32  H   UNK N   1      37.642  13.959  12.397  0.00  0.00     0.172 HD
BRANCH  31  33
HETATM   33  C   UNK N   1      35.790  13.824  13.584  0.00  0.00     0.134 C 
BRANCH  33  34
HETATM   34  C   UNK N   1      36.519  13.679  14.909  0.00  0.00     0.056 C 
BRANCH  34  35
HETATM   35  C   UNK N   1      35.819  12.602  15.716  0.00  0.00     0.224 C 
HETATM   36  N   UNK N   1      36.662  11.445  15.930  0.00  0.00     0.088 N 
HETATM   37  C   UNK N   1      36.013  10.753  17.036  0.00  0.00     0.272 C 
HETATM   38  C   UNK N   1      36.572  10.592  14.757  0.00  0.00     0.310 C 
HETATM   39  C   UNK N   1      35.224  11.788  17.831  0.00  0.00     0.032 C 
HETATM   40  C   UNK N   1      35.424  13.084  17.085  0.00  0.00     0.037 C 
ENDBRANCH  34  35
ENDBRANCH  33  34
ENDBRANCH  31  33
ENDBRANCH  28  31
ENDBRANCH   1  28
TORSDOF 11
ENDMDL
MODEL 4
REMARK VINA RESULT:      -6.9      2.156      3.403
REMARK  11 active torsions:
REMARK  status: ('A' for Active; 'I' for Inactive)
REMARK    1  A    between atoms: S_1  and  N_7 
REMARK    2  A    between atoms: S_1  and  C_21 
REMARK    3  A    between atoms: O_4  and  C_27 
REMARK    4  A    between atoms: O_4  and  C_35 
REMARK    5  A    between atoms: N_7  and  C_19 
REMARK    6  A    between atoms: C_14  and  C_18 
REMARK    7  A    between atoms: C_18  and  C_19 
REMARK    8  A    between atoms: C_23  and  C_26 
REMARK    9  A    between atoms: C_28  and  C_31 
REMARK   10  A    between atoms: C_31  and  C_33 
REMARK   11  A    between atoms: C_35  and  C_37 
ROOT
HETATM    1  C   UNK N   1      26.013  15.719   3.849  0.00  0.00     0.080 A 
HETATM    2  C   UNK N   1      24.993  15.927   4.797  0.00  0.00     0.043 A 
HETATM    3  C   UNK N   1      23.655  15.684   4.531  0.00  0.00     0.043 A 
HETATM    4  C   UNK N   1      25.645  15.237   2.586  0.00  0.00     0.028 A 
HETATM    5  C   UNK N   1      23.288  15.194   3.256  0.00  0.00     0.082 A 
HETATM    6  C   UNK N   1      24.298  14.974   2.294  0.00  0.00     0.039 A 
ENDROOT
BRANCH   3   7
HETATM    7  C   UNK N   1      22.722  15.988   5.635  0.00  0.00     0.121 A 
HETATM    8  N   UNK N   1      22.299  15.029   6.517  0.00  0.00    -0.338 N 
HETATM    9  C   UNK N   1      21.408  15.396   7.474  0.00  0.00     0.092 A 
HETATM   10  H   UNK N   1      22.629  14.102   6.458  0.00  0.00     0.167 HD
HETATM   11  C   UNK N   1      20.802  14.671   8.474  0.00  0.00     0.055 A 
HETATM   12  C   UNK N   1      20.930  16.659   7.590  0.00  0.00     0.147 A 
HETATM   13  N   UNK N   1      19.979  15.499   9.165  0.00  0.00    -0.300 N 
HETATM   14  N   UNK N   1      20.066  16.709   8.618  0.00  0.00    -0.289 N 
ATOM     15  HN  UNK N   1      19.397  15.241   9.962  1.00  0.00     0.187 HD
HETATM   16  C   UNK N   1      19.323  17.868   9.083  0.00  0.00     0.178 C 
HETATM   17  C   UNK N   1      21.351  17.639   6.713  0.00  0.00     0.277 A 
HETATM   18  O   UNK N   1      20.946  18.785   6.785  0.00  0.00    -0.265 OA
HETATM   19  N   UNK N   1      22.246  17.277   5.742  0.00  0.00    -0.307 N 
ATOM     20  HN  UNK N   1      22.570  17.982   5.080  1.00  0.00     0.170 HD
BRANCH  11  21
HETATM   21  C   UNK N   1      20.979  13.221   8.769  0.00  0.00     0.061 C 
BRANCH  21  22
HETATM   22  C   UNK N   1      21.546  13.036  10.162  0.00  0.00     0.002 C 
HETATM   23  C   UNK N   1      22.664  12.017  10.115  0.00  0.00     0.005 C 
ENDBRANCH  21  22
ENDBRANCH  11  21
ENDBRANCH   3   7
BRANCH   5  24
HETATM   24  O   UNK N   1      21.986  14.941   2.968  0.00  0.00    -0.350 OA
BRANCH  24  25
HETATM   25  C   UNK N   1      21.263  15.675   2.052  0.00  0.00     0.175 C 
BRANCH  25  26
HETATM   26  C   UNK N   1      20.280  16.569   2.775  0.00  0.00     0.022 C 
HETATM   27  C   UNK N   1      20.684  18.018   2.590  0.00  0.00     0.007 C 
ENDBRANCH  25  26
ENDBRANCH  24  25
ENDBRANCH   5  24
BRANCH   1  28
HETATM   28  S   UNK N   1      27.797  16.036   4.211  0.00  0.00     0.258 S 
HETATM   29  O   UNK N   1      26.958  17.287   4.524  0.00  0.00    -0.201 OA
HETATM   30  O   UNK N   1      27.831  15.950   2.675  0.00  0.00    -0.201 OA
BRANCH  28  31
HETATM   31  N   UNK N   1      28.745  17.472   3.779  0.00  0.00    -0.315 N 
HETATM   32  H   UNK N   1      28.741  17.921   2.864  0.00  0.00     0.172 HD
BRANCH  31  33
HETATM   33  C   UNK N   1      29.531  17.919   4.922  0.00  0.00     0.134 C 
BRANCH  33  34
HETATM   34  C   UNK N   1      29.998  16.738   5.754  0.00  0.00     0.056 C 
BRANCH  34  35
HETATM   35  C   UNK N   1      29.788  17.081   7.217  0.00  0.00     0.224 C 
HETATM   36  N   UNK N   1      30.974  17.652   7.820  0.00  0.00     0.088 N 
HETATM   37  C   UNK N   1      30.467  18.289   9.027  0.00  0.00     0.272 C 
HETATM   38  C   UNK N   1      31.848  16.563   8.224  0.00  0.00     0.310 C 
HETATM   39  C   UNK N   1      28.998  18.625   8.792  0.00  0.00     0.032 C 
HETATM   40  C   UNK N   1      28.697  18.098   7.411  0.00  0.00     0.037 C 
ENDBRANCH  34  35
ENDBRANCH  33  34
ENDBRANCH  31  33
ENDBRANCH  28  31
ENDBRANCH   1  28
TORSDOF 11
ENDMDL
MODEL 5
REMARK VINA RESULT:      -6.9      3.960      6.742
REMARK  11 active torsions:
REMARK  status: ('A' for Active; 'I' for Inactive)
REMARK    1  A    between atoms: S_1  and  N_7 
REMARK    2  A    between atoms: S_1  and  C_21 
REMARK    3  A    between atoms: O_4  and  C_27 
REMARK    4  A    between atoms: O_4  and  C_35 
REMARK    5  A    between atoms: N_7  and  C_19 
REMARK    6  A    between atoms: C_14  and  C_18 
REMARK    7  A    between atoms: C_18  and  C_19 
REMARK    8  A    between atoms: C_23  and  C_26 
REMARK    9  A    between atoms: C_28  and  C_31 
REMARK   10  A    between atoms: C_31  and  C_33 
REMARK   11  A    between atoms: C_35  and  C_37 
ROOT
HETATM    1  C   UNK N   1      30.551  16.963   8.199  0.00  0.00     0.080 A 
HETATM    2  C   UNK N   1      29.613  16.619   7.209  0.00  0.00     0.043 A 
HETATM    3  C   UNK N   1      28.555  17.440   6.854  0.00  0.00     0.043 A 
HETATM    4  C   UNK N   1      30.400  18.199   8.844  0.00  0.00     0.028 A 
HETATM    5  C   UNK N   1      28.408  18.688   7.504  0.00  0.00     0.082 A 
HETATM    6  C   UNK N   1      29.343  19.053   8.498  0.00  0.00     0.039 A 
ENDROOT
BRANCH   3   7
HETATM    7  C   UNK N   1      27.653  16.902   5.814  0.00  0.00     0.121 A 
HETATM    8  N   UNK N   1      26.340  17.282   5.721  0.00  0.00    -0.338 N 
HETATM    9  C   UNK N   1      25.580  16.701   4.758  0.00  0.00     0.092 A 
HETATM   10  H   UNK N   1      25.960  17.953   6.333  0.00  0.00     0.167 HD
HETATM   11  C   UNK N   1      24.253  16.863   4.430  0.00  0.00     0.055 A 
HETATM   12  C   UNK N   1      26.064  15.774   3.895  0.00  0.00     0.147 A 
HETATM   13  N   UNK N   1      23.965  16.040   3.390  0.00  0.00    -0.300 N 
HETATM   14  N   UNK N   1      25.077  15.382   3.072  0.00  0.00    -0.289 N 
ATOM     15  HN  UNK N   1      23.059  15.943   2.933  1.00  0.00     0.187 HD
HETATM   16  C   UNK N   1      25.164  14.400   2.004  0.00  0.00     0.178 C 
HETATM   17  C   UNK N   1      27.387  15.385   3.972  0.00  0.00     0.277 A 
HETATM   18  O   UNK N   1      27.859  14.556   3.216  0.00  0.00    -0.265 OA
HETATM   19  N   UNK N   1      28.160  15.962   4.944  0.00  0.00    -0.307 N 
ATOM     20  HN  UNK N   1      29.140  15.690   5.024  1.00  0.00     0.170 HD
BRANCH  11  21
HETATM   21  C   UNK N   1      23.266  17.763   5.089  0.00  0.00     0.061 C 
BRANCH  21  22
HETATM   22  C   UNK N   1      22.361  18.397   4.053  0.00  0.00     0.002 C 
HETATM   23  C   UNK N   1      23.047  19.610   3.465  0.00  0.00     0.005 C 
ENDBRANCH  21  22
ENDBRANCH  11  21
ENDBRANCH   3   7
BRANCH   5  24
HETATM   24  O   UNK N   1      27.384  19.517   7.174  0.00  0.00    -0.350 OA
BRANCH  24  25
HETATM   25  C   UNK N   1      27.569  20.711   6.511  0.00  0.00     0.175 C 
BRANCH  25  26
HETATM   26  C   UNK N   1      27.899  20.443   5.059  0.00  0.00     0.022 C 
HETATM   27  C   UNK N   1      26.623  20.447   4.241  0.00  0.00     0.007 C 
ENDBRANCH  25  26
ENDBRANCH  24  25
ENDBRANCH   5  24
BRANCH   1  28
HETATM   28  S   UNK N   1      31.967  15.869   8.663  0.00  0.00     0.258 S 
HETATM   29  O   UNK N   1      32.478  17.266   8.267  0.00  0.00    -0.201 OA
HETATM   30  O   UNK N   1      31.525  15.215   7.342  0.00  0.00    -0.201 OA
BRANCH  28  31
HETATM   31  N   UNK N   1      33.509  15.682   7.806  0.00  0.00    -0.315 N 
HETATM   32  H   UNK N   1      34.182  14.934   7.971  0.00  0.00     0.172 HD
BRANCH  31  33
HETATM   33  C   UNK N   1      33.675  16.751   6.830  0.00  0.00     0.134 C 
BRANCH  33  34
HETATM   34  C   UNK N   1      34.323  16.229   5.559  0.00  0.00     0.056 C 
BRANCH  34  35
HETATM   35  C   UNK N   1      33.340  16.416   4.419  0.00  0.00     0.224 C 
HETATM   36  N   UNK N   1      32.603  15.204   4.129  0.00  0.00     0.088 N 
HETATM   37  C   UNK N   1      31.465  15.678   3.353  0.00  0.00     0.272 C 
HETATM   38  C   UNK N   1      33.419  14.372   3.259  0.00  0.00     0.310 C 
HETATM   39  C   UNK N   1      31.218  17.134   3.736  0.00  0.00     0.032 C 
HETATM   40  C   UNK N   1      32.307  17.464   4.726  0.00  0.00     0.037 C 
ENDBRANCH  34  35
ENDBRANCH  33  34
ENDBRANCH  31  33
ENDBRANCH  28  31
ENDBRANCH   1  28
TORSDOF 11
ENDMDL
MODEL 6
REMARK VINA RESULT:      -6.8      9.549     14.830
REMARK  11 active torsions:
REMARK  status: ('A' for Active; 'I' for Inactive)
REMARK    1  A    between atoms: S_1  and  N_7 
REMARK    2  A    between atoms: S_1  and  C_21 
REMARK    3  A    between atoms: O_4  and  C_27 
REMARK    4  A    between atoms: O_4  and  C_35 
REMARK    5  A    between atoms: N_7  and  C_19 
REMARK    6  A    between atoms: C_14  and  C_18 
REMARK    7  A    between atoms: C_18  and  C_19 
REMARK    8  A    between atoms: C_23  and  C_26 
REMARK    9  A    between atoms: C_28  and  C_31 
REMARK   10  A    between atoms: C_31  and  C_33 
REMARK   11  A    between atoms: C_35  and  C_37 
ROOT
HETATM    1  C   UNK N   1      35.585  14.035  11.298  0.00  0.00     0.080 A 
HETATM    2  C   UNK N   1      35.531  13.625  12.643  0.00  0.00     0.043 A 
HETATM    3  C   UNK N   1      35.171  12.343  13.027  0.00  0.00     0.043 A 
HETATM    4  C   UNK N   1      35.265  13.091  10.312  0.00  0.00     0.028 A 
HETATM    5  C   UNK N   1      34.853  11.392  12.030  0.00  0.00     0.082 A 
HETATM    6  C   UNK N   1      34.907  11.784  10.673  0.00  0.00     0.039 A 
ENDROOT
BRANCH   3   7
HETATM    7  C   UNK N   1      35.141  12.101  14.485  0.00  0.00     0.121 A 
HETATM    8  N   UNK N   1      35.201  13.124  15.395  0.00  0.00    -0.338 N 
HETATM    9  C   UNK N   1      35.208  12.799  16.713  0.00  0.00     0.092 A 
HETATM   10  H   UNK N   1      35.238  14.063  15.102  0.00  0.00     0.167 HD
HETATM   11  C   UNK N   1      35.273  13.587  17.840  0.00  0.00     0.055 A 
HETATM   12  C   UNK N   1      35.157  11.520  17.158  0.00  0.00     0.147 A 
HETATM   13  N   UNK N   1      35.261  12.777  18.929  0.00  0.00    -0.300 N 
HETATM   14  N   UNK N   1      35.189  11.520  18.501  0.00  0.00    -0.289 N 
ATOM     15  HN  UNK N   1      35.300  13.079  19.902  1.00  0.00     0.187 HD
HETATM   16  C   UNK N   1      35.161  10.362  19.379  0.00  0.00     0.178 C 
HETATM   17  C   UNK N   1      35.091  10.477  16.254  0.00  0.00     0.277 A 
HETATM   18  O   UNK N   1      35.043   9.316  16.614  0.00  0.00    -0.265 OA
HETATM   19  N   UNK N   1      35.087  10.795  14.922  0.00  0.00    -0.307 N 
ATOM     20  HN  UNK N   1      35.041  10.043  14.233  1.00  0.00     0.170 HD
BRANCH  11  21
HETATM   21  C   UNK N   1      35.359  15.073  17.896  0.00  0.00     0.061 C 
BRANCH  21  22
HETATM   22  C   UNK N   1      36.809  15.514  17.888  0.00  0.00     0.002 C 
HETATM   23  C   UNK N   1      37.227  15.834  16.470  0.00  0.00     0.005 C 
ENDBRANCH  21  22
ENDBRANCH  11  21
ENDBRANCH   3   7
BRANCH   5  24
HETATM   24  O   UNK N   1      34.503  10.127  12.375  0.00  0.00    -0.350 OA
BRANCH  24  25
HETATM   25  C   UNK N   1      35.068   9.008  11.801  0.00  0.00     0.175 C 
BRANCH  25  26
HETATM   26  C   UNK N   1      33.980   8.094  11.283  0.00  0.00     0.022 C 
HETATM   27  C   UNK N   1      33.752   8.365   9.809  0.00  0.00     0.007 C 
ENDBRANCH  25  26
ENDBRANCH  24  25
ENDBRANCH   5  24
BRANCH   1  28
HETATM   28  S   UNK N   1      36.073  15.743  10.790  0.00  0.00     0.258 S 
HETATM   29  O   UNK N   1      34.878  15.795  11.757  0.00  0.00    -0.201 OA
HETATM   30  O   UNK N   1      35.495  15.209   9.467  0.00  0.00    -0.201 OA
BRANCH  28  31
HETATM   31  N   UNK N   1      35.002  17.066  10.290  0.00  0.00    -0.315 N 
HETATM   32  H   UNK N   1      34.731  17.853  10.879  0.00  0.00     0.172 HD
BRANCH  31  33
HETATM   33  C   UNK N   1      34.564  16.867   8.915  0.00  0.00     0.134 C 
BRANCH  33  34
HETATM   34  C   UNK N   1      34.254  18.195   8.247  0.00  0.00     0.056 C 
BRANCH  34  35
HETATM   35  C   UNK N   1      32.907  18.073   7.559  0.00  0.00     0.224 C 
HETATM   36  N   UNK N   1      32.869  16.967   6.626  0.00  0.00     0.088 N 
HETATM   37  C   UNK N   1      31.444  16.753   6.413  0.00  0.00     0.272 C 
HETATM   38  C   UNK N   1      33.445  17.413   5.368  0.00  0.00     0.310 C 
HETATM   39  C   UNK N   1      30.709  17.268   7.646  0.00  0.00     0.032 C 
HETATM   40  C   UNK N   1      31.790  17.827   8.536  0.00  0.00     0.037 C 
ENDBRANCH  34  35
ENDBRANCH  33  34
ENDBRANCH  31  33
ENDBRANCH  28  31
ENDBRANCH   1  28
TORSDOF 11
ENDMDL
MODEL 7
REMARK VINA RESULT:      -6.7      3.312      5.938
REMARK  11 active torsions:
REMARK  status: ('A' for Active; 'I' for Inactive)
REMARK    1  A    between atoms: S_1  and  N_7 
REMARK    2  A    between atoms: S_1  and  C_21 
REMARK    3  A    between atoms: O_4  and  C_27 
REMARK    4  A    between atoms: O_4  and  C_35 
REMARK    5  A    between atoms: N_7  and  C_19 
REMARK    6  A    between atoms: C_14  and  C_18 
REMARK    7  A    between atoms: C_18  and  C_19 
REMARK    8  A    between atoms: C_23  and  C_26 
REMARK    9  A    between atoms: C_28  and  C_31 
REMARK   10  A    between atoms: C_31  and  C_33 
REMARK   11  A    between atoms: C_35  and  C_37 
ROOT
HETATM    1  C   UNK N   1      29.817  15.466   5.483  0.00  0.00     0.080 A 
HETATM    2  C   UNK N   1      28.437  15.285   5.692  0.00  0.00     0.043 A 
HETATM    3  C   UNK N   1      27.579  16.329   6.001  0.00  0.00     0.043 A 
HETATM    4  C   UNK N   1      30.332  16.765   5.589  0.00  0.00     0.028 A 
HETATM    5  C   UNK N   1      28.100  17.639   6.104  0.00  0.00     0.082 A 
HETATM    6  C   UNK N   1      29.483  17.840   5.892  0.00  0.00     0.039 A 
ENDROOT
BRANCH   3   7
HETATM    7  C   UNK N   1      26.167  15.948   6.214  0.00  0.00     0.121 A 
HETATM    8  N   UNK N   1      25.811  14.873   6.987  0.00  0.00    -0.338 N 
HETATM    9  C   UNK N   1      24.490  14.578   7.090  0.00  0.00     0.092 A 
HETATM   10  H   UNK N   1      26.491  14.333   7.452  0.00  0.00     0.167 HD
HETATM   11  C   UNK N   1      23.836  13.574   7.769  0.00  0.00     0.055 A 
HETATM   12  C   UNK N   1      23.523  15.295   6.469  0.00  0.00     0.147 A 
HETATM   13  N   UNK N   1      22.504  13.704   7.545  0.00  0.00    -0.300 N 
HETATM   14  N   UNK N   1      22.325  14.757   6.752  0.00  0.00    -0.289 N 
ATOM     15  HN  UNK N   1      21.771  13.102   7.919  1.00  0.00     0.187 HD
HETATM   16  C   UNK N   1      21.026  15.212   6.285  0.00  0.00     0.178 C 
HETATM   17  C   UNK N   1      23.864  16.384   5.691  0.00  0.00     0.277 A 
HETATM   18  O   UNK N   1      23.025  17.054   5.117  0.00  0.00    -0.265 OA
HETATM   19  N   UNK N   1      25.195  16.688   5.577  0.00  0.00    -0.307 N 
ATOM     20  HN  UNK N   1      25.474  17.486   5.006  1.00  0.00     0.170 HD
BRANCH  11  21
HETATM   21  C   UNK N   1      24.450  12.503   8.602  0.00  0.00     0.061 C 
BRANCH  21  22
HETATM   22  C   UNK N   1      24.115  12.719  10.064  0.00  0.00     0.002 C 
HETATM   23  C   UNK N   1      23.116  11.673  10.508  0.00  0.00     0.005 C 
ENDBRANCH  21  22
ENDBRANCH  11  21
ENDBRANCH   3   7
BRANCH   5  24
HETATM   24  O   UNK N   1      27.284  18.682   6.399  0.00  0.00    -0.350 OA
BRANCH  24  25
HETATM   25  C   UNK N   1      27.747  19.963   6.610  0.00  0.00     0.175 C 
BRANCH  25  26
HETATM   26  C   UNK N   1      26.856  20.952   5.892  0.00  0.00     0.022 C 
HETATM   27  C   UNK N   1      26.690  20.528   4.447  0.00  0.00     0.007 C 
ENDBRANCH  25  26
ENDBRANCH  24  25
ENDBRANCH   5  24
BRANCH   1  28
HETATM   28  S   UNK N   1      30.957  14.073   5.062  0.00  0.00     0.258 S 
HETATM   29  O   UNK N   1      31.084  14.436   6.552  0.00  0.00    -0.201 OA
HETATM   30  O   UNK N   1      31.635  15.232   4.310  0.00  0.00    -0.201 OA
BRANCH  28  31
HETATM   31  N   UNK N   1      32.654  13.888   5.545  0.00  0.00    -0.315 N 
HETATM   32  H   UNK N   1      32.999  13.204   6.218  0.00  0.00     0.172 HD
BRANCH  31  33
HETATM   33  C   UNK N   1      33.487  14.853   4.839  0.00  0.00     0.134 C 
BRANCH  33  34
HETATM   34  C   UNK N   1      34.601  15.365   5.735  0.00  0.00     0.056 C 
BRANCH  34  35
HETATM   35  C   UNK N   1      33.968  16.124   6.887  0.00  0.00     0.224 C 
HETATM   36  N   UNK N   1      34.765  16.050   8.093  0.00  0.00     0.088 N 
HETATM   37  C   UNK N   1      34.250  17.143   8.906  0.00  0.00     0.272 C 
HETATM   38  C   UNK N   1      34.450  14.804   8.771  0.00  0.00     0.310 C 
HETATM   39  C   UNK N   1      33.651  18.181   7.962  0.00  0.00     0.032 C 
HETATM   40  C   UNK N   1      33.812  17.589   6.584  0.00  0.00     0.037 C 
ENDBRANCH  34  35
ENDBRANCH  33  34
ENDBRANCH  31  33
ENDBRANCH  28  31
ENDBRANCH   1  28
TORSDOF 11
ENDMDL
MODEL 8
REMARK VINA RESULT:      -6.6      2.660      4.236
REMARK  11 active torsions:
REMARK  status: ('A' for Active; 'I' for Inactive)
REMARK    1  A    between atoms: S_1  and  N_7 
REMARK    2  A    between atoms: S_1  and  C_21 
REMARK    3  A    between atoms: O_4  and  C_27 
REMARK    4  A    between atoms: O_4  and  C_35 
REMARK    5  A    between atoms: N_7  and  C_19 
REMARK    6  A    between atoms: C_14  and  C_18 
REMARK    7  A    between atoms: C_18  and  C_19 
REMARK    8  A    between atoms: C_23  and  C_26 
REMARK    9  A    between atoms: C_28  and  C_31 
REMARK   10  A    between atoms: C_31  and  C_33 
REMARK   11  A    between atoms: C_35  and  C_37 
ROOT
HETATM    1  C   UNK N   1      27.096  18.474   4.308  0.00  0.00     0.080 A 
HETATM    2  C   UNK N   1      25.804  17.950   4.496  0.00  0.00     0.043 A 
HETATM    3  C   UNK N   1      24.651  18.670   4.225  0.00  0.00     0.043 A 
HETATM    4  C   UNK N   1      27.208  19.782   3.817  0.00  0.00     0.028 A 
HETATM    5  C   UNK N   1      24.768  19.989   3.727  0.00  0.00     0.082 A 
HETATM    6  C   UNK N   1      26.058  20.529   3.527  0.00  0.00     0.039 A 
ENDROOT
BRANCH   3   7
HETATM    7  C   UNK N   1      23.382  17.970   4.511  0.00  0.00     0.121 A 
HETATM    8  N   UNK N   1      22.788  17.137   3.599  0.00  0.00    -0.338 N 
HETATM    9  C   UNK N   1      21.601  16.571   3.938  0.00  0.00     0.092 A 
HETATM   10  H   UNK N   1      23.207  16.956   2.727  0.00  0.00     0.167 HD
HETATM   11  C   UNK N   1      20.773  15.718   3.244  0.00  0.00     0.055 A 
HETATM   12  C   UNK N   1      20.991  16.793   5.128  0.00  0.00     0.147 A 
HETATM   13  N   UNK N   1      19.693  15.446   4.018  0.00  0.00    -0.300 N 
HETATM   14  N   UNK N   1      19.837  16.106   5.165  0.00  0.00    -0.289 N 
ATOM     15  HN  UNK N   1      18.909  14.844   3.767  1.00  0.00     0.187 HD
HETATM   16  C   UNK N   1      18.873  16.069   6.252  0.00  0.00     0.178 C 
HETATM   17  C   UNK N   1      21.579  17.625   6.060  0.00  0.00     0.277 A 
HETATM   18  O   UNK N   1      21.063  17.849   7.139  0.00  0.00    -0.265 OA
HETATM   19  N   UNK N   1      22.775  18.204   5.726  0.00  0.00    -0.307 N 
ATOM     20  HN  UNK N   1      23.228  18.825   6.395  1.00  0.00     0.170 HD
BRANCH  11  21
HETATM   21  C   UNK N   1      20.983  15.177   1.872  0.00  0.00     0.061 C 
BRANCH  21  22
HETATM   22  C   UNK N   1      19.799  15.514   0.989  0.00  0.00     0.002 C 
HETATM   23  C   UNK N   1      19.081  14.238   0.607  0.00  0.00     0.005 C 
ENDBRANCH  21  22
ENDBRANCH  11  21
ENDBRANCH   3   7
BRANCH   5  24
HETATM   24  O   UNK N   1      23.657  20.717   3.447  0.00  0.00    -0.350 OA
BRANCH  24  25
HETATM   25  C   UNK N   1      22.884  20.506   2.325  0.00  0.00     0.175 C 
BRANCH  25  26
HETATM   26  C   UNK N   1      21.418  20.578   2.695  0.00  0.00     0.022 C 
HETATM   27  C   UNK N   1      20.646  19.544   1.900  0.00  0.00     0.007 C 
ENDBRANCH  25  26
ENDBRANCH  24  25
ENDBRANCH   5  24
BRANCH   1  28
HETATM   28  S   UNK N   1      28.631  17.507   4.662  0.00  0.00     0.258 S 
HETATM   29  O   UNK N   1      27.448  16.947   5.471  0.00  0.00    -0.201 OA
HETATM   30  O   UNK N   1      28.979  18.846   5.336  0.00  0.00    -0.201 OA
BRANCH  28  31
HETATM   31  N   UNK N   1      29.231  16.981   6.247  0.00  0.00    -0.315 N 
HETATM   32  H   UNK N   1      28.643  16.716   7.036  0.00  0.00     0.172 HD
BRANCH  31  33
HETATM   33  C   UNK N   1      30.688  16.982   6.258  0.00  0.00     0.134 C 
BRANCH  33  34
HETATM   34  C   UNK N   1      31.224  15.867   7.140  0.00  0.00     0.056 C 
BRANCH  34  35
HETATM   35  C   UNK N   1      32.387  16.420   7.943  0.00  0.00     0.224 C 
HETATM   36  N   UNK N   1      33.637  15.769   7.612  0.00  0.00     0.088 N 
HETATM   37  C   UNK N   1      34.643  16.687   8.128  0.00  0.00     0.272 C 
HETATM   38  C   UNK N   1      33.724  14.537   8.378  0.00  0.00     0.310 C 
HETATM   39  C   UNK N   1      34.025  18.081   8.163  0.00  0.00     0.032 C 
HETATM   40  C   UNK N   1      32.606  17.887   7.689  0.00  0.00     0.037 C 
ENDBRANCH  34  35
ENDBRANCH  33  34
ENDBRANCH  31  33
ENDBRANCH  28  31
ENDBRANCH   1  28
TORSDOF 11
ENDMDL
MODEL 9
REMARK VINA RESULT:      -6.6     10.109     15.428
REMARK  11 active torsions:
REMARK  status: ('A' for Active; 'I' for Inactive)
REMARK    1  A    between atoms: S_1  and  N_7 
REMARK    2  A    between atoms: S_1  and  C_21 
REMARK    3  A    between atoms: O_4  and  C_27 
REMARK    4  A    between atoms: O_4  and  C_35 
REMARK    5  A    between atoms: N_7  and  C_19 
REMARK    6  A    between atoms: C_14  and  C_18 
REMARK    7  A    between atoms: C_18  and  C_19 
REMARK    8  A    between atoms: C_23  and  C_26 
REMARK    9  A    between atoms: C_28  and  C_31 
REMARK   10  A    between atoms: C_31  and  C_33 
REMARK   11  A    between atoms: C_35  and  C_37 
ROOT
HETATM    1  C   UNK N   1      35.706  14.295  11.384  0.00  0.00     0.080 A 
HETATM    2  C   UNK N   1      35.730  13.813  12.706  0.00  0.00     0.043 A 
HETATM    3  C   UNK N   1      36.045  12.501  13.024  0.00  0.00     0.043 A 
HETATM    4  C   UNK N   1      36.024  13.400  10.354  0.00  0.00     0.028 A 
HETATM    5  C   UNK N   1      36.369  11.601  11.983  0.00  0.00     0.082 A 
HETATM    6  C   UNK N   1      36.356  12.069  10.650  0.00  0.00     0.039 A 
ENDROOT
BRANCH   3   7
HETATM    7  C   UNK N   1      35.990  12.166  14.462  0.00  0.00     0.121 A 
HETATM    8  N   UNK N   1      36.396  10.948  14.943  0.00  0.00    -0.338 N 
HETATM    9  C   UNK N   1      36.269  10.719  16.275  0.00  0.00     0.092 A 
HETATM   10  H   UNK N   1      36.767  10.262  14.342  0.00  0.00     0.167 HD
HETATM   11  C   UNK N   1      36.572   9.613  17.037  0.00  0.00     0.055 A 
HETATM   12  C   UNK N   1      35.765  11.636  17.137  0.00  0.00     0.147 A 
HETATM   13  N   UNK N   1      36.247   9.881  18.327  0.00  0.00    -0.300 N 
HETATM   14  N   UNK N   1      35.758  11.117  18.376  0.00  0.00    -0.289 N 
ATOM     15  HN  UNK N   1      36.359   9.248  19.119  1.00  0.00     0.187 HD
HETATM   16  C   UNK N   1      35.293  11.761  19.593  0.00  0.00     0.178 C 
HETATM   17  C   UNK N   1      35.357  12.870  16.669  0.00  0.00     0.277 A 
HETATM   18  O   UNK N   1      34.899  13.720  17.411  0.00  0.00    -0.265 OA
HETATM   19  N   UNK N   1      35.477  13.109  15.326  0.00  0.00    -0.307 N 
ATOM     20  HN  UNK N   1      35.180  14.011  14.956  1.00  0.00     0.170 HD
BRANCH  11  21
HETATM   21  C   UNK N   1      37.142   8.322  16.563  0.00  0.00     0.061 C 
BRANCH  21  22
HETATM   22  C   UNK N   1      36.057   7.467  15.939  0.00  0.00     0.002 C 
HETATM   23  C   UNK N   1      35.567   6.460  16.955  0.00  0.00     0.005 C 
ENDBRANCH  21  22
ENDBRANCH  11  21
ENDBRANCH   3   7
BRANCH   5  24
HETATM   24  O   UNK N   1      36.687  10.312  12.264  0.00  0.00    -0.350 OA
BRANCH  24  25
HETATM   25  C   UNK N   1      35.980   9.239  11.768  0.00  0.00     0.175 C 
BRANCH  25  26
HETATM   26  C   UNK N   1      34.569   9.260  12.314  0.00  0.00     0.022 C 
HETATM   27  C   UNK N   1      33.584   9.358  11.167  0.00  0.00     0.007 C 
ENDBRANCH  25  26
ENDBRANCH  24  25
ENDBRANCH   5  24
BRANCH   1  28
HETATM   28  S   UNK N   1      35.295  16.047  10.964  0.00  0.00     0.258 S 
HETATM   29  O   UNK N   1      34.010  15.252  11.259  0.00  0.00    -0.201 OA
HETATM   30  O   UNK N   1      35.778  15.534   9.596  0.00  0.00    -0.201 OA
BRANCH  28  31
HETATM   31  N   UNK N   1      34.015  16.622   9.878  0.00  0.00    -0.315 N 
HETATM   32  H   UNK N   1      33.023  16.408   9.979  0.00  0.00     0.172 HD
BRANCH  31  33
HETATM   33  C   UNK N   1      34.585  17.446   8.820  0.00  0.00     0.134 C 
BRANCH  33  34
HETATM   34  C   UNK N   1      33.495  18.176   8.054  0.00  0.00     0.056 C 
BRANCH  34  35
HETATM   35  C   UNK N   1      32.955  17.234   6.993  0.00  0.00     0.224 C 
HETATM   36  N   UNK N   1      31.521  17.355   6.835  0.00  0.00     0.088 N 
HETATM   37  C   UNK N   1      31.271  16.734   5.541  0.00  0.00     0.272 C 
HETATM   38  C   UNK N   1      30.881  16.538   7.852  0.00  0.00     0.310 C 
HETATM   39  C   UNK N   1      32.551  16.842   4.719  0.00  0.00     0.032 C 
HETATM   40  C   UNK N   1      33.545  17.509   5.637  0.00  0.00     0.037 C 
ENDBRANCH  34  35
ENDBRANCH  33  34
ENDBRANCH  31  33
ENDBRANCH  28  31
ENDBRANCH   1  28
TORSDOF 11
ENDMDL
