MODEL 1
REMARK VINA RESULT:      -7.7      0.000      0.000
REMARK  4 active torsions:
REMARK  status: ('A' for Active; 'I' for Inactive)
REMARK    1  A    between atoms: C_4  and  C_8 
REMARK    2  A    between atoms: C_9  and  C_8 
REMARK    3  A    between atoms: C_14  and  N_15 
REMARK       I    between atoms: N_15  and  C_18 
REMARK    4  A    between atoms: C_18  and  C_20 
ROOT
HETATM    1  C   UNK N   1      26.762  16.806   5.789  0.00  0.00     0.250 C 
HETATM    2  N   UNK N   1      26.627  17.661   4.578  0.00  0.00     0.095 N 
HETATM    3  C   UNK N   1      25.266  18.246   4.597  0.00  0.00     0.273 C 
HETATM    4  C   UNK N   1      24.176  17.145   4.704  0.00  0.00     0.037 C 
HETATM    5  C   UNK N   1      24.823  15.759   4.553  0.00  0.00     0.014 C 
HETATM    6  C   UNK N   1      25.890  15.530   5.651  0.00  0.00     0.122 C 
HETATM    7  C   UNK N   1      26.729  16.870   3.331  0.00  0.00     0.273 C 
HETATM    8  C   UNK N   1      25.598  15.815   3.226  0.00  0.00     0.037 C 
ENDROOT
BRANCH   6   9
HETATM    9  N   UNK N   1      25.391  15.092   6.939  0.00  0.00    -0.348 N 
HETATM   10  C   UNK N   1      25.207  13.815   7.363  0.00  0.00     0.275 C 
HETATM   11  O   UNK N   1      25.548  12.856   6.687  0.00  0.00    -0.265 OA
HETATM   12  H   UNK N   1      25.159  15.802   7.581  0.00  0.00     0.163 HD
BRANCH  10  13
HETATM   13  C   UNK N   1      24.393  13.618   8.548  0.00  0.00     0.144 A 
HETATM   14  C   UNK N   1      24.865  12.948   9.672  0.00  0.00     0.057 A 
HETATM   15  C   UNK N   1      23.734  12.662  10.391  0.00  0.00     0.001 A 
HETATM   16  C   UNK N   1      23.584  11.977  11.588  0.00  0.00     0.014 A 
HETATM   17  C   UNK N   1      22.664  13.130   9.678  0.00  0.00     0.086 A 
HETATM   18  C   UNK N   1      22.275  11.777  12.063  0.00  0.00     0.001 A 
HETATM   19  C   UNK N   1      21.166  12.262  11.330  0.00  0.00     0.003 A 
HETATM   20  C   UNK N   1      21.356  12.948  10.116  0.00  0.00     0.038 A 
HETATM   21  O   UNK N   1      23.073  13.681   8.566  0.00  0.00    -0.304 OA
ENDBRANCH  10  13
ENDBRANCH   6   9
BRANCH   1  22
HETATM   22  C   UNK N   1      28.197  16.475   6.246  0.00  0.00     0.078 C 
BRANCH  22  23
HETATM   23  C   UNK N   1      28.747  17.223   7.416  0.00  0.00    -0.041 A 
HETATM   24  C   UNK N   1      30.119  17.441   7.565  0.00  0.00     0.010 A 
HETATM   25  C   UNK N   1      30.594  18.124   8.685  0.00  0.00     0.018 A 
HETATM   26  C   UNK N   1      29.688  18.565   9.653  0.00  0.00     0.087 A 
HETATM   27  N   UNK N   1      28.357  18.324   9.502  0.00  0.00    -0.375 N 
HETATM   28  C   UNK N   1      27.875  17.666   8.413  0.00  0.00     0.094 A 
ATOM     29  HN  UNK N   1      27.708  18.643  10.220  1.00  0.00     0.164 HD
ENDBRANCH  22  23
ENDBRANCH   1  22
TORSDOF 4
ENDMDL
MODEL 2
REMARK VINA RESULT:      -7.6      9.625     12.314
REMARK  4 active torsions:
REMARK  status: ('A' for Active; 'I' for Inactive)
REMARK    1  A    between atoms: C_4  and  C_8 
REMARK    2  A    between atoms: C_9  and  C_8 
REMARK    3  A    between atoms: C_14  and  N_15 
REMARK       I    between atoms: N_15  and  C_18 
REMARK    4  A    between atoms: C_18  and  C_20 
ROOT
HETATM    1  C   UNK N   1      35.524  13.814  11.069  0.00  0.00     0.250 C 
HETATM    2  N   UNK N   1      36.045  13.406   9.735  0.00  0.00     0.095 N 
HETATM    3  C   UNK N   1      36.045  11.925   9.692  0.00  0.00     0.273 C 
HETATM    4  C   UNK N   1      36.842  11.323  10.882  0.00  0.00     0.037 C 
HETATM    5  C   UNK N   1      37.569  12.445  11.639  0.00  0.00     0.014 C 
HETATM    6  C   UNK N   1      36.559  13.486  12.178  0.00  0.00     0.122 C 
HETATM    7  C   UNK N   1      37.448  13.833   9.538  0.00  0.00     0.273 C 
HETATM    8  C   UNK N   1      38.399  13.182  10.575  0.00  0.00     0.037 C 
ENDROOT
BRANCH   6   9
HETATM    9  N   UNK N   1      35.903  13.149  13.425  0.00  0.00    -0.348 N 
HETATM   10  C   UNK N   1      36.089  13.729  14.639  0.00  0.00     0.275 C 
HETATM   11  O   UNK N   1      36.806  14.707  14.784  0.00  0.00    -0.265 OA
HETATM   12  H   UNK N   1      35.248  12.415  13.389  0.00  0.00     0.163 HD
BRANCH  10  13
HETATM   13  C   UNK N   1      35.583  13.019  15.799  0.00  0.00     0.144 A 
HETATM   14  C   UNK N   1      35.487  13.616  17.053  0.00  0.00     0.057 A 
HETATM   15  C   UNK N   1      35.323  12.562  17.914  0.00  0.00     0.001 A 
HETATM   16  C   UNK N   1      35.205  12.546  19.296  0.00  0.00     0.014 A 
HETATM   17  C   UNK N   1      35.357  11.415  17.169  0.00  0.00     0.086 A 
HETATM   18  C   UNK N   1      35.111  11.291  19.926  0.00  0.00     0.001 A 
HETATM   19  C   UNK N   1      35.142  10.102  19.160  0.00  0.00     0.003 A 
HETATM   20  C   UNK N   1      35.270  10.157  17.759  0.00  0.00     0.038 A 
HETATM   21  O   UNK N   1      35.535  11.704  15.907  0.00  0.00    -0.304 OA
ENDBRANCH  10  13
ENDBRANCH   6   9
BRANCH   1  22
HETATM   22  C   UNK N   1      34.988  15.255  11.190  0.00  0.00     0.078 C 
BRANCH  22  23
HETATM   23  C   UNK N   1      34.296  15.843  10.005  0.00  0.00    -0.041 A 
HETATM   24  C   UNK N   1      34.759  17.011   9.393  0.00  0.00     0.010 A 
HETATM   25  C   UNK N   1      34.070  17.542   8.302  0.00  0.00     0.018 A 
HETATM   26  C   UNK N   1      32.913  16.906   7.848  0.00  0.00     0.087 A 
HETATM   27  N   UNK N   1      32.463  15.781   8.470  0.00  0.00    -0.375 N 
HETATM   28  C   UNK N   1      33.126  15.246   9.531  0.00  0.00     0.094 A 
ATOM     29  HN  UNK N   1      31.613  15.332   8.134  1.00  0.00     0.164 HD
ENDBRANCH  22  23
ENDBRANCH   1  22
TORSDOF 4
ENDMDL
MODEL 3
REMARK VINA RESULT:      -7.6     14.636     17.282
REMARK  4 active torsions:
REMARK  status: ('A' for Active; 'I' for Inactive)
REMARK    1  A    between atoms: C_4  and  C_8 
REMARK    2  A    between atoms: C_9  and  C_8 
REMARK    3  A    between atoms: C_14  and  N_15 
REMARK       I    between atoms: N_15  and  C_18 
REMARK    4  A    between atoms: C_18  and  C_20 
ROOT
HETATM    1  C   UNK N   1      27.119  27.763  -5.414  0.00  0.00     0.250 C 
HETATM    2  N   UNK N   1      27.245  29.245  -5.458  0.00  0.00     0.095 N 
HETATM    3  C   UNK N   1      28.689  29.566  -5.541  0.00  0.00     0.273 C 
HETATM    4  C   UNK N   1      29.484  28.909  -4.380  0.00  0.00     0.037 C 
HETATM    5  C   UNK N   1      28.507  28.288  -3.370  0.00  0.00     0.014 C 
HETATM    6  C   UNK N   1      27.622  27.217  -4.051  0.00  0.00     0.122 C 
HETATM    7  C   UNK N   1      26.744  29.878  -4.218  0.00  0.00     0.273 C 
HETATM    8  C   UNK N   1      27.552  29.427  -2.975  0.00  0.00     0.037 C 
ENDROOT
BRANCH   6   9
HETATM    9  N   UNK N   1      28.215  25.902  -4.198  0.00  0.00    -0.348 N 
HETATM   10  C   UNK N   1      27.783  24.736  -3.652  0.00  0.00     0.275 C 
HETATM   11  O   UNK N   1      26.739  24.667  -3.021  0.00  0.00    -0.265 OA
HETATM   12  H   UNK N   1      29.024  25.849  -4.756  0.00  0.00     0.163 HD
BRANCH  10  13
HETATM   13  C   UNK N   1      28.707  23.618  -3.656  0.00  0.00     0.144 A 
HETATM   14  C   UNK N   1      29.738  23.501  -2.729  0.00  0.00     0.057 A 
HETATM   15  C   UNK N   1      30.569  22.554  -3.269  0.00  0.00     0.001 A 
HETATM   16  C   UNK N   1      31.775  22.052  -2.802  0.00  0.00     0.014 A 
HETATM   17  C   UNK N   1      30.035  22.178  -4.471  0.00  0.00     0.086 A 
HETATM   18  C   UNK N   1      32.447  21.119  -3.613  0.00  0.00     0.001 A 
HETATM   19  C   UNK N   1      31.898  20.724  -4.856  0.00  0.00     0.003 A 
HETATM   20  C   UNK N   1      30.675  21.260  -5.299  0.00  0.00     0.038 A 
HETATM   21  O   UNK N   1      28.932  22.839  -4.699  0.00  0.00    -0.304 OA
ENDBRANCH  10  13
ENDBRANCH   6   9
BRANCH   1  22
HETATM   22  C   UNK N   1      25.747  27.173  -5.798  0.00  0.00     0.078 C 
BRANCH  22  23
HETATM   23  C   UNK N   1      25.719  26.076  -6.811  0.00  0.00    -0.041 A 
HETATM   24  C   UNK N   1      25.839  26.340  -8.177  0.00  0.00     0.010 A 
HETATM   25  C   UNK N   1      25.784  25.289  -9.093  0.00  0.00     0.018 A 
HETATM   26  C   UNK N   1      25.589  23.986  -8.629  0.00  0.00     0.087 A 
HETATM   27  N   UNK N   1      25.450  23.750  -7.296  0.00  0.00    -0.375 N 
HETATM   28  C   UNK N   1      25.509  24.761  -6.388  0.00  0.00     0.094 A 
ATOM     29  HN  UNK N   1      25.300  22.796  -6.971  1.00  0.00     0.164 HD
ENDBRANCH  22  23
ENDBRANCH   1  22
TORSDOF 4
ENDMDL
MODEL 4
REMARK VINA RESULT:      -7.4      6.633      9.820
REMARK  4 active torsions:
REMARK  status: ('A' for Active; 'I' for Inactive)
REMARK    1  A    between atoms: C_4  and  C_8 
REMARK    2  A    between atoms: C_9  and  C_8 
REMARK    3  A    between atoms: C_14  and  N_15 
REMARK       I    between atoms: N_15  and  C_18 
REMARK    4  A    between atoms: C_18  and  C_20 
ROOT
HETATM    1  C   UNK N   1      32.936  15.954   7.911  0.00  0.00     0.250 C 
HETATM    2  N   UNK N   1      32.816  15.577   6.476  0.00  0.00     0.095 N 
HETATM    3  C   UNK N   1      32.859  14.097   6.401  0.00  0.00     0.273 C 
HETATM    4  C   UNK N   1      34.131  13.531   7.088  0.00  0.00     0.037 C 
HETATM    5  C   UNK N   1      35.074  14.685   7.464  0.00  0.00     0.014 C 
HETATM    6  C   UNK N   1      34.373  15.674   8.426  0.00  0.00     0.122 C 
HETATM    7  C   UNK N   1      33.959  16.072   5.678  0.00  0.00     0.273 C 
HETATM    8  C   UNK N   1      35.302  15.465   6.158  0.00  0.00     0.037 C 
ENDROOT
BRANCH   6   9
HETATM    9  N   UNK N   1      34.365  15.301   9.826  0.00  0.00    -0.348 N 
HETATM   10  C   UNK N   1      35.262  15.660  10.781  0.00  0.00     0.275 C 
HETATM   11  O   UNK N   1      36.165  16.451  10.553  0.00  0.00    -0.265 OA
HETATM   12  H   UNK N   1      33.626  14.721  10.119  0.00  0.00     0.163 HD
BRANCH  10  13
HETATM   13  C   UNK N   1      35.248  14.909  12.022  0.00  0.00     0.144 A 
HETATM   14  C   UNK N   1      36.236  15.055  12.992  0.00  0.00     0.057 A 
HETATM   15  C   UNK N   1      36.075  13.961  13.801  0.00  0.00     0.001 A 
HETATM   16  C   UNK N   1      36.797  13.558  14.916  0.00  0.00     0.014 A 
HETATM   17  C   UNK N   1      35.052  13.214  13.284  0.00  0.00     0.086 A 
HETATM   18  C   UNK N   1      36.438  12.338  15.517  0.00  0.00     0.001 A 
HETATM   19  C   UNK N   1      35.379  11.563  14.987  0.00  0.00     0.003 A 
HETATM   20  C   UNK N   1      34.672  12.000  13.851  0.00  0.00     0.038 A 
HETATM   21  O   UNK N   1      34.582  13.783  12.206  0.00  0.00    -0.304 OA
ENDBRANCH  10  13
ENDBRANCH   6   9
BRANCH   1  22
HETATM   22  C   UNK N   1      32.453  17.367   8.297  0.00  0.00     0.078 C 
BRANCH  22  23
HETATM   23  C   UNK N   1      30.981  17.620   8.311  0.00  0.00    -0.041 A 
HETATM   24  C   UNK N   1      30.376  18.359   9.331  0.00  0.00     0.010 A 
HETATM   25  C   UNK N   1      28.994  18.552   9.321  0.00  0.00     0.018 A 
HETATM   26  C   UNK N   1      28.232  17.986   8.296  0.00  0.00     0.087 A 
HETATM   27  N   UNK N   1      28.835  17.251   7.323  0.00  0.00    -0.375 N 
HETATM   28  C   UNK N   1      30.182  17.058   7.313  0.00  0.00     0.094 A 
ATOM     29  HN  UNK N   1      28.266  16.836   6.586  1.00  0.00     0.164 HD
ENDBRANCH  22  23
ENDBRANCH   1  22
TORSDOF 4
ENDMDL
MODEL 5
REMARK VINA RESULT:      -7.3      5.733      8.845
REMARK  4 active torsions:
REMARK  status: ('A' for Active; 'I' for Inactive)
REMARK    1  A    between atoms: C_4  and  C_8 
REMARK    2  A    between atoms: C_9  and  C_8 
REMARK    3  A    between atoms: C_14  and  N_15 
REMARK       I    between atoms: N_15  and  C_18 
REMARK    4  A    between atoms: C_18  and  C_20 
ROOT
HETATM    1  C   UNK N   1      30.984  16.343   5.410  0.00  0.00     0.250 C 
HETATM    2  N   UNK N   1      30.431  15.854   4.118  0.00  0.00     0.095 N 
HETATM    3  C   UNK N   1      30.854  14.443   3.958  0.00  0.00     0.273 C 
HETATM    4  C   UNK N   1      32.397  14.297   4.069  0.00  0.00     0.037 C 
HETATM    5  C   UNK N   1      33.047  15.689   4.107  0.00  0.00     0.014 C 
HETATM    6  C   UNK N   1      32.524  16.505   5.313  0.00  0.00     0.122 C 
HETATM    7  C   UNK N   1      30.990  16.594   2.964  0.00  0.00     0.273 C 
HETATM    8  C   UNK N   1      32.525  16.415   2.855  0.00  0.00     0.037 C 
ENDROOT
BRANCH   6   9
HETATM    9  N   UNK N   1      33.163  16.238   6.586  0.00  0.00    -0.348 N 
HETATM   10  C   UNK N   1      34.097  16.994   7.217  0.00  0.00     0.275 C 
HETATM   11  O   UNK N   1      34.444  18.084   6.786  0.00  0.00    -0.265 OA
HETATM   12  H   UNK N   1      32.888  15.411   7.046  0.00  0.00     0.163 HD
BRANCH  10  13
HETATM   13  C   UNK N   1      34.833  16.374   8.303  0.00  0.00     0.144 A 
HETATM   14  C   UNK N   1      35.169  15.023   8.298  0.00  0.00     0.057 A 
HETATM   15  C   UNK N   1      35.514  14.759   9.597  0.00  0.00     0.001 A 
HETATM   16  C   UNK N   1      35.906  13.570  10.195  0.00  0.00     0.014 A 
HETATM   17  C   UNK N   1      35.346  15.915  10.310  0.00  0.00     0.086 A 
HETATM   18  C   UNK N   1      36.138  13.585  11.582  0.00  0.00     0.001 A 
HETATM   19  C   UNK N   1      35.968  14.779  12.323  0.00  0.00     0.003 A 
HETATM   20  C   UNK N   1      35.563  15.965  11.684  0.00  0.00     0.038 A 
HETATM   21  O   UNK N   1      34.916  16.867   9.525  0.00  0.00    -0.304 OA
ENDBRANCH  10  13
ENDBRANCH   6   9
BRANCH   1  22
HETATM   22  C   UNK N   1      30.312  17.588   6.023  0.00  0.00     0.078 C 
BRANCH  22  23
HETATM   23  C   UNK N   1      29.780  17.479   7.414  0.00  0.00    -0.041 A 
HETATM   24  C   UNK N   1      28.415  17.313   7.663  0.00  0.00     0.010 A 
HETATM   25  C   UNK N   1      27.955  17.239   8.978  0.00  0.00     0.018 A 
HETATM   26  C   UNK N   1      28.868  17.352  10.030  0.00  0.00     0.087 A 
HETATM   27  N   UNK N   1      30.191  17.537   9.769  0.00  0.00    -0.375 N 
HETATM   28  C   UNK N   1      30.658  17.604   8.493  0.00  0.00     0.094 A 
ATOM     29  HN  UNK N   1      30.844  17.626  10.546  1.00  0.00     0.164 HD
ENDBRANCH  22  23
ENDBRANCH   1  22
TORSDOF 4
ENDMDL
MODEL 6
REMARK VINA RESULT:      -7.3      8.788     12.694
REMARK  4 active torsions:
REMARK  status: ('A' for Active; 'I' for Inactive)
REMARK    1  A    between atoms: C_4  and  C_8 
REMARK    2  A    between atoms: C_9  and  C_8 
REMARK    3  A    between atoms: C_14  and  N_15 
REMARK       I    between atoms: N_15  and  C_18 
REMARK    4  A    between atoms: C_18  and  C_20 
ROOT
HETATM    1  C   UNK N   1      34.585  11.947  14.469  0.00  0.00     0.250 C 
HETATM    2  N   UNK N   1      35.382  11.744  15.710  0.00  0.00     0.095 N 
HETATM    3  C   UNK N   1      35.765  13.083  16.216  0.00  0.00     0.273 C 
HETATM    4  C   UNK N   1      36.505  13.910  15.129  0.00  0.00     0.037 C 
HETATM    5  C   UNK N   1      36.804  13.019  13.914  0.00  0.00     0.014 C 
HETATM    6  C   UNK N   1      35.495  12.449  13.317  0.00  0.00     0.122 C 
HETATM    7  C   UNK N   1      36.644  11.019  15.442  0.00  0.00     0.273 C 
HETATM    8  C   UNK N   1      37.566  11.807  14.477  0.00  0.00     0.037 C 
ENDROOT
BRANCH   6   9
HETATM    9  N   UNK N   1      34.770  13.327  12.420  0.00  0.00    -0.348 N 
HETATM   10  C   UNK N   1      34.973  13.499  11.089  0.00  0.00     0.275 C 
HETATM   11  O   UNK N   1      35.778  12.821  10.467  0.00  0.00    -0.265 OA
HETATM   12  H   UNK N   1      34.048  13.862  12.823  0.00  0.00     0.163 HD
BRANCH  10  13
HETATM   13  C   UNK N   1      34.364  14.659  10.467  0.00  0.00     0.144 A 
HETATM   14  C   UNK N   1      33.177  14.580   9.746  0.00  0.00     0.057 A 
HETATM   15  C   UNK N   1      33.132  15.756   9.044  0.00  0.00     0.001 A 
HETATM   16  C   UNK N   1      32.194  16.219   8.132  0.00  0.00     0.014 A 
HETATM   17  C   UNK N   1      34.271  16.454   9.339  0.00  0.00     0.086 A 
HETATM   18  C   UNK N   1      32.447  17.455   7.510  0.00  0.00     0.001 A 
HETATM   19  C   UNK N   1      33.622  18.182   7.815  0.00  0.00     0.003 A 
HETATM   20  C   UNK N   1      34.554  17.679   8.741  0.00  0.00     0.038 A 
HETATM   21  O   UNK N   1      35.009  15.775  10.176  0.00  0.00    -0.304 OA
ENDBRANCH  10  13
ENDBRANCH   6   9
BRANCH   1  22
HETATM   22  C   UNK N   1      33.689  10.773  14.024  0.00  0.00     0.078 C 
BRANCH  22  23
HETATM   23  C   UNK N   1      34.167   9.921  12.895  0.00  0.00    -0.041 A 
HETATM   24  C   UNK N   1      33.608  10.018  11.618  0.00  0.00     0.010 A 
HETATM   25  C   UNK N   1      34.066   9.187  10.596  0.00  0.00     0.018 A 
HETATM   26  C   UNK N   1      35.069   8.254  10.871  0.00  0.00     0.087 A 
HETATM   27  N   UNK N   1      35.587   8.157  12.125  0.00  0.00    -0.375 N 
HETATM   28  C   UNK N   1      35.157   8.964  13.133  0.00  0.00     0.094 A 
ATOM     29  HN  UNK N   1      36.312   7.467  12.314  1.00  0.00     0.164 HD
ENDBRANCH  22  23
ENDBRANCH   1  22
TORSDOF 4
ENDMDL
MODEL 7
REMARK VINA RESULT:      -7.1     14.520     16.873
REMARK  4 active torsions:
REMARK  status: ('A' for Active; 'I' for Inactive)
REMARK    1  A    between atoms: C_4  and  C_8 
REMARK    2  A    between atoms: C_9  and  C_8 
REMARK    3  A    between atoms: C_14  and  N_15 
REMARK       I    between atoms: N_15  and  C_18 
REMARK    4  A    between atoms: C_18  and  C_20 
ROOT
HETATM    1  C   UNK N   1      29.800  21.457  -7.739  0.00  0.00     0.250 C 
HETATM    2  N   UNK N   1      30.554  21.259  -9.007  0.00  0.00     0.095 N 
HETATM    3  C   UNK N   1      30.625  22.571  -9.692  0.00  0.00     0.273 C 
HETATM    4  C   UNK N   1      29.211  23.180  -9.898  0.00  0.00     0.037 C 
HETATM    5  C   UNK N   1      28.141  22.146  -9.516  0.00  0.00     0.014 C 
HETATM    6  C   UNK N   1      28.299  21.716  -8.038  0.00  0.00     0.122 C 
HETATM    7  C   UNK N   1      29.851  20.340  -9.929  0.00  0.00     0.273 C 
HETATM    8  C   UNK N   1      28.466  20.896 -10.350  0.00  0.00     0.037 C 
ENDROOT
BRANCH   6   9
HETATM    9  N   UNK N   1      27.713  22.601  -7.052  0.00  0.00    -0.348 N 
HETATM   10  C   UNK N   1      26.402  22.709  -6.714  0.00  0.00     0.275 C 
HETATM   11  O   UNK N   1      25.553  21.960  -7.175  0.00  0.00    -0.265 OA
HETATM   12  H   UNK N   1      28.336  23.194  -6.573  0.00  0.00     0.163 HD
BRANCH  10  13
HETATM   13  C   UNK N   1      26.005  23.880  -5.955  0.00  0.00     0.144 A 
HETATM   14  C   UNK N   1      25.498  25.024  -6.563  0.00  0.00     0.057 A 
HETATM   15  C   UNK N   1      25.588  25.987  -5.593  0.00  0.00     0.001 A 
HETATM   16  C   UNK N   1      25.260  27.335  -5.636  0.00  0.00     0.014 A 
HETATM   17  C   UNK N   1      26.154  25.408  -4.490  0.00  0.00     0.086 A 
HETATM   18  C   UNK N   1      25.524  28.106  -4.490  0.00  0.00     0.001 A 
HETATM   19  C   UNK N   1      26.107  27.510  -3.346  0.00  0.00     0.003 A 
HETATM   20  C   UNK N   1      26.432  26.141  -3.340  0.00  0.00     0.038 A 
HETATM   21  O   UNK N   1      26.418  24.151  -4.730  0.00  0.00    -0.304 OA
ENDBRANCH  10  13
ENDBRANCH   6   9
BRANCH   1  22
HETATM   22  C   UNK N   1      29.992  20.387  -6.645  0.00  0.00     0.078 C 
BRANCH  22  23
HETATM   23  C   UNK N   1      30.584  20.819  -5.344  0.00  0.00    -0.041 A 
HETATM   24  C   UNK N   1      30.140  21.969  -4.686  0.00  0.00     0.010 A 
HETATM   25  C   UNK N   1      30.736  22.353  -3.484  0.00  0.00     0.018 A 
HETATM   26  C   UNK N   1      31.783  21.589  -2.965  0.00  0.00     0.087 A 
HETATM   27  N   UNK N   1      32.218  20.484  -3.631  0.00  0.00    -0.375 N 
HETATM   28  C   UNK N   1      31.644  20.091  -4.800  0.00  0.00     0.094 A 
ATOM     29  HN  UNK N   1      32.989  19.940  -3.246  1.00  0.00     0.164 HD
ENDBRANCH  22  23
ENDBRANCH   1  22
TORSDOF 4
ENDMDL
MODEL 8
REMARK VINA RESULT:      -7.1      5.096      7.444
REMARK  4 active torsions:
REMARK  status: ('A' for Active; 'I' for Inactive)
REMARK    1  A    between atoms: C_4  and  C_8 
REMARK    2  A    between atoms: C_9  and  C_8 
REMARK    3  A    between atoms: C_14  and  N_15 
REMARK       I    between atoms: N_15  and  C_18 
REMARK    4  A    between atoms: C_18  and  C_20 
ROOT
HETATM    1  C   UNK N   1      28.003  16.442   4.349  0.00  0.00     0.250 C 
HETATM    2  N   UNK N   1      27.055  15.601   3.569  0.00  0.00     0.095 N 
HETATM    3  C   UNK N   1      26.745  14.405   4.387  0.00  0.00     0.273 C 
HETATM    4  C   UNK N   1      28.039  13.655   4.807  0.00  0.00     0.037 C 
HETATM    5  C   UNK N   1      29.249  14.261   4.078  0.00  0.00     0.014 C 
HETATM    6  C   UNK N   1      29.397  15.763   4.418  0.00  0.00     0.122 C 
HETATM    7  C   UNK N   1      27.660  15.107   2.313  0.00  0.00     0.273 C 
HETATM    8  C   UNK N   1      28.891  14.205   2.583  0.00  0.00     0.037 C 
ENDROOT
BRANCH   6   9
HETATM    9  N   UNK N   1      30.070  16.069   5.665  0.00  0.00    -0.348 N 
HETATM   10  C   UNK N   1      31.127  16.901   5.850  0.00  0.00     0.275 C 
HETATM   11  O   UNK N   1      31.582  17.579   4.941  0.00  0.00    -0.265 OA
HETATM   12  H   UNK N   1      29.721  15.622   6.469  0.00  0.00     0.163 HD
BRANCH  10  13
HETATM   13  C   UNK N   1      31.840  16.799   7.109  0.00  0.00     0.144 A 
HETATM   14  C   UNK N   1      32.910  17.630   7.429  0.00  0.00     0.057 A 
HETATM   15  C   UNK N   1      33.516  17.005   8.487  0.00  0.00     0.001 A 
HETATM   16  C   UNK N   1      34.652  17.356   9.202  0.00  0.00     0.014 A 
HETATM   17  C   UNK N   1      32.827  15.848   8.730  0.00  0.00     0.086 A 
HETATM   18  C   UNK N   1      35.083  16.475  10.210  0.00  0.00     0.001 A 
HETATM   19  C   UNK N   1      34.372  15.279  10.468  0.00  0.00     0.003 A 
HETATM   20  C   UNK N   1      33.227  14.953   9.718  0.00  0.00     0.038 A 
HETATM   21  O   UNK N   1      31.840  15.728   7.883  0.00  0.00    -0.304 OA
ENDBRANCH  10  13
ENDBRANCH   6   9
BRANCH   1  22
HETATM   22  C   UNK N   1      28.107  17.926   3.943  0.00  0.00     0.078 C 
BRANCH  22  23
HETATM   23  C   UNK N   1      27.675  18.952   4.939  0.00  0.00    -0.041 A 
HETATM   24  C   UNK N   1      27.363  20.259   4.554  0.00  0.00     0.010 A 
HETATM   25  C   UNK N   1      26.987  21.194   5.518  0.00  0.00     0.018 A 
HETATM   26  C   UNK N   1      26.948  20.814   6.862  0.00  0.00     0.087 A 
HETATM   27  N   UNK N   1      27.277  19.543   7.222  0.00  0.00    -0.375 N 
HETATM   28  C   UNK N   1      27.639  18.616   6.294  0.00  0.00     0.094 A 
ATOM     29  HN  UNK N   1      27.253  19.281   8.206  1.00  0.00     0.164 HD
ENDBRANCH  22  23
ENDBRANCH   1  22
TORSDOF 4
ENDMDL
MODEL 9
REMARK VINA RESULT:      -7.0      7.860     11.793
REMARK  4 active torsions:
REMARK  status: ('A' for Active; 'I' for Inactive)
REMARK    1  A    between atoms: C_4  and  C_8 
REMARK    2  A    between atoms: C_9  and  C_8 
REMARK    3  A    between atoms: C_14  and  N_15 
REMARK       I    between atoms: N_15  and  C_18 
REMARK    4  A    between atoms: C_18  and  C_20 
ROOT
HETATM    1  C   UNK N   1      36.916  13.600   9.874  0.00  0.00     0.250 C 
HETATM    2  N   UNK N   1      36.907  12.506  10.883  0.00  0.00     0.095 N 
HETATM    3  C   UNK N   1      35.535  11.949  10.924  0.00  0.00     0.273 C 
HETATM    4  C   UNK N   1      34.481  13.057  11.199  0.00  0.00     0.037 C 
HETATM    5  C   UNK N   1      35.192  14.372  11.553  0.00  0.00     0.014 C 
HETATM    6  C   UNK N   1      36.116  14.824  10.396  0.00  0.00     0.122 C 
HETATM    7  C   UNK N   1      37.198  13.009  12.244  0.00  0.00     0.273 C 
HETATM    8  C   UNK N   1      36.130  14.026  12.722  0.00  0.00     0.037 C 
ENDROOT
BRANCH   6   9
HETATM    9  N   UNK N   1      35.472  15.533   9.308  0.00  0.00    -0.348 N 
HETATM   10  C   UNK N   1      35.106  16.840   9.276  0.00  0.00     0.275 C 
HETATM   11  O   UNK N   1      35.383  17.609  10.184  0.00  0.00    -0.265 OA
HETATM   12  H   UNK N   1      35.276  15.005   8.500  0.00  0.00     0.163 HD
BRANCH  10  13
HETATM   13  C   UNK N   1      34.186  17.247   8.231  0.00  0.00     0.144 A 
HETATM   14  C   UNK N   1      32.816  17.013   8.313  0.00  0.00     0.057 A 
HETATM   15  C   UNK N   1      32.367  17.203   7.032  0.00  0.00     0.001 A 
HETATM   16  C   UNK N   1      31.091  17.075   6.503  0.00  0.00     0.014 A 
HETATM   17  C   UNK N   1      33.453  17.502   6.256  0.00  0.00     0.086 A 
HETATM   18  C   UNK N   1      30.937  17.272   5.119  0.00  0.00     0.001 A 
HETATM   19  C   UNK N   1      32.058  17.585   4.313  0.00  0.00     0.003 A 
HETATM   20  C   UNK N   1      33.339  17.701   4.883  0.00  0.00     0.038 A 
HETATM   21  O   UNK N   1      34.538  17.504   6.984  0.00  0.00    -0.304 OA
ENDBRANCH  10  13
ENDBRANCH   6   9
BRANCH   1  22
HETATM   22  C   UNK N   1      38.292  14.011   9.311  0.00  0.00     0.078 C 
BRANCH  22  23
HETATM   23  C   UNK N   1      38.536  13.804   7.852  0.00  0.00    -0.041 A 
HETATM   24  C   UNK N   1      39.785  14.055   7.278  0.00  0.00     0.010 A 
HETATM   25  C   UNK N   1      39.967  13.873   5.907  0.00  0.00     0.018 A 
HETATM   26  C   UNK N   1      38.887  13.459   5.123  0.00  0.00     0.087 A 
HETATM   27  N   UNK N   1      37.672  13.241   5.695  0.00  0.00    -0.375 N 
HETATM   28  C   UNK N   1      37.479  13.407   7.031  0.00  0.00     0.094 A 
ATOM     29  HN  UNK N   1      36.891  12.948   5.110  1.00  0.00     0.164 HD
ENDBRANCH  22  23
ENDBRANCH   1  22
TORSDOF 4
ENDMDL
