MODEL 1
REMARK VINA RESULT:      -8.1      0.000      0.000
REMARK  8 active torsions:
REMARK  status: ('A' for Active; 'I' for Inactive)
REMARK    1  A    between atoms: C_29  and  O_1 
REMARK    2  A    between atoms: O_1  and  C_37 
REMARK    3  A    between atoms: O_5  and  C_42 
REMARK    4  A    between atoms: C_14  and  C_31 
REMARK    5  A    between atoms: C_22  and  C_34 
REMARK    6  A    between atoms: C_37  and  C_38 
REMARK    7  A    between atoms: C_38  and  C_39 
REMARK    8  A    between atoms: C_39  and  C_42 
ROOT
HETATM    1  O   UNK N   1      34.953  15.505   5.772  0.00  0.00    -0.776 OA
HETATM    2  O   UNK N   1      34.209  17.574   5.517  0.00  0.00    -0.649 OA
HETATM    3  C   UNK N   1      34.040  16.467   6.007  0.00  0.00     0.149 C 
HETATM    4  H   UNK N   1      35.605  14.850   5.612  0.00  0.00     0.167 HD
ENDROOT
BRANCH   3   5
HETATM    5  C   UNK N   1      32.819  16.213   6.885  0.00  0.00     0.050 C 
HETATM    6  C   UNK N   1      31.692  17.299   6.784  0.00  0.00     0.017 C 
HETATM    7  C   UNK N   1      30.349  16.727   6.216  0.00  0.00     0.000 C 
HETATM    8  C   UNK N   1      31.682  18.046   8.129  0.00  0.00     0.019 C 
HETATM    9  C   UNK N   1      30.669  15.977   4.878  0.00  0.00    -0.032 C 
HETATM   10  C   UNK N   1      29.247  17.795   6.097  0.00  0.00     0.006 C 
HETATM   11  C   UNK N   1      29.367  15.496   4.164  0.00  0.00    -0.032 C 
HETATM   12  C   UNK N   1      31.605  14.772   5.170  0.00  0.00     0.011 C 
HETATM   13  C   UNK N   1      31.421  16.916   3.915  0.00  0.00     0.016 C 
HETATM   14  C   UNK N   1      28.369  16.717   3.921  0.00  0.00     0.003 C 
HETATM   15  C   UNK N   1      28.653  14.355   4.942  0.00  0.00     0.011 C 
HETATM   16  C   UNK N   1      29.779  14.864   2.817  0.00  0.00     0.016 C 
HETATM   17  C   UNK N   1      26.865  16.315   4.075  0.00  0.00    -0.035 C 
HETATM   18  C   UNK N   1      28.739  18.012   4.677  0.00  0.00     0.006 C 
HETATM   19  C   UNK N   1      26.712  14.942   3.344  0.00  0.00     0.004 C 
HETATM   20  C   UNK N   1      25.900  17.341   3.479  0.00  0.00     0.012 C 
HETATM   21  C   UNK N   1      26.495  16.214   5.573  0.00  0.00     0.016 C 
HETATM   22  C   UNK N   1      27.343  13.855   4.254  0.00  0.00     0.007 C 
HETATM   23  C   UNK N   1      25.294  14.669   2.743  0.00  0.00    -0.017 C 
HETATM   24  C   UNK N   1      24.189  15.368   3.533  0.00  0.00     0.140 C 
HETATM   25  C   UNK N   1      25.022  13.182   2.569  0.00  0.00     0.018 C 
HETATM   26  C   UNK N   1      25.207  15.266   1.334  0.00  0.00     0.018 C 
HETATM   27  C   UNK N   1      24.429  16.895   3.687  0.00  0.00     0.034 C 
HETATM   28  C   UNK N   1      32.282  14.814   6.552  0.00  0.00     0.022 C 
HETATM   29  C   UNK N   1      33.009  17.688   8.778  0.00  0.00     0.011 C 
HETATM   30  C   UNK N   1      33.256  16.256   8.340  0.00  0.00     0.021 C 
BRANCH  24  31
HETATM   31  O   UNK N   1      23.925  14.770   4.741  0.00  0.00    -0.315 OA
BRANCH  31  32
HETATM   32  C   UNK N   1      22.659  14.511   5.161  0.00  0.00     0.260 C 
HETATM   33  O   UNK N   1      22.501  13.778   6.127  0.00  0.00    -0.265 OA
BRANCH  32  34
HETATM   34  C   UNK N   1      21.419  15.037   4.455  0.00  0.00     0.130 C 
BRANCH  34  35
HETATM   35  C   UNK N   1      20.593  16.170   5.109  0.00  0.00     0.047 C 
HETATM   36  C   UNK N   1      21.481  17.102   5.912  0.00  0.00     0.027 C 
HETATM   37  C   UNK N   1      20.040  17.009   3.970  0.00  0.00     0.027 C 
BRANCH  35  38
HETATM   38  C   UNK N   1      19.463  15.659   5.982  0.00  0.00     0.148 C 
HETATM   39  O   UNK N   1      18.301  15.868   5.669  0.00  0.00    -0.649 OA
BRANCH  38  40
HETATM   40  O   UNK N   1      19.724  14.948   7.097  0.00  0.00    -0.776 OA
HETATM   41  H   UNK N   1      19.022  14.675   7.655  0.00  0.00     0.167 HD
ENDBRANCH  38  40
ENDBRANCH  35  38
ENDBRANCH  34  35
ENDBRANCH  32  34
ENDBRANCH  31  32
ENDBRANCH  24  31
BRANCH   8  42
HETATM   42  C   UNK N   1      30.521  17.817   9.059  0.00  0.00    -0.088 C 
HETATM   43  C   UNK N   1      29.732  18.998   9.511  0.00  0.00     0.043 C 
HETATM   44  C   UNK N   1      30.222  16.609   9.535  0.00  0.00     0.014 C 
ENDBRANCH   8  42
ENDBRANCH   3   5
TORSDOF 8
ENDMDL
MODEL 2
REMARK VINA RESULT:      -8.0      2.618      3.513
REMARK  8 active torsions:
REMARK  status: ('A' for Active; 'I' for Inactive)
REMARK    1  A    between atoms: C_29  and  O_1 
REMARK    2  A    between atoms: O_1  and  C_37 
REMARK    3  A    between atoms: O_5  and  C_42 
REMARK    4  A    between atoms: C_14  and  C_31 
REMARK    5  A    between atoms: C_22  and  C_34 
REMARK    6  A    between atoms: C_37  and  C_38 
REMARK    7  A    between atoms: C_38  and  C_39 
REMARK    8  A    between atoms: C_39  and  C_42 
ROOT
HETATM    1  O   UNK N   1      33.026  17.123   3.135  0.00  0.00    -0.776 OA
HETATM    2  O   UNK N   1      33.724  15.023   3.180  0.00  0.00    -0.649 OA
HETATM    3  C   UNK N   1      33.089  15.913   3.725  0.00  0.00     0.149 C 
HETATM    4  H   UNK N   1      32.979  17.954   2.705  0.00  0.00     0.167 HD
ENDROOT
BRANCH   3   5
HETATM    5  C   UNK N   1      32.371  15.627   5.040  0.00  0.00     0.050 C 
HETATM    6  C   UNK N   1      31.327  16.714   5.475  0.00  0.00     0.017 C 
HETATM    7  C   UNK N   1      29.864  16.157   5.535  0.00  0.00     0.000 C 
HETATM    8  C   UNK N   1      31.915  17.416   6.711  0.00  0.00     0.019 C 
HETATM    9  C   UNK N   1      29.557  15.452   4.169  0.00  0.00    -0.032 C 
HETATM   10  C   UNK N   1      28.834  17.226   5.942  0.00  0.00     0.006 C 
HETATM   11  C   UNK N   1      28.068  14.992   4.083  0.00  0.00    -0.032 C 
HETATM   12  C   UNK N   1      30.511  14.241   3.986  0.00  0.00     0.011 C 
HETATM   13  C   UNK N   1      29.824  16.423   3.003  0.00  0.00     0.016 C 
HETATM   14  C   UNK N   1      27.079  16.218   4.337  0.00  0.00     0.003 C 
HETATM   15  C   UNK N   1      27.752  13.824   5.060  0.00  0.00     0.011 C 
HETATM   16  C   UNK N   1      27.842  14.404   2.673  0.00  0.00     0.016 C 
HETATM   17  C   UNK N   1      25.790  15.807   5.122  0.00  0.00    -0.035 C 
HETATM   18  C   UNK N   1      27.758  17.489   4.894  0.00  0.00     0.006 C 
HETATM   19  C   UNK N   1      25.316  14.459   4.491  0.00  0.00     0.004 C 
HETATM   20  C   UNK N   1      24.673  16.850   5.039  0.00  0.00     0.012 C 
HETATM   21  C   UNK N   1      26.111  15.657   6.627  0.00  0.00     0.016 C 
HETATM   22  C   UNK N   1      26.267  13.344   4.999  0.00  0.00     0.007 C 
HETATM   23  C   UNK N   1      23.774  14.203   4.562  0.00  0.00    -0.017 C 
HETATM   24  C   UNK N   1      23.135  14.873   5.777  0.00  0.00     0.140 C 
HETATM   25  C   UNK N   1      23.435  12.721   4.480  0.00  0.00     0.018 C 
HETATM   26  C   UNK N   1      23.087  14.844   3.352  0.00  0.00     0.018 C 
HETATM   27  C   UNK N   1      23.436  16.395   5.856  0.00  0.00     0.034 C 
HETATM   28  C   UNK N   1      31.725  14.239   4.934  0.00  0.00     0.022 C 
HETATM   29  C   UNK N   1      33.388  17.040   6.703  0.00  0.00     0.011 C 
HETATM   30  C   UNK N   1      33.401  15.624   6.158  0.00  0.00     0.021 C 
BRANCH  24  31
HETATM   31  O   UNK N   1      23.417  14.235   6.960  0.00  0.00    -0.315 OA
BRANCH  31  32
HETATM   32  C   UNK N   1      22.444  13.833   7.818  0.00  0.00     0.260 C 
HETATM   33  O   UNK N   1      21.301  13.728   7.399  0.00  0.00    -0.265 OA
BRANCH  32  34
HETATM   34  C   UNK N   1      22.690  13.561   9.293  0.00  0.00     0.130 C 
BRANCH  34  35
HETATM   35  C   UNK N   1      23.816  12.586   9.711  0.00  0.00     0.047 C 
HETATM   36  C   UNK N   1      23.813  11.341   8.844  0.00  0.00     0.027 C 
HETATM   37  C   UNK N   1      25.128  13.291   9.413  0.00  0.00     0.027 C 
BRANCH  35  38
HETATM   38  C   UNK N   1      23.753  12.191  11.175  0.00  0.00     0.148 C 
HETATM   39  O   UNK N   1      22.699  11.815  11.666  0.00  0.00    -0.649 OA
BRANCH  38  40
HETATM   40  O   UNK N   1      24.859  12.222  11.943  0.00  0.00    -0.776 OA
HETATM   41  H   UNK N   1      25.101  11.471  12.450  0.00  0.00     0.167 HD
ENDBRANCH  38  40
ENDBRANCH  35  38
ENDBRANCH  34  35
ENDBRANCH  32  34
ENDBRANCH  31  32
ENDBRANCH  24  31
BRANCH   8  42
HETATM   42  C   UNK N   1      31.275  17.155   8.048  0.00  0.00    -0.088 C 
HETATM   43  C   UNK N   1      30.562  18.277   8.723  0.00  0.00     0.043 C 
HETATM   44  C   UNK N   1      31.381  15.980   8.666  0.00  0.00     0.014 C 
ENDBRANCH   8  42
ENDBRANCH   3   5
TORSDOF 8
ENDMDL
MODEL 3
REMARK VINA RESULT:      -7.9     12.479     15.889
REMARK  8 active torsions:
REMARK  status: ('A' for Active; 'I' for Inactive)
REMARK    1  A    between atoms: C_29  and  O_1 
REMARK    2  A    between atoms: O_1  and  C_37 
REMARK    3  A    between atoms: O_5  and  C_42 
REMARK    4  A    between atoms: C_14  and  C_31 
REMARK    5  A    between atoms: C_22  and  C_34 
REMARK    6  A    between atoms: C_37  and  C_38 
REMARK    7  A    between atoms: C_38  and  C_39 
REMARK    8  A    between atoms: C_39  and  C_42 
ROOT
HETATM    1  O   UNK N   1      25.971  26.941  -2.329  0.00  0.00    -0.776 OA
HETATM    2  O   UNK N   1      27.173  28.098  -3.784  0.00  0.00    -0.649 OA
HETATM    3  C   UNK N   1      26.571  27.066  -3.529  0.00  0.00     0.149 C 
HETATM    4  H   UNK N   1      25.546  26.876  -1.497  0.00  0.00     0.167 HD
ENDROOT
BRANCH   3   5
HETATM    5  C   UNK N   1      26.498  25.960  -4.578  0.00  0.00     0.050 C 
HETATM    6  C   UNK N   1      27.541  26.081  -5.742  0.00  0.00     0.017 C 
HETATM    7  C   UNK N   1      28.549  24.882  -5.779  0.00  0.00     0.000 C 
HETATM    8  C   UNK N   1      26.743  26.430  -7.011  0.00  0.00     0.019 C 
HETATM    9  C   UNK N   1      29.168  24.727  -4.347  0.00  0.00    -0.032 C 
HETATM   10  C   UNK N   1      29.587  25.007  -6.908  0.00  0.00     0.006 C 
HETATM   11  C   UNK N   1      30.294  23.646  -4.323  0.00  0.00    -0.032 C 
HETATM   12  C   UNK N   1      28.047  24.366  -3.335  0.00  0.00     0.011 C 
HETATM   13  C   UNK N   1      29.782  26.064  -3.890  0.00  0.00     0.016 C 
HETATM   14  C   UNK N   1      31.417  23.973  -5.409  0.00  0.00     0.003 C 
HETATM   15  C   UNK N   1      29.738  22.209  -4.529  0.00  0.00     0.011 C 
HETATM   16  C   UNK N   1      30.905  23.639  -2.906  0.00  0.00     0.016 C 
HETATM   17  C   UNK N   1      32.011  22.688  -6.075  0.00  0.00    -0.035 C 
HETATM   18  C   UNK N   1      31.031  25.070  -6.425  0.00  0.00     0.006 C 
HETATM   19  C   UNK N   1      32.233  21.667  -4.914  0.00  0.00     0.004 C 
HETATM   20  C   UNK N   1      33.328  22.943  -6.813  0.00  0.00     0.012 C 
HETATM   21  C   UNK N   1      31.033  22.144  -7.142  0.00  0.00     0.016 C 
HETATM   22  C   UNK N   1      30.844  21.105  -4.514  0.00  0.00     0.007 C 
HETATM   23  C   UNK N   1      33.402  20.652  -5.142  0.00  0.00    -0.017 C 
HETATM   24  C   UNK N   1      33.627  20.355  -6.623  0.00  0.00     0.140 C 
HETATM   25  C   UNK N   1      33.225  19.382  -4.322  0.00  0.00     0.018 C 
HETATM   26  C   UNK N   1      34.720  21.267  -4.659  0.00  0.00     0.018 C 
HETATM   27  C   UNK N   1      33.849  21.639  -7.469  0.00  0.00     0.034 C 
HETATM   28  C   UNK N   1      26.619  24.613  -3.853  0.00  0.00     0.022 C 
HETATM   29  C   UNK N   1      25.392  26.902  -6.498  0.00  0.00     0.011 C 
HETATM   30  C   UNK N   1      25.147  26.045  -5.270  0.00  0.00     0.021 C 
BRANCH  24  31
HETATM   31  O   UNK N   1      32.658  19.547  -7.167  0.00  0.00    -0.315 OA
BRANCH  31  32
HETATM   32  C   UNK N   1      32.749  19.056  -8.430  0.00  0.00     0.260 C 
HETATM   33  O   UNK N   1      33.650  18.273  -8.691  0.00  0.00    -0.265 OA
BRANCH  32  34
HETATM   34  C   UNK N   1      31.821  19.474  -9.559  0.00  0.00     0.130 C 
BRANCH  34  35
HETATM   35  C   UNK N   1      30.476  18.735  -9.754  0.00  0.00     0.047 C 
HETATM   36  C   UNK N   1      29.784  18.496  -8.425  0.00  0.00     0.027 C 
HETATM   37  C   UNK N   1      29.572  19.684 -10.523  0.00  0.00     0.027 C 
BRANCH  35  38
HETATM   38  C   UNK N   1      30.617  17.423 -10.502  0.00  0.00     0.148 C 
HETATM   39  O   UNK N   1      30.031  17.251 -11.559  0.00  0.00    -0.649 OA
BRANCH  38  40
HETATM   40  O   UNK N   1      31.410  16.443 -10.026  0.00  0.00    -0.776 OA
HETATM   41  H   UNK N   1      31.806  15.830 -10.615  0.00  0.00     0.167 HD
ENDBRANCH  38  40
ENDBRANCH  35  38
ENDBRANCH  34  35
ENDBRANCH  32  34
ENDBRANCH  31  32
ENDBRANCH  24  31
BRANCH   8  42
HETATM   42  C   UNK N   1      26.603  25.374  -8.075  0.00  0.00    -0.088 C 
HETATM   43  C   UNK N   1      27.118  25.673  -9.441  0.00  0.00     0.043 C 
HETATM   44  C   UNK N   1      25.981  24.218  -7.848  0.00  0.00     0.014 C 
ENDBRANCH   8  42
ENDBRANCH   3   5
TORSDOF 8
ENDMDL
MODEL 4
REMARK VINA RESULT:      -7.4      4.959      8.438
REMARK  8 active torsions:
REMARK  status: ('A' for Active; 'I' for Inactive)
REMARK    1  A    between atoms: C_29  and  O_1 
REMARK    2  A    between atoms: O_1  and  C_37 
REMARK    3  A    between atoms: O_5  and  C_42 
REMARK    4  A    between atoms: C_14  and  C_31 
REMARK    5  A    between atoms: C_22  and  C_34 
REMARK    6  A    between atoms: C_37  and  C_38 
REMARK    7  A    between atoms: C_38  and  C_39 
REMARK    8  A    between atoms: C_39  and  C_42 
ROOT
HETATM    1  O   UNK N   1      39.070  10.531   9.882  0.00  0.00    -0.776 OA
HETATM    2  O   UNK N   1      38.103   8.550  10.086  0.00  0.00    -0.649 OA
HETATM    3  C   UNK N   1      38.039   9.756  10.272  0.00  0.00     0.149 C 
HETATM    4  H   UNK N   1      39.788  11.058   9.592  0.00  0.00     0.167 HD
ENDROOT
BRANCH   3   5
HETATM    5  C   UNK N   1      36.792  10.351  10.919  0.00  0.00     0.050 C 
HETATM    6  C   UNK N   1      36.892  11.876  11.271  0.00  0.00     0.017 C 
HETATM    7  C   UNK N   1      35.862  12.749  10.477  0.00  0.00     0.000 C 
HETATM    8  C   UNK N   1      36.930  11.970  12.807  0.00  0.00     0.019 C 
HETATM    9  C   UNK N   1      36.012  12.409   8.954  0.00  0.00    -0.032 C 
HETATM   10  C   UNK N   1      35.971  14.249  10.805  0.00  0.00     0.006 C 
HETATM   11  C   UNK N   1      35.124  13.338   8.068  0.00  0.00    -0.032 C 
HETATM   12  C   UNK N   1      35.643  10.919   8.718  0.00  0.00     0.011 C 
HETATM   13  C   UNK N   1      37.478  12.591   8.515  0.00  0.00     0.016 C 
HETATM   14  C   UNK N   1      35.448  14.874   8.354  0.00  0.00     0.003 C 
HETATM   15  C   UNK N   1      33.606  13.057   8.254  0.00  0.00     0.011 C 
HETATM   16  C   UNK N   1      35.415  12.994   6.592  0.00  0.00     0.016 C 
HETATM   17  C   UNK N   1      34.181  15.788   8.279  0.00  0.00    -0.035 C 
HETATM   18  C   UNK N   1      36.315  15.127   9.607  0.00  0.00     0.006 C 
HETATM   19  C   UNK N   1      33.386  15.314   7.021  0.00  0.00     0.004 C 
HETATM   20  C   UNK N   1      34.515  17.276   8.163  0.00  0.00     0.012 C 
HETATM   21  C   UNK N   1      33.348  15.646   9.574  0.00  0.00     0.016 C 
HETATM   22  C   UNK N   1      32.690  13.975   7.383  0.00  0.00     0.007 C 
HETATM   23  C   UNK N   1      32.531  16.424   6.324  0.00  0.00    -0.017 C 
HETATM   24  C   UNK N   1      32.056  17.489   7.309  0.00  0.00     0.140 C 
HETATM   25  C   UNK N   1      31.383  15.839   5.513  0.00  0.00     0.018 C 
HETATM   26  C   UNK N   1      33.397  17.183   5.312  0.00  0.00     0.018 C 
HETATM   27  C   UNK N   1      33.219  18.127   8.118  0.00  0.00     0.034 C 
HETATM   28  C   UNK N   1      35.599  10.064   9.998  0.00  0.00     0.022 C 
HETATM   29  C   UNK N   1      37.269  10.562  13.270  0.00  0.00     0.011 C 
HETATM   30  C   UNK N   1      36.575   9.667  12.260  0.00  0.00     0.021 C 
BRANCH  24  31
HETATM   31  O   UNK N   1      31.043  17.055   8.130  0.00  0.00    -0.315 OA
BRANCH  31  32
HETATM   32  C   UNK N   1      29.880  17.743   8.272  0.00  0.00     0.260 C 
HETATM   33  O   UNK N   1      29.853  18.695   9.038  0.00  0.00    -0.265 OA
BRANCH  32  34
HETATM   34  C   UNK N   1      28.587  17.353   7.574  0.00  0.00     0.130 C 
BRANCH  34  35
HETATM   35  C   UNK N   1      28.067  18.213   6.398  0.00  0.00     0.047 C 
HETATM   36  C   UNK N   1      29.098  18.306   5.289  0.00  0.00     0.027 C 
HETATM   37  C   UNK N   1      26.889  17.460   5.803  0.00  0.00     0.027 C 
BRANCH  35  38
HETATM   38  C   UNK N   1      27.641  19.607   6.819  0.00  0.00     0.148 C 
HETATM   39  O   UNK N   1      27.802  20.554   6.064  0.00  0.00    -0.649 OA
BRANCH  38  40
HETATM   40  O   UNK N   1      27.056  19.816   8.014  0.00  0.00    -0.776 OA
HETATM   41  H   UNK N   1      26.127  19.722   8.106  0.00  0.00     0.167 HD
ENDBRANCH  38  40
ENDBRANCH  35  38
ENDBRANCH  34  35
ENDBRANCH  32  34
ENDBRANCH  31  32
ENDBRANCH  24  31
BRANCH   8  42
HETATM   42  C   UNK N   1      35.720  12.519  13.514  0.00  0.00    -0.088 C 
HETATM   43  C   UNK N   1      35.855  13.807  14.251  0.00  0.00     0.043 C 
HETATM   44  C   UNK N   1      34.563  11.860  13.553  0.00  0.00     0.014 C 
ENDBRANCH   8  42
ENDBRANCH   3   5
TORSDOF 8
ENDMDL
MODEL 5
REMARK VINA RESULT:      -7.3      2.414      9.587
REMARK  8 active torsions:
REMARK  status: ('A' for Active; 'I' for Inactive)
REMARK    1  A    between atoms: C_29  and  O_1 
REMARK    2  A    between atoms: O_1  and  C_37 
REMARK    3  A    between atoms: O_5  and  C_42 
REMARK    4  A    between atoms: C_14  and  C_31 
REMARK    5  A    between atoms: C_22  and  C_34 
REMARK    6  A    between atoms: C_37  and  C_38 
REMARK    7  A    between atoms: C_38  and  C_39 
REMARK    8  A    between atoms: C_39  and  C_42 
ROOT
HETATM    1  O   UNK N   1      21.047  12.164   2.662  0.00  0.00    -0.776 OA
HETATM    2  O   UNK N   1      22.165  12.927   0.910  0.00  0.00    -0.649 OA
HETATM    3  C   UNK N   1      22.201  12.369   1.997  0.00  0.00     0.149 C 
HETATM    4  H   UNK N   1      20.234  12.015   3.104  0.00  0.00     0.167 HD
ENDROOT
BRANCH   3   5
HETATM    5  C   UNK N   1      23.540  11.904   2.559  0.00  0.00     0.050 C 
HETATM    6  C   UNK N   1      24.799  12.593   1.928  0.00  0.00     0.017 C 
HETATM    7  C   UNK N   1      25.616  13.432   2.970  0.00  0.00     0.000 C 
HETATM    8  C   UNK N   1      25.521  11.515   1.101  0.00  0.00     0.019 C 
HETATM    9  C   UNK N   1      24.622  14.403   3.696  0.00  0.00    -0.032 C 
HETATM   10  C   UNK N   1      26.841  14.126   2.350  0.00  0.00     0.006 C 
HETATM   11  C   UNK N   1      25.372  15.382   4.653  0.00  0.00    -0.032 C 
HETATM   12  C   UNK N   1      23.570  13.574   4.483  0.00  0.00     0.011 C 
HETATM   13  C   UNK N   1      23.855  15.244   2.658  0.00  0.00     0.016 C 
HETATM   14  C   UNK N   1      26.501  16.189   3.866  0.00  0.00     0.003 C 
HETATM   15  C   UNK N   1      25.979  14.655   5.885  0.00  0.00     0.011 C 
HETATM   16  C   UNK N   1      24.326  16.355   5.238  0.00  0.00     0.016 C 
HETATM   17  C   UNK N   1      27.777  16.451   4.732  0.00  0.00    -0.035 C 
HETATM   18  C   UNK N   1      26.817  15.647   2.455  0.00  0.00     0.006 C 
HETATM   19  C   UNK N   1      27.258  16.883   6.140  0.00  0.00     0.004 C 
HETATM   20  C   UNK N   1      28.692  17.532   4.152  0.00  0.00     0.012 C 
HETATM   21  C   UNK N   1      28.639  15.169   4.805  0.00  0.00     0.016 C 
HETATM   22  C   UNK N   1      26.740  15.610   6.860  0.00  0.00     0.007 C 
HETATM   23  C   UNK N   1      28.211  17.840   6.930  0.00  0.00    -0.017 C 
HETATM   24  C   UNK N   1      29.678  17.620   6.569  0.00  0.00     0.140 C 
HETATM   25  C   UNK N   1      27.973  17.774   8.432  0.00  0.00     0.018 C 
HETATM   26  C   UNK N   1      27.923  19.294   6.538  0.00  0.00     0.018 C 
HETATM   27  C   UNK N   1      29.946  17.724   5.042  0.00  0.00     0.034 C 
HETATM   28  C   UNK N   1      23.503  12.088   4.082  0.00  0.00     0.022 C 
HETATM   29  C   UNK N   1      24.492  10.409   0.929  0.00  0.00     0.011 C 
HETATM   30  C   UNK N   1      23.712  10.430   2.231  0.00  0.00     0.021 C 
BRANCH  24  31
HETATM   31  O   UNK N   1      30.200  16.466   7.100  0.00  0.00    -0.315 OA
BRANCH  31  32
HETATM   32  C   UNK N   1      31.410  16.433   7.716  0.00  0.00     0.260 C 
HETATM   33  O   UNK N   1      31.647  17.257   8.587  0.00  0.00    -0.265 OA
BRANCH  32  34
HETATM   34  C   UNK N   1      32.515  15.460   7.337  0.00  0.00     0.130 C 
BRANCH  34  35
HETATM   35  C   UNK N   1      33.437  15.783   6.138  0.00  0.00     0.047 C 
HETATM   36  C   UNK N   1      34.699  14.942   6.174  0.00  0.00     0.027 C 
HETATM   37  C   UNK N   1      32.688  15.345   4.891  0.00  0.00     0.027 C 
BRANCH  35  38
HETATM   38  C   UNK N   1      33.803  17.252   6.042  0.00  0.00     0.148 C 
HETATM   39  O   UNK N   1      34.521  17.763   6.887  0.00  0.00    -0.649 OA
BRANCH  38  40
HETATM   40  O   UNK N   1      33.365  18.004   5.013  0.00  0.00    -0.776 OA
HETATM   41  H   UNK N   1      32.961  18.834   5.175  0.00  0.00     0.167 HD
ENDBRANCH  38  40
ENDBRANCH  35  38
ENDBRANCH  34  35
ENDBRANCH  32  34
ENDBRANCH  31  32
ENDBRANCH  24  31
BRANCH   8  42
HETATM   42  C   UNK N   1      26.834  10.987   1.614  0.00  0.00    -0.088 C 
HETATM   43  C   UNK N   1      28.047  11.159   0.765  0.00  0.00     0.043 C 
HETATM   44  C   UNK N   1      26.928  10.321   2.764  0.00  0.00     0.014 C 
ENDBRANCH   8  42
ENDBRANCH   3   5
TORSDOF 8
ENDMDL
MODEL 6
REMARK VINA RESULT:      -7.3      2.623      4.611
REMARK  8 active torsions:
REMARK  status: ('A' for Active; 'I' for Inactive)
REMARK    1  A    between atoms: C_29  and  O_1 
REMARK    2  A    between atoms: O_1  and  C_37 
REMARK    3  A    between atoms: O_5  and  C_42 
REMARK    4  A    between atoms: C_14  and  C_31 
REMARK    5  A    between atoms: C_22  and  C_34 
REMARK    6  A    between atoms: C_37  and  C_38 
REMARK    7  A    between atoms: C_38  and  C_39 
REMARK    8  A    between atoms: C_39  and  C_42 
ROOT
HETATM    1  O   UNK N   1      30.622  17.814   4.179  0.00  0.00    -0.776 OA
HETATM    2  O   UNK N   1      30.556  17.070   6.263  0.00  0.00    -0.649 OA
HETATM    3  C   UNK N   1      29.944  17.520   5.305  0.00  0.00     0.149 C 
HETATM    4  H   UNK N   1      31.106  17.999   3.398  0.00  0.00     0.167 HD
ENDROOT
BRANCH   3   5
HETATM    5  C   UNK N   1      28.434  17.716   5.403  0.00  0.00     0.050 C 
HETATM    6  C   UNK N   1      27.690  17.826   4.027  0.00  0.00     0.017 C 
HETATM    7  C   UNK N   1      26.670  16.660   3.795  0.00  0.00     0.000 C 
HETATM    8  C   UNK N   1      27.207  19.282   3.905  0.00  0.00     0.019 C 
HETATM    9  C   UNK N   1      27.420  15.305   4.036  0.00  0.00    -0.032 C 
HETATM   10  C   UNK N   1      25.952  16.754   2.436  0.00  0.00     0.006 C 
HETATM   11  C   UNK N   1      26.519  14.080   3.686  0.00  0.00    -0.032 C 
HETATM   12  C   UNK N   1      27.890  15.230   5.514  0.00  0.00     0.011 C 
HETATM   13  C   UNK N   1      28.681  15.237   3.153  0.00  0.00     0.016 C 
HETATM   14  C   UNK N   1      25.976  14.184   2.190  0.00  0.00     0.003 C 
HETATM   15  C   UNK N   1      25.339  13.910   4.684  0.00  0.00     0.011 C 
HETATM   16  C   UNK N   1      27.374  12.806   3.859  0.00  0.00     0.016 C 
HETATM   17  C   UNK N   1      24.520  13.634   2.031  0.00  0.00    -0.035 C 
HETATM   18  C   UNK N   1      26.190  15.559   1.520  0.00  0.00     0.006 C 
HETATM   19  C   UNK N   1      24.470  12.309   2.855  0.00  0.00     0.004 C 
HETATM   20  C   UNK N   1      24.130  13.366   0.576  0.00  0.00     0.012 C 
HETATM   21  C   UNK N   1      23.501  14.675   2.552  0.00  0.00     0.016 C 
HETATM   22  C   UNK N   1      24.415  12.693   4.357  0.00  0.00     0.007 C 
HETATM   23  C   UNK N   1      23.454  11.242   2.330  0.00  0.00    -0.017 C 
HETATM   24  C   UNK N   1      22.257  11.882   1.630  0.00  0.00     0.140 C 
HETATM   25  C   UNK N   1      23.028  10.269   3.420  0.00  0.00     0.018 C 
HETATM   26  C   UNK N   1      24.122  10.378   1.254  0.00  0.00     0.018 C 
HETATM   27  C   UNK N   1      22.671  12.848   0.486  0.00  0.00     0.034 C 
HETATM   28  C   UNK N   1      27.864  16.577   6.259  0.00  0.00     0.022 C 
HETATM   29  C   UNK N   1      28.009  20.042   4.950  0.00  0.00     0.011 C 
HETATM   30  C   UNK N   1      28.166  19.047   6.085  0.00  0.00     0.021 C 
BRANCH  24  31
HETATM   31  O   UNK N   1      21.372  12.472   2.500  0.00  0.00    -0.315 OA
BRANCH  31  32
HETATM   32  C   UNK N   1      20.324  13.223   2.072  0.00  0.00     0.260 C 
HETATM   33  O   UNK N   1      19.704  12.854   1.086  0.00  0.00    -0.265 OA
BRANCH  32  34
HETATM   34  C   UNK N   1      19.916  14.536   2.719  0.00  0.00     0.130 C 
BRANCH  34  35
HETATM   35  C   UNK N   1      19.525  14.559   4.216  0.00  0.00     0.047 C 
HETATM   36  C   UNK N   1      18.674  13.357   4.579  0.00  0.00     0.027 C 
HETATM   37  C   UNK N   1      20.817  14.399   4.999  0.00  0.00     0.027 C 
BRANCH  35  38
HETATM   38  C   UNK N   1      18.814  15.834   4.630  0.00  0.00     0.148 C 
HETATM   39  O   UNK N   1      18.102  15.847   5.622  0.00  0.00    -0.649 OA
BRANCH  38  40
HETATM   40  O   UNK N   1      18.980  16.972   3.928  0.00  0.00    -0.776 OA
HETATM   41  H   UNK N   1      18.960  17.801   4.365  0.00  0.00     0.167 HD
ENDBRANCH  38  40
ENDBRANCH  35  38
ENDBRANCH  34  35
ENDBRANCH  32  34
ENDBRANCH  31  32
ENDBRANCH  24  31
BRANCH   8  42
HETATM   42  C   UNK N   1      25.731  19.553   4.024  0.00  0.00    -0.088 C 
HETATM   43  C   UNK N   1      25.044  20.236   2.891  0.00  0.00     0.043 C 
HETATM   44  C   UNK N   1      25.043  19.259   5.126  0.00  0.00     0.014 C 
ENDBRANCH   8  42
ENDBRANCH   3   5
TORSDOF 8
ENDMDL
MODEL 7
REMARK VINA RESULT:      -7.2      6.672     10.566
REMARK  8 active torsions:
REMARK  status: ('A' for Active; 'I' for Inactive)
REMARK    1  A    between atoms: C_29  and  O_1 
REMARK    2  A    between atoms: O_1  and  C_37 
REMARK    3  A    between atoms: O_5  and  C_42 
REMARK    4  A    between atoms: C_14  and  C_31 
REMARK    5  A    between atoms: C_22  and  C_34 
REMARK    6  A    between atoms: C_37  and  C_38 
REMARK    7  A    between atoms: C_38  and  C_39 
REMARK    8  A    between atoms: C_39  and  C_42 
ROOT
HETATM    1  O   UNK N   1      38.787   8.865  14.675  0.00  0.00    -0.776 OA
HETATM    2  O   UNK N   1      37.425   7.217  14.104  0.00  0.00    -0.649 OA
HETATM    3  C   UNK N   1      37.551   8.387  14.433  0.00  0.00     0.149 C 
HETATM    4  H   UNK N   1      39.655   9.188  14.824  0.00  0.00     0.167 HD
ENDROOT
BRANCH   3   5
HETATM    5  C   UNK N   1      36.315   9.275  14.540  0.00  0.00     0.050 C 
HETATM    6  C   UNK N   1      36.600  10.816  14.481  0.00  0.00     0.017 C 
HETATM    7  C   UNK N   1      35.944  11.505  13.237  0.00  0.00     0.000 C 
HETATM    8  C   UNK N   1      36.309  11.370  15.887  0.00  0.00     0.019 C 
HETATM    9  C   UNK N   1      36.368  10.703  11.959  0.00  0.00    -0.032 C 
HETATM   10  C   UNK N   1      36.237  13.014  13.165  0.00  0.00     0.006 C 
HETATM   11  C   UNK N   1      35.877  11.403  10.652  0.00  0.00    -0.032 C 
HETATM   12  C   UNK N   1      35.806   9.258  12.045  0.00  0.00     0.011 C 
HETATM   13  C   UNK N   1      37.903  10.592  11.892  0.00  0.00     0.016 C 
HETATM   14  C   UNK N   1      36.394  12.911  10.589  0.00  0.00     0.003 C 
HETATM   15  C   UNK N   1      34.331  11.349  10.498  0.00  0.00     0.011 C 
HETATM   16  C   UNK N   1      36.426  10.597   9.456  0.00  0.00     0.016 C 
HETATM   17  C   UNK N   1      35.356  13.883   9.936  0.00  0.00    -0.035 C 
HETATM   18  C   UNK N   1      36.989  13.445  11.910  0.00  0.00     0.006 C 
HETATM   19  C   UNK N   1      34.792  13.132   8.689  0.00  0.00     0.004 C 
HETATM   20  C   UNK N   1      35.963  15.223   9.516  0.00  0.00     0.012 C 
HETATM   21  C   UNK N   1      34.243  14.229  10.953  0.00  0.00     0.016 C 
HETATM   22  C   UNK N   1      33.809  12.046   9.201  0.00  0.00     0.007 C 
HETATM   23  C   UNK N   1      34.323  14.057   7.517  0.00  0.00    -0.017 C 
HETATM   24  C   UNK N   1      33.834  15.415   8.016  0.00  0.00     0.140 C 
HETATM   25  C   UNK N   1      33.301  13.373   6.620  0.00  0.00     0.018 C 
HETATM   26  C   UNK N   1      35.513  14.378   6.605  0.00  0.00     0.018 C 
HETATM   27  C   UNK N   1      34.880  16.147   8.901  0.00  0.00     0.034 C 
HETATM   28  C   UNK N   1      35.327   8.844  13.449  0.00  0.00     0.022 C 
HETATM   29  C   UNK N   1      36.284  10.144  16.786  0.00  0.00     0.011 C 
HETATM   30  C   UNK N   1      35.687   9.059  15.908  0.00  0.00     0.021 C 
BRANCH  24  31
HETATM   31  O   UNK N   1      32.603  15.358   8.624  0.00  0.00    -0.315 OA
BRANCH  31  32
HETATM   32  C   UNK N   1      31.658  16.316   8.441  0.00  0.00     0.260 C 
HETATM   33  O   UNK N   1      30.764  16.422   9.267  0.00  0.00    -0.265 OA
BRANCH  32  34
HETATM   34  C   UNK N   1      31.619  17.231   7.227  0.00  0.00     0.130 C 
BRANCH  34  35
HETATM   35  C   UNK N   1      30.595  16.957   6.100  0.00  0.00     0.047 C 
HETATM   36  C   UNK N   1      31.140  17.383   4.749  0.00  0.00     0.027 C 
HETATM   37  C   UNK N   1      30.436  15.449   6.021  0.00  0.00     0.027 C 
BRANCH  35  38
HETATM   38  C   UNK N   1      29.250  17.616   6.340  0.00  0.00     0.148 C 
HETATM   39  O   UNK N   1      28.788  18.390   5.516  0.00  0.00    -0.649 OA
BRANCH  38  40
HETATM   40  O   UNK N   1      28.536  17.335   7.448  0.00  0.00    -0.776 OA
HETATM   41  H   UNK N   1      28.638  17.859   8.219  0.00  0.00     0.167 HD
ENDBRANCH  38  40
ENDBRANCH  35  38
ENDBRANCH  34  35
ENDBRANCH  32  34
ENDBRANCH  31  32
ENDBRANCH  24  31
BRANCH   8  42
HETATM   42  C   UNK N   1      35.087  12.229  16.073  0.00  0.00    -0.088 C 
HETATM   43  C   UNK N   1      35.191  13.426  16.955  0.00  0.00     0.043 C 
HETATM   44  C   UNK N   1      33.913  11.917  15.528  0.00  0.00     0.014 C 
ENDBRANCH   8  42
ENDBRANCH   3   5
TORSDOF 8
ENDMDL
MODEL 8
REMARK VINA RESULT:      -7.2     13.233     16.269
REMARK  8 active torsions:
REMARK  status: ('A' for Active; 'I' for Inactive)
REMARK    1  A    between atoms: C_29  and  O_1 
REMARK    2  A    between atoms: O_1  and  C_37 
REMARK    3  A    between atoms: O_5  and  C_42 
REMARK    4  A    between atoms: C_14  and  C_31 
REMARK    5  A    between atoms: C_22  and  C_34 
REMARK    6  A    between atoms: C_37  and  C_38 
REMARK    7  A    between atoms: C_38  and  C_39 
REMARK    8  A    between atoms: C_39  and  C_42 
ROOT
HETATM    1  O   UNK N   1      24.437  28.051  -4.843  0.00  0.00    -0.776 OA
HETATM    2  O   UNK N   1      25.548  27.793  -2.946  0.00  0.00    -0.649 OA
HETATM    3  C   UNK N   1      25.590  27.902  -4.162  0.00  0.00     0.149 C 
HETATM    4  H   UNK N   1      23.628  28.170  -5.302  0.00  0.00     0.167 HD
ENDROOT
BRANCH   3   5
HETATM    5  C   UNK N   1      26.941  27.888  -4.871  0.00  0.00     0.050 C 
HETATM    6  C   UNK N   1      28.041  27.008  -4.183  0.00  0.00     0.017 C 
HETATM    7  C   UNK N   1      28.511  25.815  -5.083  0.00  0.00     0.000 C 
HETATM    8  C   UNK N   1      29.091  27.981  -3.618  0.00  0.00     0.019 C 
HETATM    9  C   UNK N   1      27.237  25.033  -5.556  0.00  0.00    -0.032 C 
HETATM   10  C   UNK N   1      29.577  24.937  -4.403  0.00  0.00     0.006 C 
HETATM   11  C   UNK N   1      27.616  23.739  -6.341  0.00  0.00    -0.032 C 
HETATM   12  C   UNK N   1      26.356  25.963  -6.434  0.00  0.00     0.011 C 
HETATM   13  C   UNK N   1      26.390  24.620  -4.337  0.00  0.00     0.016 C 
HETATM   14  C   UNK N   1      28.577  22.808  -5.471  0.00  0.00     0.003 C 
HETATM   15  C   UNK N   1      28.261  24.052  -7.720  0.00  0.00     0.011 C 
HETATM   16  C   UNK N   1      26.306  22.994  -6.673  0.00  0.00     0.016 C 
HETATM   17  C   UNK N   1      29.653  22.070  -6.334  0.00  0.00    -0.035 C 
HETATM   18  C   UNK N   1      29.159  23.484  -4.209  0.00  0.00     0.006 C 
HETATM   19  C   UNK N   1      28.904  21.554  -7.603  0.00  0.00     0.004 C 
HETATM   20  C   UNK N   1      30.318  20.902  -5.602  0.00  0.00     0.012 C 
HETATM   21  C   UNK N   1      30.799  23.042  -6.697  0.00  0.00     0.016 C 
HETATM   22  C   UNK N   1      28.656  22.774  -8.529  0.00  0.00     0.007 C 
HETATM   23  C   UNK N   1      29.500  20.255  -8.240  0.00  0.00    -0.017 C 
HETATM   24  C   UNK N   1      31.004  20.135  -8.003  0.00  0.00     0.140 C 
HETATM   25  C   UNK N   1      29.139  20.120  -9.712  0.00  0.00     0.018 C 
HETATM   26  C   UNK N   1      28.895  19.022  -7.559  0.00  0.00     0.018 C 
HETATM   27  C   UNK N   1      31.388  20.230  -6.500  0.00  0.00     0.034 C 
HETATM   28  C   UNK N   1      26.706  27.459  -6.326  0.00  0.00     0.022 C 
HETATM   29  C   UNK N   1      28.397  29.334  -3.612  0.00  0.00     0.011 C 
HETATM   30  C   UNK N   1      27.512  29.297  -4.844  0.00  0.00     0.021 C 
BRANCH  24  31
HETATM   31  O   UNK N   1      31.744  20.998  -8.774  0.00  0.00    -0.315 OA
BRANCH  31  32
HETATM   32  C   UNK N   1      32.832  20.589  -9.478  0.00  0.00     0.260 C 
HETATM   33  O   UNK N   1      33.828  21.297  -9.481  0.00  0.00    -0.265 OA
BRANCH  32  34
HETATM   34  C   UNK N   1      32.857  19.322 -10.318  0.00  0.00     0.130 C 
BRANCH  34  35
HETATM   35  C   UNK N   1      33.385  18.007  -9.697  0.00  0.00     0.047 C 
HETATM   36  C   UNK N   1      34.524  17.432 -10.517  0.00  0.00     0.027 C 
HETATM   37  C   UNK N   1      33.992  18.379  -8.355  0.00  0.00     0.027 C 
BRANCH  35  38
HETATM   38  C   UNK N   1      32.306  16.957  -9.512  0.00  0.00     0.148 C 
HETATM   39  O   UNK N   1      31.137  17.229  -9.739  0.00  0.00    -0.649 OA
BRANCH  38  40
HETATM   40  O   UNK N   1      32.623  15.706  -9.123  0.00  0.00    -0.776 OA
HETATM   41  H   UNK N   1      32.043  14.994  -9.310  0.00  0.00     0.167 HD
ENDBRANCH  38  40
ENDBRANCH  35  38
ENDBRANCH  34  35
ENDBRANCH  32  34
ENDBRANCH  31  32
ENDBRANCH  24  31
BRANCH   8  42
HETATM   42  C   UNK N   1      30.437  28.043  -4.289  0.00  0.00    -0.088 C 
HETATM   43  C   UNK N   1      31.646  27.717  -3.482  0.00  0.00     0.043 C 
HETATM   44  C   UNK N   1      30.580  28.437  -5.554  0.00  0.00     0.014 C 
ENDBRANCH   8  42
ENDBRANCH   3   5
TORSDOF 8
ENDMDL
MODEL 9
REMARK VINA RESULT:      -7.1      8.486     13.304
REMARK  8 active torsions:
REMARK  status: ('A' for Active; 'I' for Inactive)
REMARK    1  A    between atoms: C_29  and  O_1 
REMARK    2  A    between atoms: O_1  and  C_37 
REMARK    3  A    between atoms: O_5  and  C_42 
REMARK    4  A    between atoms: C_14  and  C_31 
REMARK    5  A    between atoms: C_22  and  C_34 
REMARK    6  A    between atoms: C_37  and  C_38 
REMARK    7  A    between atoms: C_38  and  C_39 
REMARK    8  A    between atoms: C_39  and  C_42 
ROOT
HETATM    1  O   UNK N   1      37.687   8.614  18.486  0.00  0.00    -0.776 OA
HETATM    2  O   UNK N   1      35.945   7.275  18.217  0.00  0.00    -0.649 OA
HETATM    3  C   UNK N   1      36.416   8.395  18.094  0.00  0.00     0.149 C 
HETATM    4  H   UNK N   1      38.577   8.746  18.749  0.00  0.00     0.167 HD
ENDROOT
BRANCH   3   5
HETATM    5  C   UNK N   1      35.567   9.505  17.483  0.00  0.00     0.050 C 
HETATM    6  C   UNK N   1      36.368  10.764  17.002  0.00  0.00     0.017 C 
HETATM    7  C   UNK N   1      36.262  10.995  15.456  0.00  0.00     0.000 C 
HETATM    8  C   UNK N   1      35.999  11.911  17.959  0.00  0.00     0.019 C 
HETATM    9  C   UNK N   1      36.642   9.653  14.739  0.00  0.00    -0.032 C 
HETATM   10  C   UNK N   1      37.064  12.218  14.978  0.00  0.00     0.006 C 
HETATM   11  C   UNK N   1      36.704   9.828  13.190  0.00  0.00    -0.032 C 
HETATM   12  C   UNK N   1      35.614   8.554  15.121  0.00  0.00     0.011 C 
HETATM   13  C   UNK N   1      38.024   9.172  15.221  0.00  0.00     0.016 C 
HETATM   14  C   UNK N   1      37.708  11.003  12.792  0.00  0.00     0.003 C 
HETATM   15  C   UNK N   1      35.302  10.074  12.566  0.00  0.00     0.011 C 
HETATM   16  C   UNK N   1      37.180   8.489  12.587  0.00  0.00     0.016 C 
HETATM   17  C   UNK N   1      37.226  11.820  11.547  0.00  0.00    -0.035 C 
HETATM   18  C   UNK N   1      38.161  11.892  13.971  0.00  0.00     0.006 C 
HETATM   19  C   UNK N   1      36.712  10.765  10.517  0.00  0.00     0.004 C 
HETATM   20  C   UNK N   1      38.329  12.676  10.921  0.00  0.00     0.012 C 
HETATM   21  C   UNK N   1      36.114  12.810  11.962  0.00  0.00     0.016 C 
HETATM   22  C   UNK N   1      35.333  10.258  11.015  0.00  0.00     0.007 C 
HETATM   23  C   UNK N   1      36.843  11.190   9.016  0.00  0.00    -0.017 C 
HETATM   24  C   UNK N   1      36.756  12.703   8.836  0.00  0.00     0.140 C 
HETATM   25  C   UNK N   1      35.859  10.448   8.122  0.00  0.00     0.018 C 
HETATM   26  C   UNK N   1      38.233  10.810   8.492  0.00  0.00     0.018 C 
HETATM   27  C   UNK N   1      37.782  13.476   9.711  0.00  0.00     0.034 C 
HETATM   28  C   UNK N   1      34.741   8.896  16.343  0.00  0.00     0.022 C 
HETATM   29  C   UNK N   1      35.368  11.223  19.159  0.00  0.00     0.011 C 
HETATM   30  C   UNK N   1      34.633  10.040  18.557  0.00  0.00     0.021 C 
BRANCH  24  31
HETATM   31  O   UNK N   1      35.483  13.196   8.989  0.00  0.00    -0.315 OA
BRANCH  31  32
HETATM   32  C   UNK N   1      34.889  13.976   8.049  0.00  0.00     0.260 C 
HETATM   33  O   UNK N   1      34.319  13.435   7.113  0.00  0.00    -0.265 OA
BRANCH  32  34
HETATM   34  C   UNK N   1      34.946  15.495   8.065  0.00  0.00     0.130 C 
BRANCH  34  35
HETATM   35  C   UNK N   1      34.248  16.272   9.206  0.00  0.00     0.047 C 
HETATM   36  C   UNK N   1      35.213  16.564  10.341  0.00  0.00     0.027 C 
HETATM   37  C   UNK N   1      33.867  17.626   8.633  0.00  0.00     0.027 C 
BRANCH  35  38
HETATM   38  C   UNK N   1      33.020  15.566   9.747  0.00  0.00     0.148 C 
HETATM   39  O   UNK N   1      31.988  15.539   9.094  0.00  0.00    -0.649 OA
BRANCH  38  40
HETATM   40  O   UNK N   1      33.058  14.936  10.938  0.00  0.00    -0.776 OA
HETATM   41  H   UNK N   1      33.068  14.000  10.975  0.00  0.00     0.167 HD
ENDBRANCH  38  40
ENDBRANCH  35  38
ENDBRANCH  34  35
ENDBRANCH  32  34
ENDBRANCH  31  32
ENDBRANCH  24  31
BRANCH   8  42
HETATM   42  C   UNK N   1      35.135  13.026  17.433  0.00  0.00    -0.088 C 
HETATM   43  C   UNK N   1      35.312  14.390  18.007  0.00  0.00     0.043 C 
HETATM   44  C   UNK N   1      34.185  12.816  16.523  0.00  0.00     0.014 C 
ENDBRANCH   8  42
ENDBRANCH   3   5
TORSDOF 8
ENDMDL
