MODEL 1
REMARK VINA RESULT:      -8.3      0.000      0.000
REMARK  10 active torsions:
REMARK  status: ('A' for Active; 'I' for Inactive)
REMARK    1  A    between atoms: C_32  and  C_11 
REMARK    2  A    between atoms: C_18  and  C_14 
REMARK    3  A    between atoms: C_15  and  C_28 
REMARK    4  A    between atoms: O_53  and  C_18 
REMARK    5  A    between atoms: C_31  and  N_47 
REMARK    6  A    between atoms: C_35  and  O_50 
REMARK    7  A    between atoms: C_37  and  O_56 
REMARK    8  A    between atoms: C_39  and  O_56 
REMARK    9  A    between atoms: O_52  and  C_40 
REMARK   10  A    between atoms: C_41  and  O_53 
ROOT
HETATM    1  C   UNK N   1      28.758  12.294   4.967  0.00  0.00     0.018 C 
HETATM    2  C   UNK N   1      31.889  15.963   4.745  0.00  0.00     0.020 C 
HETATM    3  C   UNK N   1      27.658  19.133   5.300  0.00  0.00     0.020 C 
HETATM    4  C   UNK N   1      28.035  16.763   9.149  0.00  0.00     0.029 C 
HETATM    5  C   UNK N   1      28.560  16.728   3.626  0.00  0.00     0.049 C 
HETATM    6  C   UNK N   1      32.850  14.575   9.072  0.00  0.00     0.052 C 
HETATM    7  C   UNK N   1      28.199  14.724   5.194  0.00  0.00     0.052 C 
HETATM    8  C   UNK N   1      29.124  13.686   4.480  0.00  0.00     0.054 C 
HETATM    9  C   UNK N   1      31.173  14.924   5.604  0.00  0.00     0.077 C 
HETATM   10  C   UNK N   1      27.391  17.917   6.186  0.00  0.00     0.084 C 
HETATM   11  C   UNK N   1      28.800  17.828   8.382  0.00  0.00     0.151 C 
HETATM   12  C   UNK N   1      32.254  16.727   7.902  0.00  0.00     0.168 C 
HETATM   13  C   UNK N   1      30.607  13.881   4.674  0.00  0.00     0.136 C 
HETATM   14  C   UNK N   1      28.674  17.645   6.879  0.00  0.00     0.146 C 
HETATM   15  C   UNK N   1      32.082  14.299   6.688  0.00  0.00     0.134 C 
HETATM   16  C   UNK N   1      26.656  16.797   5.380  0.00  0.00     0.169 C 
HETATM   17  C   UNK N   1      30.251  17.812   8.750  0.00  0.00     0.270 C 
HETATM   18  C   UNK N   1      34.268  14.328   6.335  0.00  0.00     0.259 C 
HETATM   19  C   UNK N   1      27.528  15.893   4.388  0.00  0.00     0.085 C 
HETATM   20  C   UNK N   1      32.801  15.278   7.714  0.00  0.00     0.115 C 
HETATM   21  N   UNK N   1      33.214  13.708   6.020  0.00  0.00    -0.342 N 
ATOM     22  HN  UNK N   1      33.172  12.907   5.388  1.00  0.00     0.164 HD
HETATM   23  O   UNK N   1      31.374  13.178   4.029  0.00  0.00    -0.297 OA
HETATM   24  O   UNK N   1      29.668  17.482   6.195  0.00  0.00    -0.297 OA
HETATM   25  O   UNK N   1      30.778  18.830   9.176  0.00  0.00    -0.264 OA
HETATM   26  O   UNK N   1      30.988  16.701   8.471  0.00  0.00    -0.312 OA
HETATM   27  O   UNK N   1      34.100  15.295   7.235  0.00  0.00    -0.301 OA
ENDROOT
BRANCH  19  28
HETATM   28  O   UNK N   1      26.568  15.384   3.492  0.00  0.00    -0.374 OA
BRANCH  28  29
HETATM   29  C   UNK N   1      26.920  15.316   2.140  0.00  0.00     0.196 C 
BRANCH  29  30
HETATM   30  C   UNK N   1      27.382  13.917   1.815  0.00  0.00     0.000 C 
HETATM   31  C   UNK N   1      26.598  12.820   1.752  0.00  0.00     0.011 C 
BRANCH  31  32
HETATM   32  C   UNK N   1      25.155  12.736   2.083  0.00  0.00    -0.020 A 
HETATM   33  C   UNK N   1      24.212  12.914   1.072  0.00  0.00     0.026 A 
HETATM   34  C   UNK N   1      22.852  12.907   1.393  0.00  0.00    -0.009 A 
HETATM   35  C   UNK N   1      21.890  13.128   0.410  0.00  0.00     0.014 A 
HETATM   36  C   UNK N   1      22.453  12.699   2.731  0.00  0.00     0.042 A 
HETATM   37  C   UNK N   1      20.535  13.147   0.757  0.00  0.00     0.001 A 
HETATM   38  C   UNK N   1      20.143  12.942   2.085  0.00  0.00     0.002 A 
HETATM   39  C   UNK N   1      21.103  12.717   3.071  0.00  0.00     0.030 A 
HETATM   40  N   UNK N   1      23.383  12.494   3.687  0.00  0.00    -0.364 N 
HETATM   41  C   UNK N   1      24.701  12.512   3.384  0.00  0.00     0.099 A 
ATOM     42  HN  UNK N   1      23.089  12.324   4.648  1.00  0.00     0.165 HD
ENDBRANCH  31  32
ENDBRANCH  29  30
ENDBRANCH  28  29
ENDBRANCH  19  28
BRANCH  16  43
HETATM   43  O   UNK N   1      25.581  17.390   4.628  0.00  0.00    -0.349 OA
BRANCH  43  44
HETATM   44  C   UNK N   1      24.210  17.125   4.988  0.00  0.00     0.291 C 
HETATM   45  C   UNK N   1      23.200  16.949   3.815  0.00  0.00     0.206 C 
HETATM   46  C   UNK N   1      21.747  16.741   4.375  0.00  0.00     0.257 C 
HETATM   47  C   UNK N   1      21.723  15.773   5.566  0.00  0.00     0.070 C 
HETATM   48  C   UNK N   1      23.088  15.171   5.860  0.00  0.00     0.122 C 
HETATM   49  C   UNK N   1      22.988  14.347   7.127  0.00  0.00     0.040 C 
HETATM   50  O   UNK N   1      24.085  16.172   6.051  0.00  0.00    -0.354 OA
BRANCH  45  51
HETATM   51  O   UNK N   1      23.543  15.823   3.064  0.00  0.00    -0.388 OA
HETATM   52  H   UNK N   1      23.094  14.998   2.818  0.00  0.00     0.210 HD
ENDBRANCH  45  51
BRANCH  46  53
HETATM   53  N   UNK N   1      21.008  17.965   4.755  0.00  0.00     0.087 N 
HETATM   54  C   UNK N   1      21.320  19.084   3.879  0.00  0.00     0.310 C 
HETATM   55  C   UNK N   1      21.175  18.382   6.141  0.00  0.00     0.310 C 
ENDBRANCH  46  53
ENDBRANCH  43  44
ENDBRANCH  16  43
BRANCH  12  56
HETATM   56  C   UNK N   1      33.238  17.627   8.680  0.00  0.00     0.031 C 
HETATM   57  C   UNK N   1      34.183  18.433   7.807  0.00  0.00     0.007 C 
ENDBRANCH  12  56
BRANCH  18  58
HETATM   58  O   UNK N   1      35.473  14.017   5.807  0.00  0.00    -0.327 OA
HETATM   59  H   UNK N   1      35.651  13.859   4.902  0.00  0.00     0.221 HD
ENDBRANCH  18  58
TORSDOF 10
ENDMDL
MODEL 2
REMARK VINA RESULT:      -8.1      1.243      2.048
REMARK  10 active torsions:
REMARK  status: ('A' for Active; 'I' for Inactive)
REMARK    1  A    between atoms: C_32  and  C_11 
REMARK    2  A    between atoms: C_18  and  C_14 
REMARK    3  A    between atoms: C_15  and  C_28 
REMARK    4  A    between atoms: O_53  and  C_18 
REMARK    5  A    between atoms: C_31  and  N_47 
REMARK    6  A    between atoms: C_35  and  O_50 
REMARK    7  A    between atoms: C_37  and  O_56 
REMARK    8  A    between atoms: C_39  and  O_56 
REMARK    9  A    between atoms: O_52  and  C_40 
REMARK   10  A    between atoms: C_41  and  O_53 
ROOT
HETATM    1  C   UNK N   1      28.827  12.025   4.548  0.00  0.00     0.018 C 
HETATM    2  C   UNK N   1      31.587  15.985   4.430  0.00  0.00     0.020 C 
HETATM    3  C   UNK N   1      27.037  18.725   4.652  0.00  0.00     0.020 C 
HETATM    4  C   UNK N   1      27.406  16.472   8.572  0.00  0.00     0.029 C 
HETATM    5  C   UNK N   1      28.275  16.393   3.094  0.00  0.00     0.049 C 
HETATM    6  C   UNK N   1      32.409  14.776   8.838  0.00  0.00     0.052 C 
HETATM    7  C   UNK N   1      28.017  14.391   4.684  0.00  0.00     0.052 C 
HETATM    8  C   UNK N   1      29.083  13.438   4.051  0.00  0.00     0.054 C 
HETATM    9  C   UNK N   1      30.926  14.895   5.267  0.00  0.00     0.077 C 
HETATM   10  C   UNK N   1      26.837  17.503   5.549  0.00  0.00     0.084 C 
HETATM   11  C   UNK N   1      28.108  17.595   7.828  0.00  0.00     0.151 C 
HETATM   12  C   UNK N   1      31.677  16.836   7.584  0.00  0.00     0.168 C 
HETATM   13  C   UNK N   1      30.524  13.784   4.330  0.00  0.00     0.136 C 
HETATM   14  C   UNK N   1      28.095  17.373   6.325  0.00  0.00     0.146 C 
HETATM   15  C   UNK N   1      31.821  14.382   6.419  0.00  0.00     0.134 C 
HETATM   16  C   UNK N   1      26.269  16.302   4.727  0.00  0.00     0.169 C 
HETATM   17  C   UNK N   1      29.528  17.730   8.283  0.00  0.00     0.270 C 
HETATM   18  C   UNK N   1      34.012  14.624   6.198  0.00  0.00     0.259 C 
HETATM   19  C   UNK N   1      27.285  15.472   3.811  0.00  0.00     0.085 C 
HETATM   20  C   UNK N   1      32.375  15.446   7.463  0.00  0.00     0.115 C 
HETATM   21  N   UNK N   1      33.047  13.896   5.835  0.00  0.00    -0.342 N 
ATOM     22  HN  UNK N   1      33.123  13.084   5.220  1.00  0.00     0.164 HD
HETATM   23  O   UNK N   1      31.396  13.150   3.749  0.00  0.00    -0.297 OA
HETATM   24  O   UNK N   1      29.141  17.299   5.706  0.00  0.00    -0.297 OA
HETATM   25  O   UNK N   1      29.924  18.803   8.716  0.00  0.00    -0.264 OA
HETATM   26  O   UNK N   1      30.387  16.693   8.076  0.00  0.00    -0.312 OA
HETATM   27  O   UNK N   1      33.694  15.585   7.064  0.00  0.00    -0.301 OA
ENDROOT
BRANCH  19  28
HETATM   28  O   UNK N   1      26.438  14.854   2.871  0.00  0.00    -0.374 OA
BRANCH  28  29
HETATM   29  C   UNK N   1      25.851  13.637   3.235  0.00  0.00     0.196 C 
BRANCH  29  30
HETATM   30  C   UNK N   1      26.004  12.652   2.103  0.00  0.00     0.000 C 
HETATM   31  C   UNK N   1      25.080  12.387   1.156  0.00  0.00     0.011 C 
BRANCH  31  32
HETATM   32  C   UNK N   1      23.699  12.921   1.083  0.00  0.00    -0.020 A 
HETATM   33  C   UNK N   1      22.630  12.035   0.968  0.00  0.00     0.026 A 
HETATM   34  C   UNK N   1      21.333  12.536   0.827  0.00  0.00    -0.009 A 
HETATM   35  C   UNK N   1      20.251  11.674   0.664  0.00  0.00     0.014 A 
HETATM   36  C   UNK N   1      21.124  13.933   0.825  0.00  0.00     0.042 A 
HETATM   37  C   UNK N   1      18.966  12.198   0.495  0.00  0.00     0.001 A 
HETATM   38  C   UNK N   1      18.762  13.582   0.490  0.00  0.00     0.002 A 
HETATM   39  C   UNK N   1      19.841  14.449   0.657  0.00  0.00     0.030 A 
HETATM   40  N   UNK N   1      22.171  14.771   0.972  0.00  0.00    -0.364 N 
HETATM   41  C   UNK N   1      23.428  14.291   1.098  0.00  0.00     0.099 A 
ATOM     42  HN  UNK N   1      22.011  15.778   0.990  1.00  0.00     0.165 HD
ENDBRANCH  31  32
ENDBRANCH  29  30
ENDBRANCH  28  29
ENDBRANCH  19  28
BRANCH  16  43
HETATM   43  O   UNK N   1      25.188  16.771   3.897  0.00  0.00    -0.349 OA
BRANCH  43  44
HETATM   44  C   UNK N   1      23.822  16.473   4.247  0.00  0.00     0.291 C 
HETATM   45  C   UNK N   1      23.373  16.841   5.692  0.00  0.00     0.206 C 
HETATM   46  C   UNK N   1      21.889  16.386   5.934  0.00  0.00     0.257 C 
HETATM   47  C   UNK N   1      20.985  16.714   4.737  0.00  0.00     0.070 C 
HETATM   48  C   UNK N   1      21.712  17.486   3.647  0.00  0.00     0.122 C 
HETATM   49  C   UNK N   1      20.782  17.637   2.462  0.00  0.00     0.040 C 
HETATM   50  O   UNK N   1      22.892  16.814   3.212  0.00  0.00    -0.354 OA
BRANCH  45  51
HETATM   51  O   UNK N   1      23.438  18.225   5.866  0.00  0.00    -0.388 OA
HETATM   52  H   UNK N   1      22.817  18.962   5.753  0.00  0.00     0.210 HD
ENDBRANCH  45  51
BRANCH  46  53
HETATM   53  N   UNK N   1      21.688  14.966   6.293  0.00  0.00     0.087 N 
HETATM   54  C   UNK N   1      20.288  14.662   6.550  0.00  0.00     0.310 C 
HETATM   55  C   UNK N   1      22.492  14.490   7.411  0.00  0.00     0.310 C 
ENDBRANCH  46  53
ENDBRANCH  43  44
ENDBRANCH  16  43
BRANCH  12  56
HETATM   56  C   UNK N   1      32.517  17.844   8.399  0.00  0.00     0.031 C 
HETATM   57  C   UNK N   1      33.793  18.301   7.716  0.00  0.00     0.007 C 
ENDBRANCH  12  56
BRANCH  18  58
HETATM   58  O   UNK N   1      35.272  14.426   5.752  0.00  0.00    -0.327 OA
HETATM   59  H   UNK N   1      35.568  13.691   5.252  0.00  0.00     0.221 HD
ENDBRANCH  18  58
TORSDOF 10
ENDMDL
MODEL 3
REMARK VINA RESULT:      -8.1      3.239     11.719
REMARK  10 active torsions:
REMARK  status: ('A' for Active; 'I' for Inactive)
REMARK    1  A    between atoms: C_32  and  C_11 
REMARK    2  A    between atoms: C_18  and  C_14 
REMARK    3  A    between atoms: C_15  and  C_28 
REMARK    4  A    between atoms: O_53  and  C_18 
REMARK    5  A    between atoms: C_31  and  N_47 
REMARK    6  A    between atoms: C_35  and  O_50 
REMARK    7  A    between atoms: C_37  and  O_56 
REMARK    8  A    between atoms: C_39  and  O_56 
REMARK    9  A    between atoms: O_52  and  C_40 
REMARK   10  A    between atoms: C_41  and  O_53 
ROOT
HETATM    1  C   UNK N   1      30.805  16.422   9.114  0.00  0.00     0.018 C 
HETATM    2  C   UNK N   1      29.201  17.595   4.714  0.00  0.00     0.020 C 
HETATM    3  C   UNK N   1      33.699  15.427   2.890  0.00  0.00     0.020 C 
HETATM    4  C   UNK N   1      31.295  12.073   4.774  0.00  0.00     0.029 C 
HETATM    5  C   UNK N   1      32.776  17.413   5.036  0.00  0.00     0.049 C 
HETATM    6  C   UNK N   1      26.402  13.964   5.457  0.00  0.00     0.052 C 
HETATM    7  C   UNK N   1      31.943  15.907   6.944  0.00  0.00     0.052 C 
HETATM    8  C   UNK N   1      31.067  16.949   7.713  0.00  0.00     0.054 C 
HETATM    9  C   UNK N   1      29.221  16.583   5.855  0.00  0.00     0.077 C 
HETATM   10  C   UNK N   1      33.259  14.557   4.068  0.00  0.00     0.084 C 
HETATM   11  C   UNK N   1      31.205  13.017   3.587  0.00  0.00     0.151 C 
HETATM   12  C   UNK N   1      27.986  14.750   3.660  0.00  0.00     0.168 C 
HETATM   13  C   UNK N   1      29.743  17.291   7.080  0.00  0.00     0.136 C 
HETATM   14  C   UNK N   1      31.796  14.382   3.903  0.00  0.00     0.146 C 
HETATM   15  C   UNK N   1      27.846  15.924   6.110  0.00  0.00     0.134 C 
HETATM   16  C   UNK N   1      33.862  15.093   5.406  0.00  0.00     0.169 C 
HETATM   17  C   UNK N   1      29.784  13.196   3.153  0.00  0.00     0.270 C 
HETATM   18  C   UNK N   1      26.041  17.035   5.467  0.00  0.00     0.259 C 
HETATM   19  C   UNK N   1      33.172  16.368   6.082  0.00  0.00     0.085 C 
HETATM   20  C   UNK N   1      27.136  15.183   4.895  0.00  0.00     0.115 C 
HETATM   21  N   UNK N   1      26.902  16.977   6.389  0.00  0.00    -0.342 N 
ATOM     22  HN  UNK N   1      26.926  17.586   7.208  1.00  0.00     0.164 HD
HETATM   23  O   UNK N   1      29.082  18.197   7.570  0.00  0.00    -0.297 OA
HETATM   24  O   UNK N   1      31.108  15.384   3.814  0.00  0.00    -0.297 OA
HETATM   25  O   UNK N   1      29.469  12.944   1.998  0.00  0.00    -0.264 OA
HETATM   26  O   UNK N   1      28.898  13.767   4.016  0.00  0.00    -0.312 OA
HETATM   27  O   UNK N   1      26.159  16.094   4.531  0.00  0.00    -0.301 OA
ENDROOT
BRANCH  19  28
HETATM   28  O   UNK N   1      34.189  16.881   6.910  0.00  0.00    -0.374 OA
BRANCH  28  29
HETATM   29  C   UNK N   1      34.512  16.153   8.061  0.00  0.00     0.196 C 
BRANCH  29  30
HETATM   30  C   UNK N   1      34.657  17.100   9.226  0.00  0.00     0.000 C 
HETATM   31  C   UNK N   1      35.268  16.825  10.397  0.00  0.00     0.011 C 
BRANCH  31  32
HETATM   32  C   UNK N   1      35.829  15.520  10.824  0.00  0.00    -0.020 A 
HETATM   33  C   UNK N   1      35.102  14.721  11.706  0.00  0.00     0.026 A 
HETATM   34  C   UNK N   1      35.658  13.525  12.167  0.00  0.00    -0.009 A 
HETATM   35  C   UNK N   1      34.972  12.730  13.083  0.00  0.00     0.014 A 
HETATM   36  C   UNK N   1      36.938  13.134  11.718  0.00  0.00     0.042 A 
HETATM   37  C   UNK N   1      35.560  11.552  13.555  0.00  0.00     0.001 A 
HETATM   38  C   UNK N   1      36.830  11.168  13.110  0.00  0.00     0.002 A 
HETATM   39  C   UNK N   1      37.518  11.959  12.190  0.00  0.00     0.030 A 
HETATM   40  N   UNK N   1      37.608  13.907  10.838  0.00  0.00    -0.364 N 
HETATM   41  C   UNK N   1      37.080  15.070  10.398  0.00  0.00     0.099 A 
ATOM     42  HN  UNK N   1      38.524  13.609  10.501  1.00  0.00     0.165 HD
ENDBRANCH  31  32
ENDBRANCH  29  30
ENDBRANCH  28  29
ENDBRANCH  19  28
BRANCH  16  43
HETATM   43  O   UNK N   1      35.259  15.383   5.207  0.00  0.00    -0.349 OA
BRANCH  43  44
HETATM   44  C   UNK N   1      36.268  14.532   5.788  0.00  0.00     0.291 C 
HETATM   45  C   UNK N   1      36.031  12.996   5.685  0.00  0.00     0.206 C 
HETATM   46  C   UNK N   1      37.176  12.218   6.427  0.00  0.00     0.257 C 
HETATM   47  C   UNK N   1      38.561  12.808   6.125  0.00  0.00     0.070 C 
HETATM   48  C   UNK N   1      38.509  13.938   5.108  0.00  0.00     0.122 C 
HETATM   49  C   UNK N   1      39.893  14.540   4.985  0.00  0.00     0.040 C 
HETATM   50  O   UNK N   1      37.602  14.967   5.497  0.00  0.00    -0.354 OA
BRANCH  45  51
HETATM   51  O   UNK N   1      36.039  12.609   4.343  0.00  0.00    -0.388 OA
HETATM   52  H   UNK N   1      36.168  13.065   3.496  0.00  0.00     0.210 HD
ENDBRANCH  45  51
BRANCH  46  53
HETATM   53  N   UNK N   1      37.037  12.085   7.893  0.00  0.00     0.087 N 
HETATM   54  C   UNK N   1      37.867  11.014   8.424  0.00  0.00     0.310 C 
HETATM   55  C   UNK N   1      35.672  11.914   8.372  0.00  0.00     0.310 C 
ENDBRANCH  46  53
ENDBRANCH  43  44
ENDBRANCH  16  43
BRANCH  12  56
HETATM   56  C   UNK N   1      27.106  14.339   2.460  0.00  0.00     0.031 C 
HETATM   57  C   UNK N   1      26.471  15.499   1.715  0.00  0.00     0.007 C 
ENDBRANCH  12  56
BRANCH  18  58
HETATM   58  O   UNK N   1      25.068  17.972   5.447  0.00  0.00    -0.327 OA
HETATM   59  H   UNK N   1      24.167  17.831   5.659  0.00  0.00     0.221 HD
ENDBRANCH  18  58
TORSDOF 10
ENDMDL
MODEL 4
REMARK VINA RESULT:      -8.1      1.547      3.093
REMARK  10 active torsions:
REMARK  status: ('A' for Active; 'I' for Inactive)
REMARK    1  A    between atoms: C_32  and  C_11 
REMARK    2  A    between atoms: C_18  and  C_14 
REMARK    3  A    between atoms: C_15  and  C_28 
REMARK    4  A    between atoms: O_53  and  C_18 
REMARK    5  A    between atoms: C_31  and  N_47 
REMARK    6  A    between atoms: C_35  and  O_50 
REMARK    7  A    between atoms: C_37  and  O_56 
REMARK    8  A    between atoms: C_39  and  O_56 
REMARK    9  A    between atoms: O_52  and  C_40 
REMARK   10  A    between atoms: C_41  and  O_53 
ROOT
HETATM    1  C   UNK N   1      28.645  12.490   4.482  0.00  0.00     0.018 C 
HETATM    2  C   UNK N   1      32.119  15.838   4.664  0.00  0.00     0.020 C 
HETATM    3  C   UNK N   1      28.182  19.409   4.588  0.00  0.00     0.020 C 
HETATM    4  C   UNK N   1      27.790  17.105   8.476  0.00  0.00     0.029 C 
HETATM    5  C   UNK N   1      29.067  16.890   3.082  0.00  0.00     0.049 C 
HETATM    6  C   UNK N   1      32.332  14.467   9.096  0.00  0.00     0.052 C 
HETATM    7  C   UNK N   1      28.299  14.967   4.604  0.00  0.00     0.052 C 
HETATM    8  C   UNK N   1      29.209  13.828   4.037  0.00  0.00     0.054 C 
HETATM    9  C   UNK N   1      31.194  14.892   5.424  0.00  0.00     0.077 C 
HETATM   10  C   UNK N   1      27.678  18.244   5.441  0.00  0.00     0.084 C 
HETATM   11  C   UNK N   1      28.754  18.074   7.814  0.00  0.00     0.151 C 
HETATM   12  C   UNK N   1      32.116  16.638   7.833  0.00  0.00     0.168 C 
HETATM   13  C   UNK N   1      30.662  13.886   4.434  0.00  0.00     0.136 C 
HETATM   14  C   UNK N   1      28.819  17.868   6.309  0.00  0.00     0.146 C 
HETATM   15  C   UNK N   1      31.878  14.209   6.631  0.00  0.00     0.134 C 
HETATM   16  C   UNK N   1      26.956  17.181   4.551  0.00  0.00     0.169 C 
HETATM   17  C   UNK N   1      30.131  17.928   8.381  0.00  0.00     0.270 C 
HETATM   18  C   UNK N   1      34.084  14.021   6.587  0.00  0.00     0.259 C 
HETATM   19  C   UNK N   1      27.864  16.175   3.700  0.00  0.00     0.085 C 
HETATM   20  C   UNK N   1      32.540  15.139   7.738  0.00  0.00     0.115 C 
HETATM   21  N   UNK N   1      33.028  13.497   6.134  0.00  0.00    -0.342 N 
ATOM     22  HN  UNK N   1      32.996  12.689   5.510  1.00  0.00     0.164 HD
HETATM   23  O   UNK N   1      31.439  13.098   3.910  0.00  0.00    -0.297 OA
HETATM   24  O   UNK N   1      29.878  17.595   5.773  0.00  0.00    -0.297 OA
HETATM   25  O   UNK N   1      30.691  18.901   8.866  0.00  0.00    -0.264 OA
HETATM   26  O   UNK N   1      30.788  16.746   8.219  0.00  0.00    -0.312 OA
HETATM   27  O   UNK N   1      33.889  15.021   7.446  0.00  0.00    -0.301 OA
ENDROOT
BRANCH  19  28
HETATM   28  O   UNK N   1      26.991  15.739   2.684  0.00  0.00    -0.374 OA
BRANCH  28  29
HETATM   29  C   UNK N   1      26.315  14.531   2.889  0.00  0.00     0.196 C 
BRANCH  29  30
HETATM   30  C   UNK N   1      24.910  14.649   2.352  0.00  0.00     0.000 C 
HETATM   31  C   UNK N   1      23.781  14.322   3.014  0.00  0.00     0.011 C 
BRANCH  31  32
HETATM   32  C   UNK N   1      23.683  13.690   4.352  0.00  0.00    -0.020 A 
HETATM   33  C   UNK N   1      24.409  14.226   5.414  0.00  0.00     0.026 A 
HETATM   34  C   UNK N   1      24.376  13.592   6.659  0.00  0.00    -0.009 A 
HETATM   35  C   UNK N   1      25.128  14.080   7.725  0.00  0.00     0.014 A 
HETATM   36  C   UNK N   1      23.593  12.429   6.827  0.00  0.00     0.042 A 
HETATM   37  C   UNK N   1      25.104  13.412   8.954  0.00  0.00     0.001 A 
HETATM   38  C   UNK N   1      24.328  12.259   9.117  0.00  0.00     0.002 A 
HETATM   39  C   UNK N   1      23.571  11.769   8.053  0.00  0.00     0.030 A 
HETATM   40  N   UNK N   1      22.871  11.948   5.793  0.00  0.00    -0.364 N 
HETATM   41  C   UNK N   1      22.908  12.552   4.584  0.00  0.00     0.099 A 
ATOM     42  HN  UNK N   1      22.291  11.120   5.925  1.00  0.00     0.165 HD
ENDBRANCH  31  32
ENDBRANCH  29  30
ENDBRANCH  28  29
ENDBRANCH  19  28
BRANCH  16  43
HETATM   43  O   UNK N   1      26.057  17.856   3.650  0.00  0.00    -0.349 OA
BRANCH  43  44
HETATM   44  C   UNK N   1      24.641  17.883   3.920  0.00  0.00     0.291 C 
HETATM   45  C   UNK N   1      24.217  18.060   5.408  0.00  0.00     0.206 C 
HETATM   46  C   UNK N   1      22.653  17.994   5.540  0.00  0.00     0.257 C 
HETATM   47  C   UNK N   1      21.949  18.794   4.435  0.00  0.00     0.070 C 
HETATM   48  C   UNK N   1      22.925  19.539   3.537  0.00  0.00     0.122 C 
HETATM   49  C   UNK N   1      22.147  20.178   2.406  0.00  0.00     0.040 C 
HETATM   50  O   UNK N   1      23.906  18.670   2.976  0.00  0.00    -0.354 OA
BRANCH  45  51
HETATM   51  O   UNK N   1      24.641  19.308   5.872  0.00  0.00    -0.388 OA
HETATM   52  H   UNK N   1      24.745  20.188   5.478  0.00  0.00     0.210 HD
ENDBRANCH  45  51
BRANCH  46  53
HETATM   53  N   UNK N   1      22.055  16.642   5.588  0.00  0.00     0.087 N 
HETATM   54  C   UNK N   1      20.973  16.491   4.626  0.00  0.00     0.310 C 
HETATM   55  C   UNK N   1      21.588  16.219   6.902  0.00  0.00     0.310 C 
ENDBRANCH  46  53
ENDBRANCH  43  44
ENDBRANCH  16  43
BRANCH  12  56
HETATM   56  C   UNK N   1      33.066  17.458   8.732  0.00  0.00     0.031 C 
HETATM   57  C   UNK N   1      34.090  18.288   7.979  0.00  0.00     0.007 C 
ENDBRANCH  12  56
BRANCH  18  58
HETATM   58  O   UNK N   1      35.314  13.585   6.237  0.00  0.00    -0.327 OA
HETATM   59  H   UNK N   1      35.963  13.246   6.821  0.00  0.00     0.221 HD
ENDBRANCH  18  58
TORSDOF 10
ENDMDL
MODEL 5
REMARK VINA RESULT:      -8.0      1.400      2.421
REMARK  10 active torsions:
REMARK  status: ('A' for Active; 'I' for Inactive)
REMARK    1  A    between atoms: C_32  and  C_11 
REMARK    2  A    between atoms: C_18  and  C_14 
REMARK    3  A    between atoms: C_15  and  C_28 
REMARK    4  A    between atoms: O_53  and  C_18 
REMARK    5  A    between atoms: C_31  and  N_47 
REMARK    6  A    between atoms: C_35  and  O_50 
REMARK    7  A    between atoms: C_37  and  O_56 
REMARK    8  A    between atoms: C_39  and  O_56 
REMARK    9  A    between atoms: O_52  and  C_40 
REMARK   10  A    between atoms: C_41  and  O_53 
ROOT
HETATM    1  C   UNK N   1      28.423  12.438   4.835  0.00  0.00     0.018 C 
HETATM    2  C   UNK N   1      31.568  16.097   4.651  0.00  0.00     0.020 C 
HETATM    3  C   UNK N   1      27.350  19.278   5.236  0.00  0.00     0.020 C 
HETATM    4  C   UNK N   1      27.717  16.868   9.062  0.00  0.00     0.029 C 
HETATM    5  C   UNK N   1      28.242  16.886   3.539  0.00  0.00     0.049 C 
HETATM    6  C   UNK N   1      32.523  14.661   8.963  0.00  0.00     0.052 C 
HETATM    7  C   UNK N   1      27.874  14.868   5.087  0.00  0.00     0.052 C 
HETATM    8  C   UNK N   1      28.795  13.833   4.362  0.00  0.00     0.054 C 
HETATM    9  C   UNK N   1      30.849  15.052   5.499  0.00  0.00     0.077 C 
HETATM   10  C   UNK N   1      27.079  18.053   6.110  0.00  0.00     0.084 C 
HETATM   11  C   UNK N   1      28.487  17.938   8.306  0.00  0.00     0.151 C 
HETATM   12  C   UNK N   1      31.936  16.827   7.816  0.00  0.00     0.168 C 
HETATM   13  C   UNK N   1      30.278  14.020   4.558  0.00  0.00     0.136 C 
HETATM   14  C   UNK N   1      28.360  17.770   6.800  0.00  0.00     0.146 C 
HETATM   15  C   UNK N   1      31.754  14.412   6.576  0.00  0.00     0.134 C 
HETATM   16  C   UNK N   1      26.339  16.945   5.293  0.00  0.00     0.169 C 
HETATM   17  C   UNK N   1      29.937  17.912   8.673  0.00  0.00     0.270 C 
HETATM   18  C   UNK N   1      33.941  14.435   6.224  0.00  0.00     0.259 C 
HETATM   19  C   UNK N   1      27.207  16.047   4.292  0.00  0.00     0.085 C 
HETATM   20  C   UNK N   1      32.477  15.378   7.612  0.00  0.00     0.115 C 
HETATM   21  N   UNK N   1      32.884  13.823   5.903  0.00  0.00    -0.342 N 
ATOM     22  HN  UNK N   1      32.839  13.029   5.263  1.00  0.00     0.164 HD
HETATM   23  O   UNK N   1      31.042  13.321   3.906  0.00  0.00    -0.297 OA
HETATM   24  O   UNK N   1      29.354  17.610   6.115  0.00  0.00    -0.297 OA
HETATM   25  O   UNK N   1      30.468  18.923   9.110  0.00  0.00    -0.264 OA
HETATM   26  O   UNK N   1      30.670  16.800   8.383  0.00  0.00    -0.312 OA
HETATM   27  O   UNK N   1      33.777  15.394   7.134  0.00  0.00    -0.301 OA
ENDROOT
BRANCH  19  28
HETATM   28  O   UNK N   1      26.245  15.552   3.391  0.00  0.00    -0.374 OA
BRANCH  28  29
HETATM   29  C   UNK N   1      26.644  15.357   2.064  0.00  0.00     0.196 C 
BRANCH  29  30
HETATM   30  C   UNK N   1      25.425  15.134   1.205  0.00  0.00     0.000 C 
HETATM   31  C   UNK N   1      24.637  14.039   1.218  0.00  0.00     0.011 C 
BRANCH  31  32
HETATM   32  C   UNK N   1      24.856  12.794   1.995  0.00  0.00    -0.020 A 
HETATM   33  C   UNK N   1      24.234  12.646   3.234  0.00  0.00     0.026 A 
HETATM   34  C   UNK N   1      24.493  11.507   4.000  0.00  0.00    -0.009 A 
HETATM   35  C   UNK N   1      23.921  11.354   5.261  0.00  0.00     0.014 A 
HETATM   36  C   UNK N   1      25.365  10.515   3.500  0.00  0.00     0.042 A 
HETATM   37  C   UNK N   1      24.218  10.220   6.025  0.00  0.00     0.001 A 
HETATM   38  C   UNK N   1      25.084   9.240   5.527  0.00  0.00     0.002 A 
HETATM   39  C   UNK N   1      25.656   9.387   4.264  0.00  0.00     0.030 A 
HETATM   40  N   UNK N   1      25.928  10.665   2.283  0.00  0.00    -0.364 N 
HETATM   41  C   UNK N   1      25.689  11.770   1.543  0.00  0.00     0.099 A 
ATOM     42  HN  UNK N   1      26.541   9.936   1.918  1.00  0.00     0.165 HD
ENDBRANCH  31  32
ENDBRANCH  29  30
ENDBRANCH  28  29
ENDBRANCH  19  28
BRANCH  16  43
HETATM   43  O   UNK N   1      25.266  17.550   4.547  0.00  0.00    -0.349 OA
BRANCH  43  44
HETATM   44  C   UNK N   1      23.899  17.165   4.798  0.00  0.00     0.291 C 
HETATM   45  C   UNK N   1      22.949  18.274   5.341  0.00  0.00     0.206 C 
HETATM   46  C   UNK N   1      21.525  17.676   5.630  0.00  0.00     0.257 C 
HETATM   47  C   UNK N   1      21.057  16.738   4.509  0.00  0.00     0.070 C 
HETATM   48  C   UNK N   1      22.032  16.685   3.342  0.00  0.00     0.122 C 
HETATM   49  C   UNK N   1      21.552  15.637   2.361  0.00  0.00     0.040 C 
HETATM   50  O   UNK N   1      23.350  16.342   3.762  0.00  0.00    -0.354 OA
BRANCH  45  51
HETATM   51  O   UNK N   1      22.812  19.284   4.387  0.00  0.00    -0.388 OA
HETATM   52  H   UNK N   1      23.317  20.078   4.148  0.00  0.00     0.210 HD
ENDBRANCH  45  51
BRANCH  46  53
HETATM   53  N   UNK N   1      21.357  16.976   6.922  0.00  0.00     0.087 N 
HETATM   54  C   UNK N   1      21.193  15.541   6.746  0.00  0.00     0.310 C 
HETATM   55  C   UNK N   1      20.279  17.481   7.763  0.00  0.00     0.310 C 
ENDBRANCH  46  53
ENDBRANCH  43  44
ENDBRANCH  16  43
BRANCH  12  56
HETATM   56  C   UNK N   1      32.924  17.715   8.603  0.00  0.00     0.031 C 
HETATM   57  C   UNK N   1      34.032  18.325   7.764  0.00  0.00     0.007 C 
ENDBRANCH  12  56
BRANCH  18  58
HETATM   58  O   UNK N   1      35.144  14.125   5.694  0.00  0.00    -0.327 OA
HETATM   59  H   UNK N   1      35.977  14.374   6.041  0.00  0.00     0.221 HD
ENDBRANCH  18  58
TORSDOF 10
ENDMDL
MODEL 6
REMARK VINA RESULT:      -8.0      2.356     10.512
REMARK  10 active torsions:
REMARK  status: ('A' for Active; 'I' for Inactive)
REMARK    1  A    between atoms: C_32  and  C_11 
REMARK    2  A    between atoms: C_18  and  C_14 
REMARK    3  A    between atoms: C_15  and  C_28 
REMARK    4  A    between atoms: O_53  and  C_18 
REMARK    5  A    between atoms: C_31  and  N_47 
REMARK    6  A    between atoms: C_35  and  O_50 
REMARK    7  A    between atoms: C_37  and  O_56 
REMARK    8  A    between atoms: C_39  and  O_56 
REMARK    9  A    between atoms: O_52  and  C_40 
REMARK   10  A    between atoms: C_41  and  O_53 
ROOT
HETATM    1  C   UNK N   1      24.174  13.695   7.775  0.00  0.00     0.018 C 
HETATM    2  C   UNK N   1      21.902  16.236   4.355  0.00  0.00     0.020 C 
HETATM    3  C   UNK N   1      26.178  15.313   1.336  0.00  0.00     0.020 C 
HETATM    4  C   UNK N   1      24.218  11.294   2.099  0.00  0.00     0.029 C 
HETATM    5  C   UNK N   1      25.491  16.284   4.161  0.00  0.00     0.049 C 
HETATM    6  C   UNK N   1      19.399  12.339   4.013  0.00  0.00     0.052 C 
HETATM    7  C   UNK N   1      25.009  14.115   5.452  0.00  0.00     0.052 C 
HETATM    8  C   UNK N   1      24.209  14.718   6.653  0.00  0.00     0.054 C 
HETATM    9  C   UNK N   1      22.131  14.884   5.024  0.00  0.00     0.077 C 
HETATM   10  C   UNK N   1      25.951  14.036   2.145  0.00  0.00     0.084 C 
HETATM   11  C   UNK N   1      23.918  12.593   1.371  0.00  0.00     0.151 C 
HETATM   12  C   UNK N   1      20.672  13.870   2.466  0.00  0.00     0.168 C 
HETATM   13  C   UNK N   1      22.793  15.142   6.354  0.00  0.00     0.136 C 
HETATM   14  C   UNK N   1      24.488  13.797   2.102  0.00  0.00     0.146 C 
HETATM   15  C   UNK N   1      20.837  14.052   5.175  0.00  0.00     0.134 C 
HETATM   16  C   UNK N   1      26.718  14.101   3.506  0.00  0.00     0.169 C 
HETATM   17  C   UNK N   1      22.443  12.784   1.206  0.00  0.00     0.270 C 
HETATM   18  C   UNK N   1      18.912  15.147   5.213  0.00  0.00     0.259 C 
HETATM   19  C   UNK N   1      26.079  14.972   4.686  0.00  0.00     0.085 C 
HETATM   20  C   UNK N   1      19.991  13.742   3.864  0.00  0.00     0.115 C 
HETATM   21  N   UNK N   1      19.899  14.838   5.937  0.00  0.00    -0.342 N 
ATOM     22  HN  UNK N   1      20.014  15.105   6.916  1.00  0.00     0.164 HD
HETATM   23  O   UNK N   1      22.172  15.741   7.222  0.00  0.00    -0.297 OA
HETATM   24  O   UNK N   1      23.753  14.693   2.476  0.00  0.00    -0.297 OA
HETATM   25  O   UNK N   1      21.975  12.942   0.087  0.00  0.00    -0.264 OA
HETATM   26  O   UNK N   1      21.667  12.915   2.318  0.00  0.00    -0.312 OA
HETATM   27  O   UNK N   1      18.934  14.628   3.986  0.00  0.00    -0.301 OA
ENDROOT
BRANCH  19  28
HETATM   28  O   UNK N   1      27.182  15.240   5.519  0.00  0.00    -0.374 OA
BRANCH  28  29
HETATM   29  C   UNK N   1      27.405  16.573   5.885  0.00  0.00     0.196 C 
BRANCH  29  30
HETATM   30  C   UNK N   1      27.047  16.756   7.339  0.00  0.00     0.000 C 
HETATM   31  C   UNK N   1      27.888  17.156   8.316  0.00  0.00     0.011 C 
BRANCH  31  32
HETATM   32  C   UNK N   1      29.346  17.400   8.192  0.00  0.00    -0.020 A 
HETATM   33  C   UNK N   1      29.978  17.151   6.975  0.00  0.00     0.026 A 
HETATM   34  C   UNK N   1      31.362  17.311   6.874  0.00  0.00    -0.009 A 
HETATM   35  C   UNK N   1      32.025  17.026   5.682  0.00  0.00     0.014 A 
HETATM   36  C   UNK N   1      32.097  17.740   8.000  0.00  0.00     0.042 A 
HETATM   37  C   UNK N   1      33.415  17.163   5.612  0.00  0.00     0.001 A 
HETATM   38  C   UNK N   1      34.141  17.587   6.731  0.00  0.00     0.002 A 
HETATM   39  C   UNK N   1      33.481  17.877   7.925  0.00  0.00     0.030 A 
HETATM   40  N   UNK N   1      31.459  18.008   9.159  0.00  0.00    -0.364 N 
HETATM   41  C   UNK N   1      30.121  17.844   9.264  0.00  0.00     0.099 A 
ATOM     42  HN  UNK N   1      31.992  18.337   9.964  1.00  0.00     0.165 HD
ENDBRANCH  31  32
ENDBRANCH  29  30
ENDBRANCH  28  29
ENDBRANCH  19  28
BRANCH  16  43
HETATM   43  O   UNK N   1      28.058  14.574   3.266  0.00  0.00    -0.349 OA
BRANCH  43  44
HETATM   44  C   UNK N   1      29.172  13.659   3.325  0.00  0.00     0.291 C 
HETATM   45  C   UNK N   1      30.331  14.032   4.295  0.00  0.00     0.206 C 
HETATM   46  C   UNK N   1      31.492  12.979   4.186  0.00  0.00     0.257 C 
HETATM   47  C   UNK N   1      30.960  11.540   4.134  0.00  0.00     0.070 C 
HETATM   48  C   UNK N   1      29.450  11.467   4.300  0.00  0.00     0.122 C 
HETATM   49  C   UNK N   1      29.012  10.032   4.097  0.00  0.00     0.040 C 
HETATM   50  O   UNK N   1      28.767  12.286   3.353  0.00  0.00    -0.354 OA
BRANCH  45  51
HETATM   51  O   UNK N   1      29.863  14.029   5.611  0.00  0.00    -0.388 OA
HETATM   52  H   UNK N   1      29.976  14.606   6.383  0.00  0.00     0.210 HD
ENDBRANCH  45  51
BRANCH  46  53
HETATM   53  N   UNK N   1      32.443  13.163   3.068  0.00  0.00     0.087 N 
HETATM   54  C   UNK N   1      32.744  14.568   2.836  0.00  0.00     0.310 C 
HETATM   55  C   UNK N   1      32.045  12.545   1.810  0.00  0.00     0.310 C 
ENDBRANCH  46  53
ENDBRANCH  43  44
ENDBRANCH  16  43
BRANCH  12  56
HETATM   56  C   UNK N   1      19.646  13.845   1.312  0.00  0.00     0.031 C 
HETATM   57  C   UNK N   1      19.464  15.172   0.598  0.00  0.00     0.007 C 
ENDBRANCH  12  56
BRANCH  18  58
HETATM   58  O   UNK N   1      17.907  15.931   5.660  0.00  0.00    -0.327 OA
HETATM   59  H   UNK N   1      17.998  16.666   6.234  0.00  0.00     0.221 HD
ENDBRANCH  18  58
TORSDOF 10
ENDMDL
MODEL 7
REMARK VINA RESULT:      -8.0      3.445      9.815
REMARK  10 active torsions:
REMARK  status: ('A' for Active; 'I' for Inactive)
REMARK    1  A    between atoms: C_32  and  C_11 
REMARK    2  A    between atoms: C_18  and  C_14 
REMARK    3  A    between atoms: C_15  and  C_28 
REMARK    4  A    between atoms: O_53  and  C_18 
REMARK    5  A    between atoms: C_31  and  N_47 
REMARK    6  A    between atoms: C_35  and  O_50 
REMARK    7  A    between atoms: C_37  and  O_56 
REMARK    8  A    between atoms: C_39  and  O_56 
REMARK    9  A    between atoms: O_52  and  C_40 
REMARK   10  A    between atoms: C_41  and  O_53 
ROOT
HETATM    1  C   UNK N   1      23.876  11.688   6.795  0.00  0.00     0.018 C 
HETATM    2  C   UNK N   1      23.081  16.323   5.700  0.00  0.00     0.020 C 
HETATM    3  C   UNK N   1      25.852  15.376   1.264  0.00  0.00     0.020 C 
HETATM    4  C   UNK N   1      22.082  12.865   1.018  0.00  0.00     0.029 C 
HETATM    5  C   UNK N   1      26.070  14.912   4.287  0.00  0.00     0.049 C 
HETATM    6  C   UNK N   1      18.828  14.713   4.756  0.00  0.00     0.052 C 
HETATM    7  C   UNK N   1      24.591  12.850   4.696  0.00  0.00     0.052 C 
HETATM    8  C   UNK N   1      24.367  13.012   6.235  0.00  0.00     0.054 C 
HETATM    9  C   UNK N   1      22.587  14.880   5.653  0.00  0.00     0.077 C 
HETATM   10  C   UNK N   1      25.033  14.112   1.527  0.00  0.00     0.084 C 
HETATM   11  C   UNK N   1      22.482  14.330   1.019  0.00  0.00     0.151 C 
HETATM   12  C   UNK N   1      20.588  16.099   3.599  0.00  0.00     0.168 C 
HETATM   13  C   UNK N   1      23.398  14.090   6.649  0.00  0.00     0.136 C 
HETATM   14  C   UNK N   1      23.684  14.589   1.913  0.00  0.00     0.146 C 
HETATM   15  C   UNK N   1      21.068  14.746   5.910  0.00  0.00     0.134 C 
HETATM   16  C   UNK N   1      25.828  13.118   2.435  0.00  0.00     0.169 C 
HETATM   17  C   UNK N   1      21.347  15.193   1.475  0.00  0.00     0.270 C 
HETATM   18  C   UNK N   1      20.077  16.363   7.054  0.00  0.00     0.259 C 
HETATM   19  C   UNK N   1      25.882  13.419   4.006  0.00  0.00     0.085 C 
HETATM   20  C   UNK N   1      20.078  15.568   4.975  0.00  0.00     0.115 C 
HETATM   21  N   UNK N   1      20.791  15.332   7.198  0.00  0.00    -0.342 N 
ATOM     22  HN  UNK N   1      21.121  14.968   8.093  1.00  0.00     0.164 HD
HETATM   23  O   UNK N   1      23.290  14.346   7.841  0.00  0.00    -0.297 OA
HETATM   24  O   UNK N   1      23.599  15.370   2.843  0.00  0.00    -0.297 OA
HETATM   25  O   UNK N   1      20.946  16.095   0.754  0.00  0.00    -0.264 OA
HETATM   26  O   UNK N   1      20.876  15.044   2.745  0.00  0.00    -0.312 OA
HETATM   27  O   UNK N   1      19.698  16.612   5.801  0.00  0.00    -0.301 OA
ENDROOT
BRANCH  19  28
HETATM   28  O   UNK N   1      27.021  12.705   4.429  0.00  0.00    -0.374 OA
BRANCH  28  29
HETATM   29  C   UNK N   1      27.882  13.341   5.330  0.00  0.00     0.196 C 
BRANCH  29  30
HETATM   30  C   UNK N   1      29.267  13.403   4.737  0.00  0.00     0.000 C 
HETATM   31  C   UNK N   1      29.954  14.528   4.448  0.00  0.00     0.011 C 
BRANCH  31  32
HETATM   32  C   UNK N   1      29.464  15.923   4.555  0.00  0.00    -0.020 A 
HETATM   33  C   UNK N   1      29.260  16.479   5.816  0.00  0.00     0.026 A 
HETATM   34  C   UNK N   1      28.731  17.769   5.921  0.00  0.00    -0.009 A 
HETATM   35  C   UNK N   1      28.474  18.331   7.169  0.00  0.00     0.014 A 
HETATM   36  C   UNK N   1      28.430  18.495   4.748  0.00  0.00     0.042 A 
HETATM   37  C   UNK N   1      27.915  19.611   7.251  0.00  0.00     0.001 A 
HETATM   38  C   UNK N   1      27.616  20.328   6.087  0.00  0.00     0.002 A 
HETATM   39  C   UNK N   1      27.876  19.769   4.836  0.00  0.00     0.030 A 
HETATM   40  N   UNK N   1      28.669  17.949   3.538  0.00  0.00    -0.364 N 
HETATM   41  C   UNK N   1      29.170  16.698   3.431  0.00  0.00     0.099 A 
ATOM     42  HN  UNK N   1      28.469  18.486   2.694  1.00  0.00     0.165 HD
ENDBRANCH  31  32
ENDBRANCH  29  30
ENDBRANCH  28  29
ENDBRANCH  19  28
BRANCH  16  43
HETATM   43  O   UNK N   1      27.179  13.013   1.945  0.00  0.00    -0.349 OA
BRANCH  43  44
HETATM   44  C   UNK N   1      27.587  11.859   1.182  0.00  0.00     0.291 C 
HETATM   45  C   UNK N   1      28.798  11.051   1.733  0.00  0.00     0.206 C 
HETATM   46  C   UNK N   1      29.160   9.877   0.753  0.00  0.00     0.257 C 
HETATM   47  C   UNK N   1      27.908   9.146   0.246  0.00  0.00     0.070 C 
HETATM   48  C   UNK N   1      26.628   9.662   0.884  0.00  0.00     0.122 C 
HETATM   49  C   UNK N   1      25.450   8.979   0.222  0.00  0.00     0.040 C 
HETATM   50  O   UNK N   1      26.481  11.071   0.725  0.00  0.00    -0.354 OA
BRANCH  45  51
HETATM   51  O   UNK N   1      28.470  10.497   2.973  0.00  0.00    -0.388 OA
HETATM   52  H   UNK N   1      28.870  10.507   3.857  0.00  0.00     0.210 HD
ENDBRANCH  45  51
BRANCH  46  53
HETATM   53  N   UNK N   1      29.996  10.230  -0.414  0.00  0.00     0.087 N 
HETATM   54  C   UNK N   1      29.702   9.393  -1.568  0.00  0.00     0.310 C 
HETATM   55  C   UNK N   1      31.433  10.221  -0.171  0.00  0.00     0.310 C 
ENDBRANCH  46  53
ENDBRANCH  43  44
ENDBRANCH  16  43
BRANCH  12  56
HETATM   56  C   UNK N   1      19.618  17.125   2.973  0.00  0.00     0.031 C 
HETATM   57  C   UNK N   1      20.123  18.556   2.977  0.00  0.00     0.007 C 
ENDBRANCH  12  56
BRANCH  18  58
HETATM   58  O   UNK N   1      19.713  17.140   8.098  0.00  0.00    -0.327 OA
HETATM   59  H   UNK N   1      18.967  17.705   8.128  0.00  0.00     0.221 HD
ENDBRANCH  18  58
TORSDOF 10
ENDMDL
MODEL 8
REMARK VINA RESULT:      -7.8      9.080     14.896
REMARK  10 active torsions:
REMARK  status: ('A' for Active; 'I' for Inactive)
REMARK    1  A    between atoms: C_32  and  C_11 
REMARK    2  A    between atoms: C_18  and  C_14 
REMARK    3  A    between atoms: C_15  and  C_28 
REMARK    4  A    between atoms: O_53  and  C_18 
REMARK    5  A    between atoms: C_31  and  N_47 
REMARK    6  A    between atoms: C_35  and  O_50 
REMARK    7  A    between atoms: C_37  and  O_56 
REMARK    8  A    between atoms: C_39  and  O_56 
REMARK    9  A    between atoms: O_52  and  C_40 
REMARK   10  A    between atoms: C_41  and  O_53 
ROOT
HETATM    1  C   UNK N   1      37.014  14.257  15.813  0.00  0.00     0.018 C 
HETATM    2  C   UNK N   1      34.360  10.235  16.118  0.00  0.00     0.020 C 
HETATM    3  C   UNK N   1      36.520   8.887  11.452  0.00  0.00     0.020 C 
HETATM    4  C   UNK N   1      39.893   8.973  14.485  0.00  0.00     0.029 C 
HETATM    5  C   UNK N   1      35.152  11.291  12.775  0.00  0.00     0.049 C 
HETATM    6  C   UNK N   1      37.596   9.093  19.247  0.00  0.00     0.052 C 
HETATM    7  C   UNK N   1      37.019  12.360  14.179  0.00  0.00     0.052 C 
HETATM    8  C   UNK N   1      36.138  13.204  15.157  0.00  0.00     0.054 C 
HETATM    9  C   UNK N   1      35.658  10.957  16.466  0.00  0.00     0.077 C 
HETATM   10  C   UNK N   1      37.628   9.583  12.244  0.00  0.00     0.084 C 
HETATM   11  C   UNK N   1      38.636   8.171  14.195  0.00  0.00     0.151 C 
HETATM   12  C   UNK N   1      36.552   8.064  17.197  0.00  0.00     0.168 C 
HETATM   13  C   UNK N   1      35.432  12.431  16.241  0.00  0.00     0.136 C 
HETATM   14  C   UNK N   1      37.529   9.040  13.620  0.00  0.00     0.146 C 
HETATM   15  C   UNK N   1      36.154  10.661  17.901  0.00  0.00     0.134 C 
HETATM   16  C   UNK N   1      37.610  11.124  11.981  0.00  0.00     0.169 C 
HETATM   17  C   UNK N   1      38.130   7.505  15.436  0.00  0.00     0.270 C 
HETATM   18  C   UNK N   1      34.649  10.020  19.394  0.00  0.00     0.259 C 
HETATM   19  C   UNK N   1      36.507  12.001  12.739  0.00  0.00     0.085 C 
HETATM   20  C   UNK N   1      36.386   9.143  18.312  0.00  0.00     0.115 C 
HETATM   21  N   UNK N   1      35.105  11.044  18.813  0.00  0.00    -0.342 N 
ATOM     22  HN  UNK N   1      34.779  11.999  18.966  1.00  0.00     0.164 HD
HETATM   23  O   UNK N   1      34.626  13.024  16.947  0.00  0.00    -0.297 OA
HETATM   24  O   UNK N   1      36.457   9.127  14.192  0.00  0.00    -0.297 OA
HETATM   25  O   UNK N   1      37.977   6.291  15.451  0.00  0.00    -0.264 OA
HETATM   26  O   UNK N   1      37.718   8.280  16.478  0.00  0.00    -0.312 OA
HETATM   27  O   UNK N   1      35.275   8.882  19.096  0.00  0.00    -0.301 OA
ENDROOT
BRANCH  19  28
HETATM   28  O   UNK N   1      36.420  13.160  11.945  0.00  0.00    -0.374 OA
BRANCH  28  29
HETATM   29  C   UNK N   1      35.184  13.817  11.896  0.00  0.00     0.196 C 
BRANCH  29  30
HETATM   30  C   UNK N   1      35.395  15.293  12.121  0.00  0.00     0.000 C 
HETATM   31  C   UNK N   1      35.360  16.251  11.172  0.00  0.00     0.011 C 
BRANCH  31  32
HETATM   32  C   UNK N   1      35.212  16.051   9.710  0.00  0.00    -0.020 A 
HETATM   33  C   UNK N   1      34.475  16.972   8.967  0.00  0.00     0.026 A 
HETATM   34  C   UNK N   1      34.273  16.750   7.603  0.00  0.00    -0.009 A 
HETATM   35  C   UNK N   1      33.502  17.630   6.846  0.00  0.00     0.014 A 
HETATM   36  C   UNK N   1      34.834  15.607   6.993  0.00  0.00     0.042 A 
HETATM   37  C   UNK N   1      33.286  17.372   5.488  0.00  0.00     0.001 A 
HETATM   38  C   UNK N   1      33.843  16.237   4.887  0.00  0.00     0.002 A 
HETATM   39  C   UNK N   1      34.618  15.356   5.640  0.00  0.00     0.030 A 
HETATM   40  N   UNK N   1      35.573  14.748   7.725  0.00  0.00    -0.364 N 
HETATM   41  C   UNK N   1      35.762  14.952   9.048  0.00  0.00     0.099 A 
ATOM     42  HN  UNK N   1      35.993  13.934   7.275  1.00  0.00     0.165 HD
ENDBRANCH  31  32
ENDBRANCH  29  30
ENDBRANCH  28  29
ENDBRANCH  19  28
BRANCH  16  43
HETATM   43  O   UNK N   1      37.481  11.356  10.565  0.00  0.00    -0.349 OA
BRANCH  43  44
HETATM   44  C   UNK N   1      38.657  11.527   9.747  0.00  0.00     0.291 C 
HETATM   45  C   UNK N   1      39.094  10.303   8.888  0.00  0.00     0.206 C 
HETATM   46  C   UNK N   1      40.425  10.627   8.118  0.00  0.00     0.257 C 
HETATM   47  C   UNK N   1      40.406  12.035   7.505  0.00  0.00     0.070 C 
HETATM   48  C   UNK N   1      39.074  12.743   7.702  0.00  0.00     0.122 C 
HETATM   49  C   UNK N   1      39.203  14.162   7.190  0.00  0.00     0.040 C 
HETATM   50  O   UNK N   1      38.691  12.791   9.074  0.00  0.00    -0.354 OA
BRANCH  45  51
HETATM   51  O   UNK N   1      38.105  10.013   7.946  0.00  0.00    -0.388 OA
HETATM   52  H   UNK N   1      37.208  10.338   7.767  0.00  0.00     0.210 HD
ENDBRANCH  45  51
BRANCH  46  53
HETATM   53  N   UNK N   1      41.681  10.470   8.882  0.00  0.00     0.087 N 
HETATM   54  C   UNK N   1      42.769  11.246   8.307  0.00  0.00     0.310 C 
HETATM   55  C   UNK N   1      42.123   9.094   9.070  0.00  0.00     0.310 C 
ENDBRANCH  46  53
ENDBRANCH  43  44
ENDBRANCH  16  43
BRANCH  12  56
HETATM   56  C   UNK N   1      36.452   6.627  17.755  0.00  0.00     0.031 C 
HETATM   57  C   UNK N   1      35.160   5.906  17.418  0.00  0.00     0.007 C 
ENDBRANCH  12  56
BRANCH  18  58
HETATM   58  O   UNK N   1      33.617  10.084  20.264  0.00  0.00    -0.327 OA
HETATM   59  H   UNK N   1      32.710  10.009  20.045  0.00  0.00     0.221 HD
ENDBRANCH  18  58
TORSDOF 10
ENDMDL
MODEL 9
REMARK VINA RESULT:      -7.8      1.921      3.636
REMARK  10 active torsions:
REMARK  status: ('A' for Active; 'I' for Inactive)
REMARK    1  A    between atoms: C_32  and  C_11 
REMARK    2  A    between atoms: C_18  and  C_14 
REMARK    3  A    between atoms: C_15  and  C_28 
REMARK    4  A    between atoms: O_53  and  C_18 
REMARK    5  A    between atoms: C_31  and  N_47 
REMARK    6  A    between atoms: C_35  and  O_50 
REMARK    7  A    between atoms: C_37  and  O_56 
REMARK    8  A    between atoms: C_39  and  O_56 
REMARK    9  A    between atoms: O_52  and  C_40 
REMARK   10  A    between atoms: C_41  and  O_53 
ROOT
HETATM    1  C   UNK N   1      28.888  12.256   4.722  0.00  0.00     0.018 C 
HETATM    2  C   UNK N   1      31.828  16.085   4.625  0.00  0.00     0.020 C 
HETATM    3  C   UNK N   1      27.414  19.030   4.931  0.00  0.00     0.020 C 
HETATM    4  C   UNK N   1      27.716  16.710   8.818  0.00  0.00     0.029 C 
HETATM    5  C   UNK N   1      28.526  16.664   3.330  0.00  0.00     0.049 C 
HETATM    6  C   UNK N   1      32.636  14.780   9.009  0.00  0.00     0.052 C 
HETATM    7  C   UNK N   1      28.191  14.655   4.897  0.00  0.00     0.052 C 
HETATM    8  C   UNK N   1      29.205  13.662   4.241  0.00  0.00     0.054 C 
HETATM    9  C   UNK N   1      31.125  15.015   5.456  0.00  0.00     0.077 C 
HETATM   10  C   UNK N   1      27.166  17.807   5.814  0.00  0.00     0.084 C 
HETATM   11  C   UNK N   1      28.462  17.809   8.081  0.00  0.00     0.151 C 
HETATM   12  C   UNK N   1      31.989  16.889   7.789  0.00  0.00     0.168 C 
HETATM   13  C   UNK N   1      30.663  13.937   4.508  0.00  0.00     0.136 C 
HETATM   14  C   UNK N   1      28.423  17.609   6.574  0.00  0.00     0.146 C 
HETATM   15  C   UNK N   1      32.008  14.447   6.591  0.00  0.00     0.134 C 
HETATM   16  C   UNK N   1      26.534  16.644   4.982  0.00  0.00     0.169 C 
HETATM   17  C   UNK N   1      29.891  17.872   8.522  0.00  0.00     0.270 C 
HETATM   18  C   UNK N   1      34.205  14.589   6.350  0.00  0.00     0.259 C 
HETATM   19  C   UNK N   1      27.502  15.781   4.046  0.00  0.00     0.085 C 
HETATM   20  C   UNK N   1      32.621  15.470   7.643  0.00  0.00     0.115 C 
HETATM   21  N   UNK N   1      33.203  13.911   5.988  0.00  0.00    -0.342 N 
ATOM     22  HN  UNK N   1      33.235  13.105   5.363  1.00  0.00     0.164 HD
HETATM   23  O   UNK N   1      31.498  13.271   3.911  0.00  0.00    -0.297 OA
HETATM   24  O   UNK N   1      29.459  17.494   5.944  0.00  0.00    -0.297 OA
HETATM   25  O   UNK N   1      30.341  18.920   8.965  0.00  0.00    -0.264 OA
HETATM   26  O   UNK N   1      30.699  16.800   8.292  0.00  0.00    -0.312 OA
HETATM   27  O   UNK N   1      33.940  15.552   7.232  0.00  0.00    -0.301 OA
ENDROOT
BRANCH  19  28
HETATM   28  O   UNK N   1      26.617  15.215   3.107  0.00  0.00    -0.374 OA
BRANCH  28  29
HETATM   29  C   UNK N   1      26.079  13.958   3.404  0.00  0.00     0.196 C 
BRANCH  29  30
HETATM   30  C   UNK N   1      25.356  13.426   2.192  0.00  0.00     0.000 C 
HETATM   31  C   UNK N   1      25.749  12.384   1.430  0.00  0.00     0.011 C 
BRANCH  31  32
HETATM   32  C   UNK N   1      27.009  11.613   1.557  0.00  0.00    -0.020 A 
HETATM   33  C   UNK N   1      28.198  12.166   1.084  0.00  0.00     0.026 A 
HETATM   34  C   UNK N   1      29.375  11.415   1.137  0.00  0.00    -0.009 A 
HETATM   35  C   UNK N   1      30.567  11.926   0.630  0.00  0.00     0.014 A 
HETATM   36  C   UNK N   1      29.346  10.115   1.687  0.00  0.00     0.042 A 
HETATM   37  C   UNK N   1      31.727  11.145   0.665  0.00  0.00     0.001 A 
HETATM   38  C   UNK N   1      31.695   9.855   1.208  0.00  0.00     0.002 A 
HETATM   39  C   UNK N   1      30.504   9.342   1.721  0.00  0.00     0.030 A 
HETATM   40  N   UNK N   1      28.190   9.613   2.170  0.00  0.00    -0.364 N 
HETATM   41  C   UNK N   1      27.047  10.332   2.111  0.00  0.00     0.099 A 
ATOM     42  HN  UNK N   1      28.179   8.681   2.584  1.00  0.00     0.165 HD
ENDBRANCH  31  32
ENDBRANCH  29  30
ENDBRANCH  28  29
ENDBRANCH  19  28
BRANCH  16  43
HETATM   43  O   UNK N   1      25.468  17.174   4.171  0.00  0.00    -0.349 OA
BRANCH  43  44
HETATM   44  C   UNK N   1      24.094  16.873   4.488  0.00  0.00     0.291 C 
HETATM   45  C   UNK N   1      23.246  18.032   5.089  0.00  0.00     0.206 C 
HETATM   46  C   UNK N   1      21.803  17.522   5.445  0.00  0.00     0.257 C 
HETATM   47  C   UNK N   1      21.220  16.630   4.340  0.00  0.00     0.070 C 
HETATM   48  C   UNK N   1      22.130  16.530   3.125  0.00  0.00     0.122 C 
HETATM   49  C   UNK N   1      21.535  15.526   2.159  0.00  0.00     0.040 C 
HETATM   50  O   UNK N   1      23.443  16.099   3.473  0.00  0.00    -0.354 OA
BRANCH  45  51
HETATM   51  O   UNK N   1      23.125  19.061   4.152  0.00  0.00    -0.388 OA
HETATM   52  H   UNK N   1      23.022  20.025   4.199  0.00  0.00     0.210 HD
ENDBRANCH  45  51
BRANCH  46  53
HETATM   53  N   UNK N   1      21.655  16.818   6.737  0.00  0.00     0.087 N 
HETATM   54  C   UNK N   1      21.714  15.372   6.579  0.00  0.00     0.310 C 
HETATM   55  C   UNK N   1      20.464  17.167   7.499  0.00  0.00     0.310 C 
ENDBRANCH  46  53
ENDBRANCH  43  44
ENDBRANCH  16  43
BRANCH  12  56
HETATM   56  C   UNK N   1      32.883  17.845   8.608  0.00  0.00     0.031 C 
HETATM   57  C   UNK N   1      34.068  18.411   7.846  0.00  0.00     0.007 C 
ENDBRANCH  12  56
BRANCH  18  58
HETATM   58  O   UNK N   1      35.450  14.339   5.889  0.00  0.00    -0.327 OA
HETATM   59  H   UNK N   1      36.089  14.983   5.657  0.00  0.00     0.221 HD
ENDBRANCH  18  58
TORSDOF 10
ENDMDL
