REMARK  1 active torsions:
REMARK  status: ('A' for Active; 'I' for Inactive)
REMARK    1  A    between atoms: C_5  and  C_8 
ROOT
HETATM    1  O   UNK N   1       5.500  -1.886   0.001  0.00  0.00    -0.267 OA
HETATM    2  N   UNK N   1       3.398  -2.694   0.002  0.00  0.00    -0.322 N 
HETATM    3  C   UNK N   1       3.608  -0.372  -0.003  0.00  0.00     0.047 A 
HETATM    4  C   UNK N   1       2.197  -0.730  -0.003  0.00  0.00     0.006 A 
HETATM    5  C   UNK N   1       4.067   0.894  -0.004  0.00  0.00     0.048 C 
HETATM    6  C   UNK N   1       2.119  -2.105   0.001  0.00  0.00     0.046 A 
HETATM    7  C   UNK N   1       4.296  -1.687   0.000  0.00  0.00     0.257 A 
HETATM    8  C   UNK N   1       1.054   0.067  -0.004  0.00  0.00     0.015 A 
HETATM    9  C   UNK N   1       0.897  -2.768   0.003  0.00  0.00     0.030 A 
HETATM   10  C   UNK N   1      -0.195  -0.578  -0.002  0.00  0.00     0.001 A 
HETATM   11  C   UNK N   1      -0.273  -1.988   0.001  0.00  0.00     0.002 A 
HETATM   12  H   UNK N   1       3.599  -3.658   0.004  0.00  0.00     0.169 HD
ENDROOT
BRANCH   5  13
HETATM   13  C   UNK N   1       5.481   1.312  -0.003  0.00  0.00     0.039 A 
HETATM   14  N   UNK N   1       6.525   0.470  -0.005  0.00  0.00    -0.359 N 
HETATM   15  C   UNK N   1       7.628   1.238  -0.000  0.00  0.00     0.006 A 
HETATM   16  H   UNK N   1       6.491  -0.513  -0.008  0.00  0.00     0.166 HD
HETATM   17  C   UNK N   1       7.306   2.583   0.004  0.00  0.00     0.033 A 
HETATM   18  C   UNK N   1       9.004   0.679   0.001  0.00  0.00     0.068 C 
HETATM   19  C   UNK N   1       5.927   2.617   0.003  0.00  0.00    -0.033 A 
HETATM   20  C   UNK N   1       5.091   3.850   0.008  0.00  0.00     0.050 C 
ENDBRANCH   5  13
TORSDOF 1
