MODEL 1
REMARK VINA RESULT:      -8.0      0.000      0.000
REMARK  8 active torsions:
REMARK  status: ('A' for Active; 'I' for Inactive)
REMARK    1  A    between atoms: C_2  and  N_19 
REMARK    2  A    between atoms: C_2  and  C_20 
REMARK    3  A    between atoms: C_4  and  O_23 
REMARK    4  A    between atoms: C_7  and  O_33 
REMARK    5  A    between atoms: C_8  and  O_32 
REMARK    6  A    between atoms: C_24  and  O_23 
REMARK    7  A    between atoms: C_26  and  O_31 
REMARK    8  A    between atoms: C_27  and  O_30 
ROOT
HETATM    1  C   UNK N   1      21.983  16.452   3.410  0.00  0.00     0.075 C 
HETATM    2  C   UNK N   1      20.776  17.311   3.765  0.00  0.00     0.091 C 
HETATM    3  C   UNK N   1      20.235  17.001   5.171  0.00  0.00     0.080 C 
HETATM    4  C   UNK N   1      23.043  16.248   4.495  0.00  0.00     0.163 C 
HETATM    5  C   UNK N   1      22.453  15.930   5.844  0.00  0.00     0.014 A 
HETATM    6  C   UNK N   1      21.104  16.208   6.125  0.00  0.00    -0.010 A 
HETATM    7  C   UNK N   1      20.515  15.690   7.292  0.00  0.00     0.088 A 
HETATM    8  C   UNK N   1      23.239  15.234   6.782  0.00  0.00     0.090 A 
HETATM    9  C   UNK N   1      22.652  14.705   7.952  0.00  0.00     0.066 A 
HETATM   10  C   UNK N   1      21.272  14.891   8.184  0.00  0.00     0.066 A 
HETATM   11  C   UNK N   1      20.619  14.190   9.336  0.00  0.00     0.197 A 
HETATM   12  C   UNK N   1      23.463  13.881   8.903  0.00  0.00     0.197 A 
HETATM   13  C   UNK N   1      22.791  13.130   9.983  0.00  0.00     0.029 A 
HETATM   14  C   UNK N   1      21.409  13.266  10.183  0.00  0.00     0.029 A 
HETATM   15  C   UNK N   1      20.777  12.506  11.180  0.00  0.00     0.016 A 
HETATM   16  C   UNK N   1      21.517  11.621  11.969  0.00  0.00     0.001 A 
HETATM   17  C   UNK N   1      22.894  11.499  11.779  0.00  0.00     0.001 A 
HETATM   18  C   UNK N   1      23.530  12.252  10.789  0.00  0.00     0.016 A 
HETATM   19  O   UNK N   1      24.672  13.783   8.769  0.00  0.00    -0.286 OA
HETATM   20  O   UNK N   1      19.420  14.306   9.536  0.00  0.00    -0.286 OA
ENDROOT
BRANCH   4  21
HETATM   21  O   UNK N   1      24.000  17.289   4.538  0.00  0.00    -0.351 OA
BRANCH  21  22
HETATM   22  C   UNK N   1      24.826  17.181   3.393  0.00  0.00     0.263 C 
HETATM   23  C   UNK N   1      25.855  16.049   3.521  0.00  0.00     0.095 C 
HETATM   24  C   UNK N   1      27.269  16.613   3.433  0.00  0.00     0.153 C 
HETATM   25  C   UNK N   1      27.386  17.810   4.374  0.00  0.00     0.170 C 
HETATM   26  C   UNK N   1      26.272  18.831   4.096  0.00  0.00     0.205 C 
HETATM   27  O   UNK N   1      25.415  18.423   3.048  0.00  0.00    -0.359 OA
BRANCH  24  28
HETATM   28  O   UNK N   1      28.199  15.631   3.770  0.00  0.00    -0.393 OA
HETATM   29  H   UNK N   1      28.719  15.341   4.535  0.00  0.00     0.210 HD
ENDBRANCH  24  28
BRANCH  25  30
HETATM   30  O   UNK N   1      28.632  18.418   4.243  0.00  0.00    -0.391 OA
HETATM   31  H   UNK N   1      28.713  19.356   4.005  0.00  0.00     0.210 HD
ENDBRANCH  25  30
ENDBRANCH  21  22
ENDBRANCH   4  21
BRANCH   8  32
HETATM   32  O   UNK N   1      24.539  15.010   6.514  0.00  0.00    -0.359 OA
HETATM   33  H   UNK N   1      24.859  14.911   5.639  0.00  0.00     0.217 HD
ENDBRANCH   8  32
BRANCH   2  34
HETATM   34  N   UNK N   1      19.719  16.933   2.840  0.00  0.00    -0.415 N 
HETATM   35  H   UNK N   1      18.773  16.584   2.994  0.00  0.00     0.151 HD
HETATM   36  H   UNK N   1      19.970  17.035   1.857  0.00  0.00     0.151 HD
ENDBRANCH   2  34
BRANCH   2  37
HETATM   37  C   UNK N   1      21.096  18.781   3.578  0.00  0.00     0.150 C 
HETATM   38  O   UNK N   1      21.464  19.459   4.524  0.00  0.00    -0.296 OA
HETATM   39  C   UNK N   1      20.997  19.424   2.226  0.00  0.00     0.093 C 
ENDBRANCH   2  37
BRANCH   7  40
HETATM   40  O   UNK N   1      19.208  15.916   7.520  0.00  0.00    -0.359 OA
HETATM   41  H   UNK N   1      18.879  16.769   7.725  0.00  0.00     0.217 HD
ENDBRANCH   7  40
TORSDOF 8
ENDMDL
MODEL 2
REMARK VINA RESULT:      -8.0      7.508     10.693
REMARK  8 active torsions:
REMARK  status: ('A' for Active; 'I' for Inactive)
REMARK    1  A    between atoms: C_2  and  N_19 
REMARK    2  A    between atoms: C_2  and  C_20 
REMARK    3  A    between atoms: C_4  and  O_23 
REMARK    4  A    between atoms: C_7  and  O_33 
REMARK    5  A    between atoms: C_8  and  O_32 
REMARK    6  A    between atoms: C_24  and  O_23 
REMARK    7  A    between atoms: C_26  and  O_31 
REMARK    8  A    between atoms: C_27  and  O_30 
ROOT
HETATM    1  C   UNK N   1      34.188  15.089   7.401  0.00  0.00     0.075 C 
HETATM    2  C   UNK N   1      33.729  14.773   8.819  0.00  0.00     0.091 C 
HETATM    3  C   UNK N   1      32.400  15.463   9.169  0.00  0.00     0.080 C 
HETATM    4  C   UNK N   1      33.125  15.072   6.300  0.00  0.00     0.163 C 
HETATM    5  C   UNK N   1      31.854  15.778   6.695  0.00  0.00     0.014 A 
HETATM    6  C   UNK N   1      31.562  16.036   8.045  0.00  0.00    -0.010 A 
HETATM    7  C   UNK N   1      30.503  16.900   8.375  0.00  0.00     0.088 A 
HETATM    8  C   UNK N   1      31.019  16.288   5.683  0.00  0.00     0.090 A 
HETATM    9  C   UNK N   1      29.958  17.161   6.007  0.00  0.00     0.066 A 
HETATM   10  C   UNK N   1      29.729  17.508   7.356  0.00  0.00     0.066 A 
HETATM   11  C   UNK N   1      28.714  18.562   7.683  0.00  0.00     0.197 A 
HETATM   12  C   UNK N   1      29.129  17.783   4.927  0.00  0.00     0.197 A 
HETATM   13  C   UNK N   1      28.193  18.878   5.256  0.00  0.00     0.029 A 
HETATM   14  C   UNK N   1      28.004  19.268   6.590  0.00  0.00     0.029 A 
HETATM   15  C   UNK N   1      27.151  20.344   6.882  0.00  0.00     0.016 A 
HETATM   16  C   UNK N   1      26.492  21.023   5.853  0.00  0.00     0.001 A 
HETATM   17  C   UNK N   1      26.669  20.623   4.527  0.00  0.00     0.001 A 
HETATM   18  C   UNK N   1      27.517  19.554   4.228  0.00  0.00     0.016 A 
HETATM   19  O   UNK N   1      29.251  17.430   3.765  0.00  0.00    -0.286 OA
HETATM   20  O   UNK N   1      28.524  18.905   8.839  0.00  0.00    -0.286 OA
ENDROOT
BRANCH   4  21
HETATM   21  O   UNK N   1      32.900  13.780   5.767  0.00  0.00    -0.351 OA
BRANCH  21  22
HETATM   22  C   UNK N   1      33.996  13.447   4.934  0.00  0.00     0.263 C 
HETATM   23  C   UNK N   1      34.360  14.583   3.967  0.00  0.00     0.095 C 
HETATM   24  C   UNK N   1      34.221  14.108   2.525  0.00  0.00     0.153 C 
HETATM   25  C   UNK N   1      32.870  13.416   2.356  0.00  0.00     0.170 C 
HETATM   26  C   UNK N   1      32.688  12.315   3.413  0.00  0.00     0.205 C 
HETATM   27  O   UNK N   1      33.802  12.206   4.276  0.00  0.00    -0.359 OA
BRANCH  24  28
HETATM   28  O   UNK N   1      34.332  15.189   1.651  0.00  0.00    -0.393 OA
HETATM   29  H   UNK N   1      34.976  15.869   1.400  0.00  0.00     0.210 HD
ENDBRANCH  24  28
BRANCH  25  30
HETATM   30  O   UNK N   1      32.751  12.874   1.078  0.00  0.00    -0.391 OA
HETATM   31  H   UNK N   1      33.448  12.995   0.413  0.00  0.00     0.210 HD
ENDBRANCH  25  30
ENDBRANCH  21  22
ENDBRANCH   4  21
BRANCH   8  32
HETATM   32  O   UNK N   1      31.290  15.999   4.396  0.00  0.00    -0.359 OA
HETATM   33  H   UNK N   1      30.689  15.529   3.852  0.00  0.00     0.217 HD
ENDBRANCH   8  32
BRANCH   2  34
HETATM   34  N   UNK N   1      34.724  15.352   9.709  0.00  0.00    -0.415 N 
HETATM   35  H   UNK N   1      34.883  16.310  10.020  0.00  0.00     0.151 HD
HETATM   36  H   UNK N   1      35.384  14.675  10.091  0.00  0.00     0.151 HD
ENDBRANCH   2  34
BRANCH   2  37
HETATM   37  C   UNK N   1      33.679  13.273   9.040  0.00  0.00     0.150 C 
HETATM   38  O   UNK N   1      32.646  12.654   8.844  0.00  0.00    -0.296 OA
HETATM   39  C   UNK N   1      34.901  12.518   9.473  0.00  0.00     0.093 C 
ENDBRANCH   2  37
BRANCH   7  40
HETATM   40  O   UNK N   1      30.270  17.185   9.670  0.00  0.00    -0.359 OA
HETATM   41  H   UNK N   1      29.773  16.614  10.223  0.00  0.00     0.217 HD
ENDBRANCH   7  40
TORSDOF 8
ENDMDL
MODEL 3
REMARK VINA RESULT:      -7.9      2.253      2.577
REMARK  8 active torsions:
REMARK  status: ('A' for Active; 'I' for Inactive)
REMARK    1  A    between atoms: C_2  and  N_19 
REMARK    2  A    between atoms: C_2  and  C_20 
REMARK    3  A    between atoms: C_4  and  O_23 
REMARK    4  A    between atoms: C_7  and  O_33 
REMARK    5  A    between atoms: C_8  and  O_32 
REMARK    6  A    between atoms: C_24  and  O_23 
REMARK    7  A    between atoms: C_26  and  O_31 
REMARK    8  A    between atoms: C_27  and  O_30 
ROOT
HETATM    1  C   UNK N   1      21.460  14.077   2.128  0.00  0.00     0.075 C 
HETATM    2  C   UNK N   1      20.314  15.049   2.381  0.00  0.00     0.091 C 
HETATM    3  C   UNK N   1      20.009  15.212   3.879  0.00  0.00     0.080 C 
HETATM    4  C   UNK N   1      22.682  14.180   3.043  0.00  0.00     0.163 C 
HETATM    5  C   UNK N   1      22.320  14.320   4.499  0.00  0.00     0.014 A 
HETATM    6  C   UNK N   1      21.030  14.723   4.886  0.00  0.00    -0.010 A 
HETATM    7  C   UNK N   1      20.641  14.615   6.233  0.00  0.00     0.088 A 
HETATM    8  C   UNK N   1      23.255  13.920   5.472  0.00  0.00     0.090 A 
HETATM    9  C   UNK N   1      22.870  13.803   6.825  0.00  0.00     0.066 A 
HETATM   10  C   UNK N   1      21.542  14.105   7.200  0.00  0.00     0.066 A 
HETATM   11  C   UNK N   1      21.091  13.821   8.601  0.00  0.00     0.197 A 
HETATM   12  C   UNK N   1      23.833  13.285   7.848  0.00  0.00     0.197 A 
HETATM   13  C   UNK N   1      23.352  12.933   9.199  0.00  0.00     0.029 A 
HETATM   14  C   UNK N   1      22.018  13.176   9.560  0.00  0.00     0.029 A 
HETATM   15  C   UNK N   1      21.564  12.788  10.830  0.00  0.00     0.016 A 
HETATM   16  C   UNK N   1      22.431  12.164  11.731  0.00  0.00     0.001 A 
HETATM   17  C   UNK N   1      23.762  11.937  11.376  0.00  0.00     0.001 A 
HETATM   18  C   UNK N   1      24.222  12.321  10.114  0.00  0.00     0.016 A 
HETATM   19  O   UNK N   1      25.006  13.104   7.564  0.00  0.00    -0.286 OA
HETATM   20  O   UNK N   1      19.937  14.039   8.938  0.00  0.00    -0.286 OA
ENDROOT
BRANCH   4  21
HETATM   21  O   UNK N   1      23.620  15.147   2.609  0.00  0.00    -0.351 OA
BRANCH  21  22
HETATM   22  C   UNK N   1      24.402  14.574   1.577  0.00  0.00     0.263 C 
HETATM   23  C   UNK N   1      24.869  13.152   1.919  0.00  0.00     0.095 C 
HETATM   24  C   UNK N   1      26.393  13.091   1.937  0.00  0.00     0.153 C 
HETATM   25  C   UNK N   1      26.927  14.252   2.773  0.00  0.00     0.170 C 
HETATM   26  C   UNK N   1      26.347  15.588   2.283  0.00  0.00     0.205 C 
HETATM   27  O   UNK N   1      25.468  15.424   1.187  0.00  0.00    -0.359 OA
BRANCH  24  28
HETATM   28  O   UNK N   1      26.817  11.871   2.462  0.00  0.00    -0.393 OA
HETATM   29  H   UNK N   1      27.211  11.038   2.161  0.00  0.00     0.210 HD
ENDBRANCH  24  28
BRANCH  25  30
HETATM   30  O   UNK N   1      28.319  14.292   2.726  0.00  0.00    -0.391 OA
HETATM   31  H   UNK N   1      28.789  15.059   2.362  0.00  0.00     0.210 HD
ENDBRANCH  25  30
ENDBRANCH  21  22
ENDBRANCH   4  21
BRANCH   8  32
HETATM   32  O   UNK N   1      24.498  13.575   5.089  0.00  0.00    -0.359 OA
HETATM   33  H   UNK N   1      25.262  13.864   5.550  0.00  0.00     0.217 HD
ENDBRANCH   8  32
BRANCH   2  34
HETATM   34  N   UNK N   1      19.128  14.443   1.798  0.00  0.00    -0.415 N 
HETATM   35  H   UNK N   1      18.715  14.514   0.868  0.00  0.00     0.151 HD
HETATM   36  H   UNK N   1      18.614  13.836   2.436  0.00  0.00     0.151 HD
ENDBRANCH   2  34
BRANCH   2  37
HETATM   37  C   UNK N   1      20.581  16.376   1.696  0.00  0.00     0.150 C 
HETATM   38  O   UNK N   1      20.687  16.435   0.483  0.00  0.00    -0.296 OA
HETATM   39  C   UNK N   1      20.688  17.644   2.492  0.00  0.00     0.093 C 
ENDBRANCH   2  37
BRANCH   7  40
HETATM   40  O   UNK N   1      19.385  14.950   6.580  0.00  0.00    -0.359 OA
HETATM   41  H   UNK N   1      18.838  15.471   6.025  0.00  0.00     0.217 HD
ENDBRANCH   7  40
TORSDOF 8
ENDMDL
MODEL 4
REMARK VINA RESULT:      -7.8     12.645     15.499
REMARK  8 active torsions:
REMARK  status: ('A' for Active; 'I' for Inactive)
REMARK    1  A    between atoms: C_2  and  N_19 
REMARK    2  A    between atoms: C_2  and  C_20 
REMARK    3  A    between atoms: C_4  and  O_23 
REMARK    4  A    between atoms: C_7  and  O_33 
REMARK    5  A    between atoms: C_8  and  O_32 
REMARK    6  A    between atoms: C_24  and  O_23 
REMARK    7  A    between atoms: C_26  and  O_31 
REMARK    8  A    between atoms: C_27  and  O_30 
ROOT
HETATM    1  C   UNK N   1      38.005  13.695  10.017  0.00  0.00     0.075 C 
HETATM    2  C   UNK N   1      38.334  12.304   9.488  0.00  0.00     0.091 C 
HETATM    3  C   UNK N   1      38.175  11.219  10.565  0.00  0.00     0.080 C 
HETATM    4  C   UNK N   1      36.773  13.831  10.913  0.00  0.00     0.163 C 
HETATM    5  C   UNK N   1      36.681  12.750  11.959  0.00  0.00     0.014 A 
HETATM    6  C   UNK N   1      37.414  11.558  11.830  0.00  0.00    -0.010 A 
HETATM    7  C   UNK N   1      37.504  10.674  12.920  0.00  0.00     0.088 A 
HETATM    8  C   UNK N   1      35.947  13.002  13.133  0.00  0.00     0.090 A 
HETATM    9  C   UNK N   1      36.038  12.123  14.234  0.00  0.00     0.066 A 
HETATM   10  C   UNK N   1      36.860  10.979  14.145  0.00  0.00     0.066 A 
HETATM   11  C   UNK N   1      37.087  10.140  15.366  0.00  0.00     0.197 A 
HETATM   12  C   UNK N   1      35.337  12.438  15.518  0.00  0.00     0.197 A 
HETATM   13  C   UNK N   1      35.635  11.652  16.732  0.00  0.00     0.029 A 
HETATM   14  C   UNK N   1      36.498  10.547  16.663  0.00  0.00     0.029 A 
HETATM   15  C   UNK N   1      36.813   9.841  17.835  0.00  0.00     0.016 A 
HETATM   16  C   UNK N   1      36.272  10.233  19.063  0.00  0.00     0.001 A 
HETATM   17  C   UNK N   1      35.402  11.323  19.127  0.00  0.00     0.001 A 
HETATM   18  C   UNK N   1      35.084  12.030  17.966  0.00  0.00     0.016 A 
HETATM   19  O   UNK N   1      34.552  13.372  15.588  0.00  0.00    -0.286 OA
HETATM   20  O   UNK N   1      37.823   9.166  15.323  0.00  0.00    -0.286 OA
ENDROOT
BRANCH   4  21
HETATM   21  O   UNK N   1      35.572  14.001  10.184  0.00  0.00    -0.351 OA
BRANCH  21  22
HETATM   22  C   UNK N   1      35.676  15.195   9.430  0.00  0.00     0.263 C 
HETATM   23  C   UNK N   1      34.653  16.252   9.867  0.00  0.00     0.095 C 
HETATM   24  C   UNK N   1      33.736  16.607   8.701  0.00  0.00     0.153 C 
HETATM   25  C   UNK N   1      33.222  15.319   8.062  0.00  0.00     0.170 C 
HETATM   26  C   UNK N   1      34.390  14.389   7.697  0.00  0.00     0.205 C 
HETATM   27  O   UNK N   1      35.646  14.943   8.035  0.00  0.00    -0.359 OA
BRANCH  24  28
HETATM   28  O   UNK N   1      32.674  17.391   9.148  0.00  0.00    -0.393 OA
HETATM   29  H   UNK N   1      31.756  17.288   9.445  0.00  0.00     0.210 HD
ENDBRANCH  24  28
BRANCH  25  30
HETATM   30  O   UNK N   1      32.465  15.601   6.927  0.00  0.00    -0.391 OA
HETATM   31  H   UNK N   1      31.570  15.242   6.816  0.00  0.00     0.210 HD
ENDBRANCH  25  30
ENDBRANCH  21  22
ENDBRANCH   4  21
BRANCH   8  32
HETATM   32  O   UNK N   1      35.219  14.131  13.225  0.00  0.00    -0.359 OA
HETATM   33  H   UNK N   1      35.255  14.689  13.977  0.00  0.00     0.217 HD
ENDBRANCH   8  32
BRANCH   2  34
HETATM   34  N   UNK N   1      39.748  12.321   9.146  0.00  0.00    -0.415 N 
HETATM   35  H   UNK N   1      40.542  12.812   9.557  0.00  0.00     0.151 HD
HETATM   36  H   UNK N   1      39.990  11.734   8.348  0.00  0.00     0.151 HD
ENDBRANCH   2  34
BRANCH   2  37
HETATM   37  C   UNK N   1      37.526  12.005   8.239  0.00  0.00     0.150 C 
HETATM   38  O   UNK N   1      37.842  12.493   7.167  0.00  0.00    -0.296 OA
HETATM   39  C   UNK N   1      36.344  11.082   8.291  0.00  0.00     0.093 C 
ENDBRANCH   2  37
BRANCH   7  40
HETATM   40  O   UNK N   1      38.256   9.564  12.803  0.00  0.00    -0.359 OA
HETATM   41  H   UNK N   1      38.949   9.368  13.402  0.00  0.00     0.217 HD
ENDBRANCH   7  40
TORSDOF 8
ENDMDL
MODEL 5
REMARK VINA RESULT:      -7.8      1.966      4.771
REMARK  8 active torsions:
REMARK  status: ('A' for Active; 'I' for Inactive)
REMARK    1  A    between atoms: C_2  and  N_19 
REMARK    2  A    between atoms: C_2  and  C_20 
REMARK    3  A    between atoms: C_4  and  O_23 
REMARK    4  A    between atoms: C_7  and  O_33 
REMARK    5  A    between atoms: C_8  and  O_32 
REMARK    6  A    between atoms: C_24  and  O_23 
REMARK    7  A    between atoms: C_26  and  O_31 
REMARK    8  A    between atoms: C_27  and  O_30 
ROOT
HETATM    1  C   UNK N   1      24.346  18.043   5.227  0.00  0.00     0.075 C 
HETATM    2  C   UNK N   1      25.558  17.209   4.832  0.00  0.00     0.091 C 
HETATM    3  C   UNK N   1      25.656  15.905   5.640  0.00  0.00     0.080 C 
HETATM    4  C   UNK N   1      23.026  17.302   5.446  0.00  0.00     0.163 C 
HETATM    5  C   UNK N   1      23.183  16.043   6.260  0.00  0.00     0.014 A 
HETATM    6  C   UNK N   1      24.442  15.439   6.418  0.00  0.00    -0.010 A 
HETATM    7  C   UNK N   1      24.609  14.415   7.367  0.00  0.00     0.088 A 
HETATM    8  C   UNK N   1      22.070  15.546   6.964  0.00  0.00     0.090 A 
HETATM    9  C   UNK N   1      22.231  14.524   7.923  0.00  0.00     0.066 A 
HETATM   10  C   UNK N   1      23.516  13.989   8.162  0.00  0.00     0.066 A 
HETATM   11  C   UNK N   1      23.714  13.026   9.293  0.00  0.00     0.197 A 
HETATM   12  C   UNK N   1      21.068  14.061   8.744  0.00  0.00     0.197 A 
HETATM   13  C   UNK N   1      21.293  13.177   9.906  0.00  0.00     0.029 A 
HETATM   14  C   UNK N   1      22.579  12.688  10.184  0.00  0.00     0.029 A 
HETATM   15  C   UNK N   1      22.786  11.892  11.321  0.00  0.00     0.016 A 
HETATM   16  C   UNK N   1      21.720  11.586  12.172  0.00  0.00     0.001 A 
HETATM   17  C   UNK N   1      20.439  12.059  11.886  0.00  0.00     0.001 A 
HETATM   18  C   UNK N   1      20.225  12.852  10.756  0.00  0.00     0.016 A 
HETATM   19  O   UNK N   1      19.936  14.443   8.494  0.00  0.00    -0.286 OA
HETATM   20  O   UNK N   1      24.823  12.579   9.542  0.00  0.00    -0.286 OA
ENDROOT
BRANCH   4  21
HETATM   21  O   UNK N   1      22.296  17.102   4.250  0.00  0.00    -0.351 OA
BRANCH  21  22
HETATM   22  C   UNK N   1      21.057  17.778   4.369  0.00  0.00     0.263 C 
HETATM   23  C   UNK N   1      20.003  17.241   3.390  0.00  0.00     0.095 C 
HETATM   24  C   UNK N   1      19.545  18.352   2.451  0.00  0.00     0.153 C 
HETATM   25  C   UNK N   1      20.772  19.060   1.881  0.00  0.00     0.170 C 
HETATM   26  C   UNK N   1      21.708  19.521   3.010  0.00  0.00     0.205 C 
HETATM   27  O   UNK N   1      21.213  19.185   4.291  0.00  0.00    -0.359 OA
BRANCH  24  28
HETATM   28  O   UNK N   1      18.763  17.822   1.427  0.00  0.00    -0.393 OA
HETATM   29  H   UNK N   1      18.123  18.118   0.761  0.00  0.00     0.210 HD
ENDBRANCH  24  28
BRANCH  25  30
HETATM   30  O   UNK N   1      20.393  20.150   1.102  0.00  0.00    -0.391 OA
HETATM   31  H   UNK N   1      20.611  20.194   0.157  0.00  0.00     0.210 HD
ENDBRANCH  25  30
ENDBRANCH  21  22
ENDBRANCH   4  21
BRANCH   8  32
HETATM   32  O   UNK N   1      20.863  16.111   6.771  0.00  0.00    -0.359 OA
HETATM   33  H   UNK N   1      20.764  17.018   6.557  0.00  0.00     0.217 HD
ENDBRANCH   8  32
BRANCH   2  34
HETATM   34  N   UNK N   1      26.729  17.991   5.196  0.00  0.00    -0.415 N 
HETATM   35  H   UNK N   1      27.059  18.905   4.887  0.00  0.00     0.151 HD
HETATM   36  H   UNK N   1      27.331  17.543   5.886  0.00  0.00     0.151 HD
ENDBRANCH   2  34
BRANCH   2  37
HETATM   37  C   UNK N   1      25.570  16.965   3.335  0.00  0.00     0.150 C 
HETATM   38  O   UNK N   1      25.967  17.829   2.571  0.00  0.00    -0.296 OA
HETATM   39  C   UNK N   1      25.126  15.649   2.766  0.00  0.00     0.093 C 
ENDBRANCH   2  37
BRANCH   7  40
HETATM   40  O   UNK N   1      25.833  13.886   7.549  0.00  0.00    -0.359 OA
HETATM   41  H   UNK N   1      26.218  13.299   6.928  0.00  0.00     0.217 HD
ENDBRANCH   7  40
TORSDOF 8
ENDMDL
MODEL 6
REMARK VINA RESULT:      -7.7     12.920     15.757
REMARK  8 active torsions:
REMARK  status: ('A' for Active; 'I' for Inactive)
REMARK    1  A    between atoms: C_2  and  N_19 
REMARK    2  A    between atoms: C_2  and  C_20 
REMARK    3  A    between atoms: C_4  and  O_23 
REMARK    4  A    between atoms: C_7  and  O_33 
REMARK    5  A    between atoms: C_8  and  O_32 
REMARK    6  A    between atoms: C_24  and  O_23 
REMARK    7  A    between atoms: C_26  and  O_31 
REMARK    8  A    between atoms: C_27  and  O_30 
ROOT
HETATM    1  C   UNK N   1      37.711  11.814  10.332  0.00  0.00     0.075 C 
HETATM    2  C   UNK N   1      37.766  10.299  10.180  0.00  0.00     0.091 C 
HETATM    3  C   UNK N   1      37.480   9.571  11.504  0.00  0.00     0.080 C 
HETATM    4  C   UNK N   1      36.571  12.394  11.171  0.00  0.00     0.163 C 
HETATM    5  C   UNK N   1      36.350  11.650  12.463  0.00  0.00     0.014 A 
HETATM    6  C   UNK N   1      36.859  10.352  12.643  0.00  0.00    -0.010 A 
HETATM    7  C   UNK N   1      36.853   9.774  13.925  0.00  0.00     0.088 A 
HETATM    8  C   UNK N   1      35.735  12.321  13.536  0.00  0.00     0.090 A 
HETATM    9  C   UNK N   1      35.732  11.750  14.827  0.00  0.00     0.066 A 
HETATM   10  C   UNK N   1      36.338  10.491  15.033  0.00  0.00     0.066 A 
HETATM   11  C   UNK N   1      36.483   9.964  16.428  0.00  0.00     0.197 A 
HETATM   12  C   UNK N   1      35.166  12.503  15.990  0.00  0.00     0.197 A 
HETATM   13  C   UNK N   1      35.389  12.010  17.365  0.00  0.00     0.029 A 
HETATM   14  C   UNK N   1      36.043  10.787  17.579  0.00  0.00     0.029 A 
HETATM   15  C   UNK N   1      36.294  10.358  18.892  0.00  0.00     0.016 A 
HETATM   16  C   UNK N   1      35.896  11.140  19.980  0.00  0.00     0.001 A 
HETATM   17  C   UNK N   1      35.232  12.349  19.765  0.00  0.00     0.001 A 
HETATM   18  C   UNK N   1      34.978  12.783  18.462  0.00  0.00     0.016 A 
HETATM   19  O   UNK N   1      34.559  13.549  15.821  0.00  0.00    -0.286 OA
HETATM   20  O   UNK N   1      37.036   8.895  16.634  0.00  0.00    -0.286 OA
ENDROOT
BRANCH   4  21
HETATM   21  O   UNK N   1      35.380  12.587  10.432  0.00  0.00    -0.351 OA
BRANCH  21  22
HETATM   22  C   UNK N   1      35.598  13.634   9.504  0.00  0.00     0.263 C 
HETATM   23  C   UNK N   1      35.835  14.985  10.193  0.00  0.00     0.095 C 
HETATM   24  C   UNK N   1      34.764  15.985   9.768  0.00  0.00     0.153 C 
HETATM   25  C   UNK N   1      33.391  15.331   9.903  0.00  0.00     0.170 C 
HETATM   26  C   UNK N   1      33.350  13.992   9.151  0.00  0.00     0.205 C 
HETATM   27  O   UNK N   1      34.579  13.690   8.520  0.00  0.00    -0.359 OA
BRANCH  24  28
HETATM   28  O   UNK N   1      34.842  17.133  10.555  0.00  0.00    -0.393 OA
HETATM   29  H   UNK N   1      34.723  17.401  11.480  0.00  0.00     0.210 HD
ENDBRANCH  24  28
BRANCH  25  30
HETATM   30  O   UNK N   1      32.395  16.178   9.423  0.00  0.00    -0.391 OA
HETATM   31  H   UNK N   1      32.085  16.121   8.504  0.00  0.00     0.210 HD
ENDBRANCH  25  30
ENDBRANCH  21  22
ENDBRANCH   4  21
BRANCH   8  32
HETATM   32  O   UNK N   1      35.218  13.548  13.337  0.00  0.00    -0.359 OA
HETATM   33  H   UNK N   1      35.685  14.329  13.562  0.00  0.00     0.217 HD
ENDBRANCH   8  32
BRANCH   2  34
HETATM   34  N   UNK N   1      39.141   9.973   9.836  0.00  0.00    -0.415 N 
HETATM   35  H   UNK N   1      39.787   9.274  10.203  0.00  0.00     0.151 HD
HETATM   36  H   UNK N   1      39.532  10.549   9.091  0.00  0.00     0.151 HD
ENDBRANCH   2  34
BRANCH   2  37
HETATM   37  C   UNK N   1      36.852   9.843   9.059  0.00  0.00     0.150 C 
HETATM   38  O   UNK N   1      36.957  10.324   7.943  0.00  0.00    -0.296 OA
HETATM   39  C   UNK N   1      35.826   8.773   9.290  0.00  0.00     0.093 C 
ENDBRANCH   2  37
BRANCH   7  40
HETATM   40  O   UNK N   1      37.395   8.554  14.094  0.00  0.00    -0.359 OA
HETATM   41  H   UNK N   1      37.315   8.082  14.900  0.00  0.00     0.217 HD
ENDBRANCH   7  40
TORSDOF 8
ENDMDL
MODEL 7
REMARK VINA RESULT:      -7.5     14.478     16.964
REMARK  8 active torsions:
REMARK  status: ('A' for Active; 'I' for Inactive)
REMARK    1  A    between atoms: C_2  and  N_19 
REMARK    2  A    between atoms: C_2  and  C_20 
REMARK    3  A    between atoms: C_4  and  O_23 
REMARK    4  A    between atoms: C_7  and  O_33 
REMARK    5  A    between atoms: C_8  and  O_32 
REMARK    6  A    between atoms: C_24  and  O_23 
REMARK    7  A    between atoms: C_26  and  O_31 
REMARK    8  A    between atoms: C_27  and  O_30 
ROOT
HETATM    1  C   UNK N   1      34.430  20.308  -6.106  0.00  0.00     0.075 C 
HETATM    2  C   UNK N   1      34.631  19.899  -4.652  0.00  0.00     0.091 C 
HETATM    3  C   UNK N   1      33.526  20.450  -3.734  0.00  0.00     0.080 C 
HETATM    4  C   UNK N   1      33.008  20.230  -6.666  0.00  0.00     0.163 C 
HETATM    5  C   UNK N   1      31.973  20.800  -5.731  0.00  0.00     0.014 A 
HETATM    6  C   UNK N   1      32.256  20.982  -4.366  0.00  0.00    -0.010 A 
HETATM    7  C   UNK N   1      31.375  21.730  -3.566  0.00  0.00     0.088 A 
HETATM    8  C   UNK N   1      30.757  21.265  -6.266  0.00  0.00     0.090 A 
HETATM    9  C   UNK N   1      29.871  22.023  -5.470  0.00  0.00     0.066 A 
HETATM   10  C   UNK N   1      30.205  22.299  -4.127  0.00  0.00     0.066 A 
HETATM   11  C   UNK N   1      29.349  23.241  -3.334  0.00  0.00     0.197 A 
HETATM   12  C   UNK N   1      28.625  22.604  -6.062  0.00  0.00     0.197 A 
HETATM   13  C   UNK N   1      27.838  23.593  -5.298  0.00  0.00     0.029 A 
HETATM   14  C   UNK N   1      28.199  23.916  -3.980  0.00  0.00     0.029 A 
HETATM   15  C   UNK N   1      27.474  24.896  -3.285  0.00  0.00     0.016 A 
HETATM   16  C   UNK N   1      26.399  25.547  -3.898  0.00  0.00     0.001 A 
HETATM   17  C   UNK N   1      26.032  25.213  -5.202  0.00  0.00     0.001 A 
HETATM   18  C   UNK N   1      26.749  24.239  -5.901  0.00  0.00     0.016 A 
HETATM   19  O   UNK N   1      28.273  22.305  -7.192  0.00  0.00    -0.286 OA
HETATM   20  O   UNK N   1      29.638  23.523  -2.182  0.00  0.00    -0.286 OA
ENDROOT
BRANCH   4  21
HETATM   21  O   UNK N   1      32.671  18.943  -7.149  0.00  0.00    -0.351 OA
BRANCH  21  22
HETATM   22  C   UNK N   1      32.918  18.914  -8.543  0.00  0.00     0.263 C 
HETATM   23  C   UNK N   1      31.708  18.405  -9.340  0.00  0.00     0.095 C 
HETATM   24  C   UNK N   1      32.083  17.145 -10.112  0.00  0.00     0.153 C 
HETATM   25  C   UNK N   1      32.792  16.175  -9.170  0.00  0.00     0.170 C 
HETATM   26  C   UNK N   1      33.970  16.866  -8.465  0.00  0.00     0.205 C 
HETATM   27  O   UNK N   1      34.113  18.218  -8.853  0.00  0.00    -0.359 OA
BRANCH  24  28
HETATM   28  O   UNK N   1      30.940  16.557 -10.653  0.00  0.00    -0.393 OA
HETATM   29  H   UNK N   1      30.523  15.684 -10.722  0.00  0.00     0.210 HD
ENDBRANCH  24  28
BRANCH  25  30
HETATM   30  O   UNK N   1      33.244  15.056  -9.866  0.00  0.00    -0.391 OA
HETATM   31  H   UNK N   1      33.007  14.158  -9.585  0.00  0.00     0.210 HD
ENDBRANCH  25  30
ENDBRANCH  21  22
ENDBRANCH   4  21
BRANCH   8  32
HETATM   32  O   UNK N   1      30.484  21.049  -7.566  0.00  0.00    -0.359 OA
HETATM   33  H   UNK N   1      29.639  21.217  -7.934  0.00  0.00     0.217 HD
ENDBRANCH   8  32
BRANCH   2  34
HETATM   34  N   UNK N   1      35.863  20.537  -4.215  0.00  0.00    -0.415 N 
HETATM   35  H   UNK N   1      36.512  20.318  -3.459  0.00  0.00     0.151 HD
HETATM   36  H   UNK N   1      36.128  21.353  -4.767  0.00  0.00     0.151 HD
ENDBRANCH   2  34
BRANCH   2  37
HETATM   37  C   UNK N   1      34.783  18.395  -4.538  0.00  0.00     0.150 C 
HETATM   38  O   UNK N   1      34.044  17.752  -3.810  0.00  0.00    -0.296 OA
HETATM   39  C   UNK N   1      35.820  17.664  -5.338  0.00  0.00     0.093 C 
ENDBRANCH   2  37
BRANCH   7  40
HETATM   40  O   UNK N   1      31.687  21.945  -2.274  0.00  0.00    -0.359 OA
HETATM   41  H   UNK N   1      32.225  21.352  -1.788  0.00  0.00     0.217 HD
ENDBRANCH   7  40
TORSDOF 8
ENDMDL
MODEL 8
REMARK VINA RESULT:      -7.2      4.619      7.699
REMARK  8 active torsions:
REMARK  status: ('A' for Active; 'I' for Inactive)
REMARK    1  A    between atoms: C_2  and  N_19 
REMARK    2  A    between atoms: C_2  and  C_20 
REMARK    3  A    between atoms: C_4  and  O_23 
REMARK    4  A    between atoms: C_7  and  O_33 
REMARK    5  A    between atoms: C_8  and  O_32 
REMARK    6  A    between atoms: C_24  and  O_23 
REMARK    7  A    between atoms: C_26  and  O_31 
REMARK    8  A    between atoms: C_27  and  O_30 
ROOT
HETATM    1  C   UNK N   1      24.851  18.169   5.401  0.00  0.00     0.075 C 
HETATM    2  C   UNK N   1      26.170  18.808   4.985  0.00  0.00     0.091 C 
HETATM    3  C   UNK N   1      27.013  17.880   4.095  0.00  0.00     0.080 C 
HETATM    4  C   UNK N   1      24.076  17.400   4.329  0.00  0.00     0.163 C 
HETATM    5  C   UNK N   1      24.951  16.495   3.502  0.00  0.00     0.014 A 
HETATM    6  C   UNK N   1      26.345  16.674   3.467  0.00  0.00    -0.010 A 
HETATM    7  C   UNK N   1      27.160  15.683   2.890  0.00  0.00     0.088 A 
HETATM    8  C   UNK N   1      24.366  15.386   2.861  0.00  0.00     0.090 A 
HETATM    9  C   UNK N   1      25.179  14.385   2.286  0.00  0.00     0.066 A 
HETATM   10  C   UNK N   1      26.584  14.509   2.345  0.00  0.00     0.066 A 
HETATM   11  C   UNK N   1      27.443  13.370   1.886  0.00  0.00     0.197 A 
HETATM   12  C   UNK N   1      24.564  13.157   1.691  0.00  0.00     0.197 A 
HETATM   13  C   UNK N   1      25.420  12.011   1.320  0.00  0.00     0.029 A 
HETATM   14  C   UNK N   1      26.816  12.107   1.431  0.00  0.00     0.029 A 
HETATM   15  C   UNK N   1      27.612  10.992   1.126  0.00  0.00     0.016 A 
HETATM   16  C   UNK N   1      27.022   9.794   0.713  0.00  0.00     0.001 A 
HETATM   17  C   UNK N   1      25.635   9.706   0.588  0.00  0.00     0.001 A 
HETATM   18  C   UNK N   1      24.835  10.810   0.890  0.00  0.00     0.016 A 
HETATM   19  O   UNK N   1      23.355  13.070   1.550  0.00  0.00    -0.286 OA
HETATM   20  O   UNK N   1      28.660  13.440   1.961  0.00  0.00    -0.286 OA
ENDROOT
BRANCH   4  21
HETATM   21  O   UNK N   1      23.240  18.232   3.546  0.00  0.00    -0.351 OA
BRANCH  21  22
HETATM   22  C   UNK N   1      22.131  18.618   4.337  0.00  0.00     0.263 C 
HETATM   23  C   UNK N   1      21.175  17.449   4.614  0.00  0.00     0.095 C 
HETATM   24  C   UNK N   1      19.793  17.758   4.050  0.00  0.00     0.153 C 
HETATM   25  C   UNK N   1      19.940  18.252   2.613  0.00  0.00     0.170 C 
HETATM   26  C   UNK N   1      20.936  19.420   2.538  0.00  0.00     0.205 C 
HETATM   27  O   UNK N   1      21.471  19.753   3.804  0.00  0.00    -0.359 OA
BRANCH  24  28
HETATM   28  O   UNK N   1      18.990  16.620   4.099  0.00  0.00    -0.393 OA
HETATM   29  H   UNK N   1      18.994  15.702   3.785  0.00  0.00     0.210 HD
ENDBRANCH  24  28
BRANCH  25  30
HETATM   30  O   UNK N   1      18.706  18.646   2.100  0.00  0.00    -0.391 OA
HETATM   31  H   UNK N   1      18.174  19.331   2.537  0.00  0.00     0.210 HD
ENDBRANCH  25  30
ENDBRANCH  21  22
ENDBRANCH   4  21
BRANCH   8  32
HETATM   32  O   UNK N   1      23.027  15.250   2.870  0.00  0.00    -0.359 OA
HETATM   33  H   UNK N   1      22.576  14.798   3.555  0.00  0.00     0.217 HD
ENDBRANCH   8  32
BRANCH   2  34
HETATM   34  N   UNK N   1      26.938  18.992   6.207  0.00  0.00    -0.415 N 
HETATM   35  H   UNK N   1      27.760  18.510   6.573  0.00  0.00     0.151 HD
HETATM   36  H   UNK N   1      26.592  19.739   6.808  0.00  0.00     0.151 HD
ENDBRANCH   2  34
BRANCH   2  37
HETATM   37  C   UNK N   1      25.927  20.161   4.344  0.00  0.00     0.150 C 
HETATM   38  O   UNK N   1      25.893  21.171   5.027  0.00  0.00    -0.296 OA
HETATM   39  C   UNK N   1      25.755  20.289   2.859  0.00  0.00     0.093 C 
ENDBRANCH   2  37
BRANCH   7  40
HETATM   40  O   UNK N   1      28.496  15.840   2.915  0.00  0.00    -0.359 OA
HETATM   41  H   UNK N   1      28.981  16.090   2.153  0.00  0.00     0.217 HD
ENDBRANCH   7  40
TORSDOF 8
ENDMDL
MODEL 9
REMARK VINA RESULT:      -7.2      8.071     12.049
REMARK  8 active torsions:
REMARK  status: ('A' for Active; 'I' for Inactive)
REMARK    1  A    between atoms: C_2  and  N_19 
REMARK    2  A    between atoms: C_2  and  C_20 
REMARK    3  A    between atoms: C_4  and  O_23 
REMARK    4  A    between atoms: C_7  and  O_33 
REMARK    5  A    between atoms: C_8  and  O_32 
REMARK    6  A    between atoms: C_24  and  O_23 
REMARK    7  A    between atoms: C_26  and  O_31 
REMARK    8  A    between atoms: C_27  and  O_30 
ROOT
HETATM    1  C   UNK N   1      33.613  12.449   7.524  0.00  0.00     0.075 C 
HETATM    2  C   UNK N   1      34.261  12.583   6.152  0.00  0.00     0.091 C 
HETATM    3  C   UNK N   1      33.624  13.705   5.314  0.00  0.00     0.080 C 
HETATM    4  C   UNK N   1      33.300  13.741   8.281  0.00  0.00     0.163 C 
HETATM    5  C   UNK N   1      32.662  14.795   7.414  0.00  0.00     0.014 A 
HETATM    6  C   UNK N   1      32.745  14.722   6.012  0.00  0.00    -0.010 A 
HETATM    7  C   UNK N   1      31.948  15.569   5.223  0.00  0.00     0.088 A 
HETATM    8  C   UNK N   1      31.873  15.788   8.022  0.00  0.00     0.090 A 
HETATM    9  C   UNK N   1      31.065  16.638   7.236  0.00  0.00     0.066 A 
HETATM   10  C   UNK N   1      31.064  16.495   5.832  0.00  0.00     0.066 A 
HETATM   11  C   UNK N   1      30.086  17.280   5.012  0.00  0.00     0.197 A 
HETATM   12  C   UNK N   1      30.150  17.630   7.884  0.00  0.00     0.197 A 
HETATM   13  C   UNK N   1      29.135  18.334   7.073  0.00  0.00     0.029 A 
HETATM   14  C   UNK N   1      29.092  18.152   5.682  0.00  0.00     0.029 A 
HETATM   15  C   UNK N   1      28.089  18.787   4.933  0.00  0.00     0.016 A 
HETATM   16  C   UNK N   1      27.140  19.596   5.564  0.00  0.00     0.001 A 
HETATM   17  C   UNK N   1      27.195  19.788   6.945  0.00  0.00     0.001 A 
HETATM   18  C   UNK N   1      28.189  19.160   7.699  0.00  0.00     0.016 A 
HETATM   19  O   UNK N   1      30.199  17.831   9.087  0.00  0.00    -0.286 OA
HETATM   20  O   UNK N   1      30.042  17.146   3.799  0.00  0.00    -0.286 OA
ENDROOT
BRANCH   4  21
HETATM   21  O   UNK N   1      34.400  14.227   9.027  0.00  0.00    -0.351 OA
BRANCH  21  22
HETATM   22  C   UNK N   1      34.264  13.779  10.363  0.00  0.00     0.263 C 
HETATM   23  C   UNK N   1      34.723  14.832  11.382  0.00  0.00     0.095 C 
HETATM   24  C   UNK N   1      35.874  14.284  12.219  0.00  0.00     0.153 C 
HETATM   25  C   UNK N   1      36.917  13.669  11.289  0.00  0.00     0.170 C 
HETATM   26  C   UNK N   1      36.269  12.644  10.345  0.00  0.00     0.205 C 
HETATM   27  O   UNK N   1      34.877  12.517  10.563  0.00  0.00    -0.359 OA
BRANCH  24  28
HETATM   28  O   UNK N   1      36.438  15.303  12.984  0.00  0.00    -0.393 OA
HETATM   29  H   UNK N   1      37.313  15.633  13.242  0.00  0.00     0.210 HD
ENDBRANCH  24  28
BRANCH  25  30
HETATM   30  O   UNK N   1      37.934  13.063  12.023  0.00  0.00    -0.391 OA
HETATM   31  H   UNK N   1      37.801  12.202  12.452  0.00  0.00     0.210 HD
ENDBRANCH  25  30
ENDBRANCH  21  22
ENDBRANCH   4  21
BRANCH   8  32
HETATM   32  O   UNK N   1      31.835  15.869   9.366  0.00  0.00    -0.359 OA
HETATM   33  H   UNK N   1      31.394  16.564   9.812  0.00  0.00     0.217 HD
ENDBRANCH   8  32
BRANCH   2  34
HETATM   34  N   UNK N   1      33.975  11.346   5.442  0.00  0.00    -0.415 N 
HETATM   35  H   UNK N   1      33.408  11.151   4.617  0.00  0.00     0.151 HD
HETATM   36  H   UNK N   1      34.423  10.523   5.843  0.00  0.00     0.151 HD
ENDBRANCH   2  34
BRANCH   2  37
HETATM   37  C   UNK N   1      35.763  12.742   6.286  0.00  0.00     0.150 C 
HETATM   38  O   UNK N   1      36.453  11.806   6.656  0.00  0.00    -0.296 OA
HETATM   39  C   UNK N   1      36.434  14.038   5.936  0.00  0.00     0.093 C 
ENDBRANCH   2  37
BRANCH   7  40
HETATM   40  O   UNK N   1      31.994  15.450   3.883  0.00  0.00    -0.359 OA
HETATM   41  H   UNK N   1      32.420  16.086   3.342  0.00  0.00     0.217 HD
ENDBRANCH   7  40
TORSDOF 8
ENDMDL
