MODEL 1
REMARK VINA RESULT:      -5.9      0.000      0.000
REMARK  10 active torsions:
REMARK  status: ('A' for Active; 'I' for Inactive)
REMARK    1  A    between atoms: C_2  and  N_18 
REMARK    2  A    between atoms: C_8  and  C_11 
REMARK    3  A    between atoms: C_11  and  C_12 
REMARK    4  A    between atoms: C_12  and  C_13 
REMARK    5  A    between atoms: C_13  and  C_14 
REMARK    6  A    between atoms: C_14  and  O_16 
REMARK    7  A    between atoms: N_18  and  C_19 
REMARK    8  A    between atoms: N_18  and  C_20 
REMARK    9  A    between atoms: C_19  and  C_23 
REMARK   10  A    between atoms: C_20  and  C_21 
ROOT
HETATM    1  C   UNK N   1      34.378  14.737  11.277  0.00  0.00     0.061 A 
HETATM    2  C   UNK N   1      35.517  13.903  11.378  0.00  0.00     0.032 A 
HETATM    3  C   UNK N   1      36.298  13.646  10.216  0.00  0.00     0.031 A 
HETATM    4  C   UNK N   1      34.064  15.262  10.031  0.00  0.00     0.062 A 
HETATM    5  C   UNK N   1      34.821  15.012   8.927  0.00  0.00     0.062 A 
HETATM    6  C   UNK N   1      35.957  14.211   8.973  0.00  0.00     0.034 A 
HETATM    7  N   UNK N   1      34.273  15.636   7.878  0.00  0.00    -0.339 N 
HETATM    8  C   UNK N   1      33.170  16.253   8.371  0.00  0.00     0.084 A 
HETATM    9  N   UNK N   1      33.018  16.045   9.703  0.00  0.00    -0.344 N 
ATOM     10  HN  UNK N   1      32.281  16.398  10.315  1.00  0.00     0.167 HD
HETATM   11  C   UNK N   1      34.756  15.634   6.505  0.00  0.00     0.158 C 
ENDROOT
BRANCH   2  12
HETATM   12  N   UNK N   1      35.884  13.326  12.634  0.00  0.00    -0.379 N 
BRANCH  12  13
HETATM   13  C   UNK N   1      35.984  11.890  12.800  0.00  0.00     0.138 C 
BRANCH  13  14
HETATM   14  C   UNK N   1      34.635  11.232  12.570  0.00  0.00     0.134 C 
HETATM   15 Cl   UNK N   1      33.868  10.851  14.128  0.00  0.00    -0.129 Cl
ENDBRANCH  13  14
ENDBRANCH  12  13
BRANCH  12  16
HETATM   16  C   UNK N   1      36.188  14.175  13.765  0.00  0.00     0.138 C 
BRANCH  16  17
HETATM   17  C   UNK N   1      36.721  13.363  14.929  0.00  0.00     0.134 C 
HETATM   18 Cl   UNK N   1      35.470  13.281  16.190  0.00  0.00    -0.129 Cl
ENDBRANCH  16  17
ENDBRANCH  12  16
ENDBRANCH   2  12
BRANCH   8  19
HETATM   19  C   UNK N   1      32.200  17.032   7.551  0.00  0.00     0.077 C 
BRANCH  19  20
HETATM   20  C   UNK N   1      31.365  17.893   8.483  0.00  0.00     0.018 C 
BRANCH  20  21
HETATM   21  C   UNK N   1      29.889  17.536   8.387  0.00  0.00     0.110 C 
BRANCH  21  22
HETATM   22  C   UNK N   1      29.050  18.218   9.429  0.00  0.00     0.139 C 
HETATM   23  O   UNK N   1      29.565  18.869  10.326  0.00  0.00    -0.650 OA
BRANCH  22  24
HETATM   24  O   UNK N   1      27.711  18.114   9.371  0.00  0.00    -0.776 OA
HETATM   25  H   UNK N   1      27.310  17.554   8.734  0.00  0.00     0.167 HD
ENDBRANCH  22  24
ENDBRANCH  21  22
ENDBRANCH  20  21
ENDBRANCH  19  20
ENDBRANCH   8  19
TORSDOF 10
ENDMDL
MODEL 2
REMARK VINA RESULT:      -5.9     10.211     13.430
REMARK  10 active torsions:
REMARK  status: ('A' for Active; 'I' for Inactive)
REMARK    1  A    between atoms: C_2  and  N_18 
REMARK    2  A    between atoms: C_8  and  C_11 
REMARK    3  A    between atoms: C_11  and  C_12 
REMARK    4  A    between atoms: C_12  and  C_13 
REMARK    5  A    between atoms: C_13  and  C_14 
REMARK    6  A    between atoms: C_14  and  O_16 
REMARK    7  A    between atoms: N_18  and  C_19 
REMARK    8  A    between atoms: N_18  and  C_20 
REMARK    9  A    between atoms: C_19  and  C_23 
REMARK   10  A    between atoms: C_20  and  C_21 
ROOT
HETATM    1  C   UNK N   1      24.540  18.255   4.550  0.00  0.00     0.061 A 
HETATM    2  C   UNK N   1      25.555  19.203   4.277  0.00  0.00     0.032 A 
HETATM    3  C   UNK N   1      25.244  20.350   3.495  0.00  0.00     0.031 A 
HETATM    4  C   UNK N   1      23.275  18.485   4.025  0.00  0.00     0.062 A 
HETATM    5  C   UNK N   1      22.989  19.589   3.281  0.00  0.00     0.062 A 
HETATM    6  C   UNK N   1      23.945  20.557   2.994  0.00  0.00     0.034 A 
HETATM    7  N   UNK N   1      21.707  19.535   2.905  0.00  0.00    -0.339 N 
HETATM    8  C   UNK N   1      21.235  18.375   3.427  0.00  0.00     0.084 A 
HETATM    9  N   UNK N   1      22.182  17.706   4.131  0.00  0.00    -0.344 N 
ATOM     10  HN  UNK N   1      22.088  16.818   4.626  1.00  0.00     0.167 HD
HETATM   11  C   UNK N   1      20.987  20.508   2.098  0.00  0.00     0.158 C 
ENDROOT
BRANCH   2  12
HETATM   12  N   UNK N   1      26.879  19.013   4.784  0.00  0.00    -0.379 N 
BRANCH  12  13
HETATM   13  C   UNK N   1      27.417  17.686   5.003  0.00  0.00     0.138 C 
BRANCH  13  14
HETATM   14  C   UNK N   1      28.500  17.375   3.985  0.00  0.00     0.134 C 
HETATM   15 Cl   UNK N   1      30.102  17.458   4.755  0.00  0.00    -0.129 Cl
ENDBRANCH  13  14
ENDBRANCH  12  13
BRANCH  12  16
HETATM   16  C   UNK N   1      27.721  20.156   5.064  0.00  0.00     0.138 C 
BRANCH  16  17
HETATM   17  C   UNK N   1      27.640  20.545   6.527  0.00  0.00     0.134 C 
HETATM   18 Cl   UNK N   1      26.345  21.747   6.730  0.00  0.00    -0.129 Cl
ENDBRANCH  16  17
ENDBRANCH  12  16
ENDBRANCH   2  12
BRANCH   8  19
HETATM   19  C   UNK N   1      19.853  17.856   3.220  0.00  0.00     0.077 C 
BRANCH  19  20
HETATM   20  C   UNK N   1      19.937  16.365   2.936  0.00  0.00     0.018 C 
BRANCH  20  21
HETATM   21  C   UNK N   1      20.516  16.101   1.555  0.00  0.00     0.110 C 
BRANCH  21  22
HETATM   22  C   UNK N   1      19.824  16.875   0.469  0.00  0.00     0.139 C 
HETATM   23  O   UNK N   1      20.430  17.692  -0.207  0.00  0.00    -0.650 OA
BRANCH  22  24
HETATM   24  O   UNK N   1      18.518  16.660   0.235  0.00  0.00    -0.776 OA
HETATM   25  H   UNK N   1      18.107  17.036  -0.519  0.00  0.00     0.167 HD
ENDBRANCH  22  24
ENDBRANCH  21  22
ENDBRANCH  20  21
ENDBRANCH  19  20
ENDBRANCH   8  19
TORSDOF 10
ENDMDL
MODEL 3
REMARK VINA RESULT:      -5.8      2.431      2.733
REMARK  10 active torsions:
REMARK  status: ('A' for Active; 'I' for Inactive)
REMARK    1  A    between atoms: C_2  and  N_18 
REMARK    2  A    between atoms: C_8  and  C_11 
REMARK    3  A    between atoms: C_11  and  C_12 
REMARK    4  A    between atoms: C_12  and  C_13 
REMARK    5  A    between atoms: C_13  and  C_14 
REMARK    6  A    between atoms: C_14  and  O_16 
REMARK    7  A    between atoms: N_18  and  C_19 
REMARK    8  A    between atoms: N_18  and  C_20 
REMARK    9  A    between atoms: C_19  and  C_23 
REMARK   10  A    between atoms: C_20  and  C_21 
ROOT
HETATM    1  C   UNK N   1      34.438  14.004  11.542  0.00  0.00     0.061 A 
HETATM    2  C   UNK N   1      35.244  12.842  11.495  0.00  0.00     0.032 A 
HETATM    3  C   UNK N   1      35.437  12.178  10.250  0.00  0.00     0.031 A 
HETATM    4  C   UNK N   1      33.856  14.442  10.359  0.00  0.00     0.062 A 
HETATM    5  C   UNK N   1      34.051  13.801   9.174  0.00  0.00     0.062 A 
HETATM    6  C   UNK N   1      34.844  12.662   9.070  0.00  0.00     0.034 A 
HETATM    7  N   UNK N   1      33.362  14.437   8.220  0.00  0.00    -0.339 N 
HETATM    8  C   UNK N   1      32.743  15.462   8.858  0.00  0.00     0.084 A 
HETATM    9  N   UNK N   1      33.034  15.494  10.182  0.00  0.00    -0.344 N 
ATOM     10  HN  UNK N   1      32.707  16.161  10.882  1.00  0.00     0.167 HD
HETATM   11  C   UNK N   1      33.288  14.088   6.810  0.00  0.00     0.158 C 
ENDROOT
BRANCH   2  12
HETATM   12  N   UNK N   1      35.861  12.338  12.682  0.00  0.00    -0.379 N 
BRANCH  12  13
HETATM   13  C   UNK N   1      35.809  10.930  13.017  0.00  0.00     0.138 C 
BRANCH  13  14
HETATM   14  C   UNK N   1      34.370  10.451  13.082  0.00  0.00     0.134 C 
HETATM   15 Cl   UNK N   1      33.625  10.963  14.614  0.00  0.00    -0.129 Cl
ENDBRANCH  13  14
ENDBRANCH  12  13
BRANCH  12  16
HETATM   16  C   UNK N   1      36.576  13.233  13.566  0.00  0.00     0.138 C 
BRANCH  16  17
HETATM   17  C   UNK N   1      36.905  12.552  14.880  0.00  0.00     0.134 C 
HETATM   18 Cl   UNK N   1      35.867  13.230  16.154  0.00  0.00    -0.129 Cl
ENDBRANCH  16  17
ENDBRANCH  12  16
ENDBRANCH   2  12
BRANCH   8  19
HETATM   19  C   UNK N   1      31.808  16.421   8.204  0.00  0.00     0.077 C 
BRANCH  19  20
HETATM   20  C   UNK N   1      32.413  17.813   8.285  0.00  0.00     0.018 C 
BRANCH  20  21
HETATM   21  C   UNK N   1      33.807  17.842   7.677  0.00  0.00     0.110 C 
BRANCH  21  22
HETATM   22  C   UNK N   1      34.857  18.324   8.637  0.00  0.00     0.139 C 
HETATM   23  O   UNK N   1      35.367  19.428   8.511  0.00  0.00    -0.650 OA
BRANCH  22  24
HETATM   24  O   UNK N   1      35.238  17.530   9.652  0.00  0.00    -0.776 OA
HETATM   25  H   UNK N   1      35.650  16.706   9.475  0.00  0.00     0.167 HD
ENDBRANCH  22  24
ENDBRANCH  21  22
ENDBRANCH  20  21
ENDBRANCH  19  20
ENDBRANCH   8  19
TORSDOF 10
ENDMDL
MODEL 4
REMARK VINA RESULT:      -5.8      9.834     13.354
REMARK  10 active torsions:
REMARK  status: ('A' for Active; 'I' for Inactive)
REMARK    1  A    between atoms: C_2  and  N_18 
REMARK    2  A    between atoms: C_8  and  C_11 
REMARK    3  A    between atoms: C_11  and  C_12 
REMARK    4  A    between atoms: C_12  and  C_13 
REMARK    5  A    between atoms: C_13  and  C_14 
REMARK    6  A    between atoms: C_14  and  O_16 
REMARK    7  A    between atoms: N_18  and  C_19 
REMARK    8  A    between atoms: N_18  and  C_20 
REMARK    9  A    between atoms: C_19  and  C_23 
REMARK   10  A    between atoms: C_20  and  C_21 
ROOT
HETATM    1  C   UNK N   1      24.678  18.259   4.573  0.00  0.00     0.061 A 
HETATM    2  C   UNK N   1      25.688  19.202   4.265  0.00  0.00     0.032 A 
HETATM    3  C   UNK N   1      25.358  20.347   3.486  0.00  0.00     0.031 A 
HETATM    4  C   UNK N   1      23.399  18.492   4.085  0.00  0.00     0.062 A 
HETATM    5  C   UNK N   1      23.095  19.593   3.344  0.00  0.00     0.062 A 
HETATM    6  C   UNK N   1      24.046  20.556   3.023  0.00  0.00     0.034 A 
HETATM    7  N   UNK N   1      21.801  19.543   3.007  0.00  0.00    -0.339 N 
HETATM    8  C   UNK N   1      21.341  18.388   3.548  0.00  0.00     0.084 A 
HETATM    9  N   UNK N   1      22.306  17.718   4.227  0.00  0.00    -0.344 N 
ATOM     10  HN  UNK N   1      22.223  16.834   4.730  1.00  0.00     0.167 HD
HETATM   11  C   UNK N   1      21.061  20.515   2.217  0.00  0.00     0.158 C 
ENDROOT
BRANCH   2  12
HETATM   12  N   UNK N   1      27.026  19.009   4.732  0.00  0.00    -0.379 N 
BRANCH  12  13
HETATM   13  C   UNK N   1      27.816  20.119   5.224  0.00  0.00     0.138 C 
BRANCH  13  14
HETATM   14  C   UNK N   1      27.511  20.382   6.689  0.00  0.00     0.134 C 
HETATM   15 Cl   UNK N   1      26.352  21.722   6.840  0.00  0.00    -0.129 Cl
ENDBRANCH  13  14
ENDBRANCH  12  13
BRANCH  12  16
HETATM   16  C   UNK N   1      27.609  17.686   4.743  0.00  0.00     0.138 C 
BRANCH  16  17
HETATM   17  C   UNK N   1      29.122  17.757   4.662  0.00  0.00     0.134 C 
HETATM   18 Cl   UNK N   1      29.808  17.099   6.165  0.00  0.00    -0.129 Cl
ENDBRANCH  16  17
ENDBRANCH  12  16
ENDBRANCH   2  12
BRANCH   8  19
HETATM   19  C   UNK N   1      19.951  17.873   3.385  0.00  0.00     0.077 C 
BRANCH  19  20
HETATM   20  C   UNK N   1      20.024  16.461   2.829  0.00  0.00     0.018 C 
BRANCH  20  21
HETATM   21  C   UNK N   1      20.786  16.428   1.512  0.00  0.00     0.110 C 
BRANCH  21  22
HETATM   22  C   UNK N   1      19.988  16.966   0.358  0.00  0.00     0.139 C 
HETATM   23  O   UNK N   1      19.017  16.363  -0.072  0.00  0.00    -0.650 OA
BRANCH  22  24
HETATM   24  O   UNK N   1      20.349  18.131  -0.207  0.00  0.00    -0.776 OA
HETATM   25  H   UNK N   1      20.608  18.156  -1.108  0.00  0.00     0.167 HD
ENDBRANCH  22  24
ENDBRANCH  21  22
ENDBRANCH  20  21
ENDBRANCH  19  20
ENDBRANCH   8  19
TORSDOF 10
ENDMDL
MODEL 5
REMARK VINA RESULT:      -5.7      1.601      2.642
REMARK  10 active torsions:
REMARK  status: ('A' for Active; 'I' for Inactive)
REMARK    1  A    between atoms: C_2  and  N_18 
REMARK    2  A    between atoms: C_8  and  C_11 
REMARK    3  A    between atoms: C_11  and  C_12 
REMARK    4  A    between atoms: C_12  and  C_13 
REMARK    5  A    between atoms: C_13  and  C_14 
REMARK    6  A    between atoms: C_14  and  O_16 
REMARK    7  A    between atoms: N_18  and  C_19 
REMARK    8  A    between atoms: N_18  and  C_20 
REMARK    9  A    between atoms: C_19  and  C_23 
REMARK   10  A    between atoms: C_20  and  C_21 
ROOT
HETATM    1  C   UNK N   1      35.188  15.013  11.854  0.00  0.00     0.061 A 
HETATM    2  C   UNK N   1      35.480  13.630  11.926  0.00  0.00     0.032 A 
HETATM    3  C   UNK N   1      35.632  12.887  10.721  0.00  0.00     0.031 A 
HETATM    4  C   UNK N   1      35.050  15.585  10.596  0.00  0.00     0.062 A 
HETATM    5  C   UNK N   1      35.202  14.864   9.451  0.00  0.00     0.062 A 
HETATM    6  C   UNK N   1      35.501  13.506   9.464  0.00  0.00     0.034 A 
HETATM    7  N   UNK N   1      35.000  15.671   8.403  0.00  0.00    -0.339 N 
HETATM    8  C   UNK N   1      34.715  16.883   8.942  0.00  0.00     0.084 A 
HETATM    9  N   UNK N   1      34.744  16.862  10.298  0.00  0.00    -0.344 N 
ATOM     10  HN  UNK N   1      34.573  17.635  10.943  1.00  0.00     0.167 HD
HETATM   11  C   UNK N   1      35.062  15.313   6.994  0.00  0.00     0.158 C 
ENDROOT
BRANCH   2  12
HETATM   12  N   UNK N   1      35.624  12.984  13.193  0.00  0.00    -0.379 N 
BRANCH  12  13
HETATM   13  C   UNK N   1      36.856  13.079  13.949  0.00  0.00     0.138 C 
BRANCH  13  14
HETATM   14  C   UNK N   1      36.577  13.550  15.366  0.00  0.00     0.134 C 
HETATM   15 Cl   UNK N   1      37.277  15.165  15.620  0.00  0.00    -0.129 Cl
ENDBRANCH  13  14
ENDBRANCH  12  13
BRANCH  12  16
HETATM   16  C   UNK N   1      34.521  12.238  13.759  0.00  0.00     0.138 C 
BRANCH  16  17
HETATM   17  C   UNK N   1      34.736  10.745  13.600  0.00  0.00     0.134 C 
HETATM   18 Cl   UNK N   1      33.709  10.155  12.274  0.00  0.00    -0.129 Cl
ENDBRANCH  16  17
ENDBRANCH  12  16
ENDBRANCH   2  12
BRANCH   8  19
HETATM   19  C   UNK N   1      34.359  18.096   8.152  0.00  0.00     0.077 C 
BRANCH  19  20
HETATM   20  C   UNK N   1      32.888  18.402   8.378  0.00  0.00     0.018 C 
BRANCH  20  21
HETATM   21  C   UNK N   1      32.004  17.298   7.817  0.00  0.00     0.110 C 
BRANCH  21  22
HETATM   22  C   UNK N   1      31.077  16.710   8.842  0.00  0.00     0.139 C 
HETATM   23  O   UNK N   1      29.902  17.042   8.893  0.00  0.00    -0.650 OA
BRANCH  22  24
HETATM   24  O   UNK N   1      31.547  15.801   9.713  0.00  0.00    -0.776 OA
HETATM   25  H   UNK N   1      32.460  15.781   9.925  0.00  0.00     0.167 HD
ENDBRANCH  22  24
ENDBRANCH  21  22
ENDBRANCH  20  21
ENDBRANCH  19  20
ENDBRANCH   8  19
TORSDOF 10
ENDMDL
MODEL 6
REMARK VINA RESULT:      -5.7      1.441      1.706
REMARK  10 active torsions:
REMARK  status: ('A' for Active; 'I' for Inactive)
REMARK    1  A    between atoms: C_2  and  N_18 
REMARK    2  A    between atoms: C_8  and  C_11 
REMARK    3  A    between atoms: C_11  and  C_12 
REMARK    4  A    between atoms: C_12  and  C_13 
REMARK    5  A    between atoms: C_13  and  C_14 
REMARK    6  A    between atoms: C_14  and  O_16 
REMARK    7  A    between atoms: N_18  and  C_19 
REMARK    8  A    between atoms: N_18  and  C_20 
REMARK    9  A    between atoms: C_19  and  C_23 
REMARK   10  A    between atoms: C_20  and  C_21 
ROOT
HETATM    1  C   UNK N   1      34.852  14.823  11.824  0.00  0.00     0.061 A 
HETATM    2  C   UNK N   1      35.070  13.425  11.881  0.00  0.00     0.032 A 
HETATM    3  C   UNK N   1      35.273  12.703  10.672  0.00  0.00     0.031 A 
HETATM    4  C   UNK N   1      34.833  15.429  10.575  0.00  0.00     0.062 A 
HETATM    5  C   UNK N   1      35.032  14.727   9.426  0.00  0.00     0.062 A 
HETATM    6  C   UNK N   1      35.264  13.356   9.425  0.00  0.00     0.034 A 
HETATM    7  N   UNK N   1      34.947  15.566   8.387  0.00  0.00    -0.339 N 
HETATM    8  C   UNK N   1      34.682  16.779   8.935  0.00  0.00     0.084 A 
HETATM    9  N   UNK N   1      34.611  16.726  10.289  0.00  0.00    -0.344 N 
ATOM     10  HN  UNK N   1      34.432  17.492  10.940  1.00  0.00     0.167 HD
HETATM   11  C   UNK N   1      35.094  15.237   6.978  0.00  0.00     0.158 C 
ENDROOT
BRANCH   2  12
HETATM   12  N   UNK N   1      35.090  12.745  13.139  0.00  0.00    -0.379 N 
BRANCH  12  13
HETATM   13  C   UNK N   1      34.901  11.311  13.220  0.00  0.00     0.138 C 
BRANCH  13  14
HETATM   14  C   UNK N   1      33.840  10.971  14.252  0.00  0.00     0.134 C 
HETATM   15 Cl   UNK N   1      34.584  10.148  15.642  0.00  0.00    -0.129 Cl
ENDBRANCH  13  14
ENDBRANCH  12  13
BRANCH  12  16
HETATM   16  C   UNK N   1      35.326  13.481  14.361  0.00  0.00     0.138 C 
BRANCH  16  17
HETATM   17  C   UNK N   1      36.777  13.376  14.788  0.00  0.00     0.134 C 
HETATM   18 Cl   UNK N   1      37.236  14.871  15.634  0.00  0.00    -0.129 Cl
ENDBRANCH  16  17
ENDBRANCH  12  16
ENDBRANCH   2  12
BRANCH   8  19
HETATM   19  C   UNK N   1      34.443  18.025   8.154  0.00  0.00     0.077 C 
BRANCH  19  20
HETATM   20  C   UNK N   1      33.004  18.461   8.370  0.00  0.00     0.018 C 
BRANCH  20  21
HETATM   21  C   UNK N   1      32.031  17.465   7.757  0.00  0.00     0.110 C 
BRANCH  21  22
HETATM   22  C   UNK N   1      30.667  17.514   8.385  0.00  0.00     0.139 C 
HETATM   23  O   UNK N   1      29.702  17.002   7.837  0.00  0.00    -0.650 OA
BRANCH  22  24
HETATM   24  O   UNK N   1      30.507  18.128   9.570  0.00  0.00    -0.776 OA
HETATM   25  H   UNK N   1      31.256  18.360  10.083  0.00  0.00     0.167 HD
ENDBRANCH  22  24
ENDBRANCH  21  22
ENDBRANCH  20  21
ENDBRANCH  19  20
ENDBRANCH   8  19
TORSDOF 10
ENDMDL
MODEL 7
REMARK VINA RESULT:      -5.6      1.761      2.067
REMARK  10 active torsions:
REMARK  status: ('A' for Active; 'I' for Inactive)
REMARK    1  A    between atoms: C_2  and  N_18 
REMARK    2  A    between atoms: C_8  and  C_11 
REMARK    3  A    between atoms: C_11  and  C_12 
REMARK    4  A    between atoms: C_12  and  C_13 
REMARK    5  A    between atoms: C_13  and  C_14 
REMARK    6  A    between atoms: C_14  and  O_16 
REMARK    7  A    between atoms: N_18  and  C_19 
REMARK    8  A    between atoms: N_18  and  C_20 
REMARK    9  A    between atoms: C_19  and  C_23 
REMARK   10  A    between atoms: C_20  and  C_21 
ROOT
HETATM    1  C   UNK N   1      34.257  14.475  11.113  0.00  0.00     0.061 A 
HETATM    2  C   UNK N   1      35.541  14.745  11.644  0.00  0.00     0.032 A 
HETATM    3  C   UNK N   1      36.246  15.902  11.207  0.00  0.00     0.031 A 
HETATM    4  C   UNK N   1      33.744  15.355  10.169  0.00  0.00     0.062 A 
HETATM    5  C   UNK N   1      34.427  16.460   9.761  0.00  0.00     0.062 A 
HETATM    6  C   UNK N   1      35.686  16.779  10.260  0.00  0.00     0.034 A 
HETATM    7  N   UNK N   1      33.697  17.105   8.844  0.00  0.00    -0.339 N 
HETATM    8  C   UNK N   1      32.572  16.360   8.703  0.00  0.00     0.084 A 
HETATM    9  N   UNK N   1      32.570  15.273   9.515  0.00  0.00    -0.344 N 
ATOM     10  HN  UNK N   1      31.846  14.559   9.609  1.00  0.00     0.167 HD
HETATM   11  C   UNK N   1      34.049  18.331   8.145  0.00  0.00     0.158 C 
ENDROOT
BRANCH   2  12
HETATM   12  N   UNK N   1      36.125  13.870  12.612  0.00  0.00    -0.379 N 
BRANCH  12  13
HETATM   13  C   UNK N   1      36.528  12.524  12.261  0.00  0.00     0.138 C 
BRANCH  13  14
HETATM   14  C   UNK N   1      37.781  12.550  11.403  0.00  0.00     0.134 C 
HETATM   15 Cl   UNK N   1      37.353  12.320   9.692  0.00  0.00    -0.129 Cl
ENDBRANCH  13  14
ENDBRANCH  12  13
BRANCH  12  16
HETATM   16  C   UNK N   1      36.346  14.327  13.967  0.00  0.00     0.138 C 
BRANCH  16  17
HETATM   17  C   UNK N   1      36.585  13.158  14.903  0.00  0.00     0.134 C 
HETATM   18 Cl   UNK N   1      35.722  13.459  16.428  0.00  0.00    -0.129 Cl
ENDBRANCH  16  17
ENDBRANCH  12  16
ENDBRANCH   2  12
BRANCH   8  19
HETATM   19  C   UNK N   1      31.477  16.659   7.737  0.00  0.00     0.077 C 
BRANCH  19  20
HETATM   20  C   UNK N   1      30.438  17.518   8.439  0.00  0.00     0.018 C 
BRANCH  20  21
HETATM   21  C   UNK N   1      29.109  17.487   7.700  0.00  0.00     0.110 C 
BRANCH  21  22
HETATM   22  C   UNK N   1      28.132  18.512   8.202  0.00  0.00     0.139 C 
HETATM   23  O   UNK N   1      27.903  19.529   7.564  0.00  0.00    -0.650 OA
BRANCH  22  24
HETATM   24  O   UNK N   1      27.498  18.304   9.369  0.00  0.00    -0.776 OA
HETATM   25  H   UNK N   1      27.251  17.436   9.621  0.00  0.00     0.167 HD
ENDBRANCH  22  24
ENDBRANCH  21  22
ENDBRANCH  20  21
ENDBRANCH  19  20
ENDBRANCH   8  19
TORSDOF 10
ENDMDL
MODEL 8
REMARK VINA RESULT:      -5.5      2.912      4.867
REMARK  10 active torsions:
REMARK  status: ('A' for Active; 'I' for Inactive)
REMARK    1  A    between atoms: C_2  and  N_18 
REMARK    2  A    between atoms: C_8  and  C_11 
REMARK    3  A    between atoms: C_11  and  C_12 
REMARK    4  A    between atoms: C_12  and  C_13 
REMARK    5  A    between atoms: C_13  and  C_14 
REMARK    6  A    between atoms: C_14  and  O_16 
REMARK    7  A    between atoms: N_18  and  C_19 
REMARK    8  A    between atoms: N_18  and  C_20 
REMARK    9  A    between atoms: C_19  and  C_23 
REMARK   10  A    between atoms: C_20  and  C_21 
ROOT
HETATM    1  C   UNK N   1      35.560  13.649  14.290  0.00  0.00     0.061 A 
HETATM    2  C   UNK N   1      36.062  12.553  15.031  0.00  0.00     0.032 A 
HETATM    3  C   UNK N   1      37.022  11.689  14.433  0.00  0.00     0.031 A 
HETATM    4  C   UNK N   1      36.022  13.825  12.992  0.00  0.00     0.062 A 
HETATM    5  C   UNK N   1      36.944  12.993  12.432  0.00  0.00     0.062 A 
HETATM    6  C   UNK N   1      37.480  11.910  13.121  0.00  0.00     0.034 A 
HETATM    7  N   UNK N   1      37.187  13.399  11.181  0.00  0.00    -0.339 N 
HETATM    8  C   UNK N   1      36.387  14.479  10.999  0.00  0.00     0.084 A 
HETATM    9  N   UNK N   1      35.658  14.771  12.105  0.00  0.00    -0.344 N 
ATOM     10  HN  UNK N   1      34.990  15.530  12.236  1.00  0.00     0.167 HD
HETATM   11  C   UNK N   1      38.103  12.795  10.225  0.00  0.00     0.158 C 
ENDROOT
BRANCH   2  12
HETATM   12  N   UNK N   1      35.614  12.316  16.368  0.00  0.00    -0.379 N 
BRANCH  12  13
HETATM   13  C   UNK N   1      34.691  13.220  17.023  0.00  0.00     0.138 C 
BRANCH  13  14
HETATM   14  C   UNK N   1      35.328  13.828  18.260  0.00  0.00     0.134 C 
HETATM   15 Cl   UNK N   1      36.286  15.258  17.812  0.00  0.00    -0.129 Cl
ENDBRANCH  13  14
ENDBRANCH  12  13
BRANCH  12  16
HETATM   16  C   UNK N   1      36.062  11.144  17.088  0.00  0.00     0.138 C 
BRANCH  16  17
HETATM   17  C   UNK N   1      34.993  10.069  17.096  0.00  0.00     0.134 C 
HETATM   18 Cl   UNK N   1      35.388   8.858  15.854  0.00  0.00    -0.129 Cl
ENDBRANCH  16  17
ENDBRANCH  12  16
ENDBRANCH   2  12
BRANCH   8  19
HETATM   19  C   UNK N   1      36.272  15.240   9.722  0.00  0.00     0.077 C 
BRANCH  19  20
HETATM   20  C   UNK N   1      35.035  16.118   9.796  0.00  0.00     0.018 C 
BRANCH  20  21
HETATM   21  C   UNK N   1      34.619  16.599   8.413  0.00  0.00     0.110 C 
BRANCH  21  22
HETATM   22  C   UNK N   1      34.269  18.059   8.379  0.00  0.00     0.139 C 
HETATM   23  O   UNK N   1      33.108  18.427   8.284  0.00  0.00    -0.650 OA
BRANCH  22  24
HETATM   24  O   UNK N   1      35.250  18.975   8.458  0.00  0.00    -0.776 OA
HETATM   25  H   UNK N   1      35.093  19.857   8.183  0.00  0.00     0.167 HD
ENDBRANCH  22  24
ENDBRANCH  21  22
ENDBRANCH  20  21
ENDBRANCH  19  20
ENDBRANCH   8  19
TORSDOF 10
ENDMDL
MODEL 9
REMARK VINA RESULT:      -5.5      9.301     12.975
REMARK  10 active torsions:
REMARK  status: ('A' for Active; 'I' for Inactive)
REMARK    1  A    between atoms: C_2  and  N_18 
REMARK    2  A    between atoms: C_8  and  C_11 
REMARK    3  A    between atoms: C_11  and  C_12 
REMARK    4  A    between atoms: C_12  and  C_13 
REMARK    5  A    between atoms: C_13  and  C_14 
REMARK    6  A    between atoms: C_14  and  O_16 
REMARK    7  A    between atoms: N_18  and  C_19 
REMARK    8  A    between atoms: N_18  and  C_20 
REMARK    9  A    between atoms: C_19  and  C_23 
REMARK   10  A    between atoms: C_20  and  C_21 
ROOT
HETATM    1  C   UNK N   1      24.830  18.206   4.269  0.00  0.00     0.061 A 
HETATM    2  C   UNK N   1      25.822  19.148   3.906  0.00  0.00     0.032 A 
HETATM    3  C   UNK N   1      25.435  20.351   3.250  0.00  0.00     0.031 A 
HETATM    4  C   UNK N   1      23.509  18.497   3.952  0.00  0.00     0.062 A 
HETATM    5  C   UNK N   1      23.151  19.653   3.327  0.00  0.00     0.062 A 
HETATM    6  C   UNK N   1      24.084  20.617   2.961  0.00  0.00     0.034 A 
HETATM    7  N   UNK N   1      21.826  19.651   3.143  0.00  0.00    -0.339 N 
HETATM    8  C   UNK N   1      21.400  18.470   3.658  0.00  0.00     0.084 A 
HETATM    9  N   UNK N   1      22.419  17.737   4.172  0.00  0.00    -0.344 N 
ATOM     10  HN  UNK N   1      22.372  16.821   4.620  1.00  0.00     0.167 HD
HETATM   11  C   UNK N   1      21.026  20.690   2.513  0.00  0.00     0.158 C 
ENDROOT
BRANCH   2  12
HETATM   12  N   UNK N   1      27.200  18.898   4.198  0.00  0.00    -0.379 N 
BRANCH  12  13
HETATM   13  C   UNK N   1      28.027  19.903   4.833  0.00  0.00     0.138 C 
BRANCH  13  14
HETATM   14  C   UNK N   1      27.554  20.163   6.253  0.00  0.00     0.134 C 
HETATM   15 Cl   UNK N   1      26.757  21.749   6.349  0.00  0.00    -0.129 Cl
ENDBRANCH  13  14
ENDBRANCH  12  13
BRANCH  12  16
HETATM   16  C   UNK N   1      27.789  17.616   3.881  0.00  0.00     0.138 C 
BRANCH  16  17
HETATM   17  C   UNK N   1      29.132  17.450   4.566  0.00  0.00     0.134 C 
HETATM   18 Cl   UNK N   1      28.906  16.492   6.047  0.00  0.00    -0.129 Cl
ENDBRANCH  16  17
ENDBRANCH  12  16
ENDBRANCH   2  12
BRANCH   8  19
HETATM   19  C   UNK N   1      19.988  17.995   3.627  0.00  0.00     0.077 C 
BRANCH  19  20
HETATM   20  C   UNK N   1      19.991  16.476   3.657  0.00  0.00     0.018 C 
BRANCH  20  21
HETATM   21  C   UNK N   1      19.078  15.947   4.754  0.00  0.00     0.110 C 
BRANCH  21  22
HETATM   22  C   UNK N   1      19.721  15.960   6.111  0.00  0.00     0.139 C 
HETATM   23  O   UNK N   1      19.050  16.069   7.126  0.00  0.00    -0.650 OA
BRANCH  22  24
HETATM   24  O   UNK N   1      21.057  15.846   6.210  0.00  0.00    -0.776 OA
HETATM   25  H   UNK N   1      21.463  15.003   6.151  0.00  0.00     0.167 HD
ENDBRANCH  22  24
ENDBRANCH  21  22
ENDBRANCH  20  21
ENDBRANCH  19  20
ENDBRANCH   8  19
TORSDOF 10
ENDMDL
