MODEL 1
REMARK VINA RESULT:      -7.9      0.000      0.000
REMARK  10 active torsions:
REMARK  status: ('A' for Active; 'I' for Inactive)
REMARK    1  A    between atoms: C_2  and  S_7 
REMARK    2  A    between atoms: C_5  and  C_11 
REMARK    3  A    between atoms: C_14  and  C_17 
REMARK    4  A    between atoms: C_17  and  N_18 
REMARK    5  A    between atoms: C_17  and  C_28 
REMARK    6  A    between atoms: N_18  and  C_19 
REMARK    7  A    between atoms: C_19  and  C_20 
REMARK    8  A    between atoms: C_19  and  C_29 
REMARK       I    between atoms: C_20  and  N_21 
REMARK    9  A    between atoms: N_21  and  C_23 
REMARK   10  A    between atoms: C_29  and  C_33 
ROOT
HETATM    1  C   UNK N   1      22.099  16.741   5.507  0.00  0.00     0.122 A 
HETATM    2  C   UNK N   1      21.741  15.271   5.721  0.00  0.00     0.050 A 
HETATM    3  C   UNK N   1      22.992  15.828   6.325  0.00  0.00     0.050 A 
HETATM    4  C   UNK N   1      21.522  17.766   6.365  0.00  0.00     0.091 C 
HETATM    5  N   UNK N   1      21.069  18.606   7.018  0.00  0.00    -0.195 NA
ENDROOT
BRANCH   1   6
HETATM    6  N   UNK N   1      22.660  17.103   4.228  0.00  0.00    -0.337 N 
HETATM    7  C   UNK N   1      23.769  17.868   4.150  0.00  0.00     0.241 C 
HETATM    8  O   UNK N   1      23.627  19.071   3.991  0.00  0.00    -0.271 OA
HETATM    9  H   UNK N   1      22.229  16.786   3.401  0.00  0.00     0.164 HD
BRANCH   7  10
HETATM   10  C   UNK N   1      25.155  17.287   4.471  0.00  0.00     0.173 C 
BRANCH  10  11
HETATM   11  N   UNK N   1      25.948  17.771   5.611  0.00  0.00    -0.394 N 
HETATM   12  H   UNK N   1      25.759  17.622   6.602  0.00  0.00     0.155 HD
BRANCH  11  13
HETATM   13  C   UNK N   1      27.071  18.514   5.023  0.00  0.00     0.219 C 
BRANCH  13  14
HETATM   14  C   UNK N   1      26.945  20.088   5.028  0.00  0.00     0.411 C 
HETATM   15  F   UNK N   1      28.091  20.783   5.290  0.00  0.00    -0.168 F 
HETATM   16  F   UNK N   1      26.436  20.546   3.819  0.00  0.00    -0.168 F 
HETATM   17  F   UNK N   1      26.081  20.443   6.056  0.00  0.00    -0.168 F 
ENDBRANCH  13  14
BRANCH  13  18
HETATM   18  C   UNK N   1      28.260  18.107   5.802  0.00  0.00    -0.027 A 
HETATM   19  C   UNK N   1      28.292  18.229   7.194  0.00  0.00     0.010 A 
HETATM   20  C   UNK N   1      29.459  17.944   7.884  0.00  0.00     0.013 A 
HETATM   21  C   UNK N   1      30.575  17.529   7.153  0.00  0.00    -0.026 A 
HETATM   22  C   UNK N   1      30.517  17.397   5.778  0.00  0.00     0.013 A 
HETATM   23  C   UNK N   1      29.390  17.696   5.119  0.00  0.00     0.010 A 
BRANCH  21  24
HETATM   24  C   UNK N   1      31.756  17.035   7.785  0.00  0.00    -0.026 A 
HETATM   25  C   UNK N   1      32.865  17.843   7.986  0.00  0.00     0.014 A 
HETATM   26  C   UNK N   1      33.886  17.379   8.799  0.00  0.00     0.024 A 
HETATM   27  C   UNK N   1      33.802  16.111   9.427  0.00  0.00     0.058 A 
HETATM   28  C   UNK N   1      32.659  15.332   9.201  0.00  0.00     0.024 A 
HETATM   29  C   UNK N   1      31.674  15.773   8.372  0.00  0.00     0.014 A 
BRANCH  27  30
HETATM   30  S   UNK N   1      34.999  15.627  10.745  0.00  0.00     0.171 S 
HETATM   31  O   UNK N   1      36.402  15.783  10.155  0.00  0.00    -0.223 OA
HETATM   32  O   UNK N   1      35.306  17.130  10.831  0.00  0.00    -0.223 OA
HETATM   33  C   UNK N   1      35.709  14.599   9.409  0.00  0.00     0.167 C 
ENDBRANCH  27  30
ENDBRANCH  21  24
ENDBRANCH  13  18
ENDBRANCH  11  13
ENDBRANCH  10  11
BRANCH  10  34
HETATM   34  C   UNK N   1      25.967  16.563   3.414  0.00  0.00     0.077 C 
BRANCH  34  35
HETATM   35  C   UNK N   1      25.962  15.029   3.542  0.00  0.00     0.098 C 
HETATM   36  C   UNK N   1      26.736  14.507   4.707  0.00  0.00     0.051 C 
HETATM   37  C   UNK N   1      26.536  14.337   2.323  0.00  0.00     0.051 C 
HETATM   38  F   UNK N   1      24.659  14.647   3.750  0.00  0.00    -0.244 F 
ENDBRANCH  34  35
ENDBRANCH  10  34
ENDBRANCH   7  10
ENDBRANCH   1   6
TORSDOF 10
ENDMDL
MODEL 2
REMARK VINA RESULT:      -7.4      2.469      3.896
REMARK  10 active torsions:
REMARK  status: ('A' for Active; 'I' for Inactive)
REMARK    1  A    between atoms: C_2  and  S_7 
REMARK    2  A    between atoms: C_5  and  C_11 
REMARK    3  A    between atoms: C_14  and  C_17 
REMARK    4  A    between atoms: C_17  and  N_18 
REMARK    5  A    between atoms: C_17  and  C_28 
REMARK    6  A    between atoms: N_18  and  C_19 
REMARK    7  A    between atoms: C_19  and  C_20 
REMARK    8  A    between atoms: C_19  and  C_29 
REMARK       I    between atoms: C_20  and  N_21 
REMARK    9  A    between atoms: N_21  and  C_23 
REMARK   10  A    between atoms: C_29  and  C_33 
ROOT
HETATM    1  C   UNK N   1      23.742  14.755   4.980  0.00  0.00     0.122 A 
HETATM    2  C   UNK N   1      23.842  13.534   4.066  0.00  0.00     0.050 A 
HETATM    3  C   UNK N   1      24.233  14.884   3.551  0.00  0.00     0.050 A 
HETATM    4  C   UNK N   1      24.823  15.067   5.904  0.00  0.00     0.091 C 
HETATM    5  N   UNK N   1      25.656  15.333   6.660  0.00  0.00    -0.195 NA
ENDROOT
BRANCH   1   6
HETATM    6  N   UNK N   1      22.428  15.313   5.192  0.00  0.00    -0.337 N 
HETATM    7  C   UNK N   1      22.272  16.498   5.818  0.00  0.00     0.241 C 
HETATM    8  O   UNK N   1      22.035  16.489   7.017  0.00  0.00    -0.271 OA
HETATM    9  H   UNK N   1      21.635  14.823   4.875  0.00  0.00     0.164 HD
BRANCH   7  10
HETATM   10  C   UNK N   1      22.598  17.819   5.103  0.00  0.00     0.173 C 
BRANCH  10  11
HETATM   11  N   UNK N   1      23.819  18.579   5.409  0.00  0.00    -0.394 N 
HETATM   12  H   UNK N   1      24.076  19.000   6.301  0.00  0.00     0.155 HD
BRANCH  11  13
HETATM   13  C   UNK N   1      24.591  18.606   4.159  0.00  0.00     0.219 C 
BRANCH  13  14
HETATM   14  C   UNK N   1      24.587  19.971   3.365  0.00  0.00     0.411 C 
HETATM   15  F   UNK N   1      25.560  20.120   2.420  0.00  0.00    -0.168 F 
HETATM   16  F   UNK N   1      23.359  20.182   2.750  0.00  0.00    -0.168 F 
HETATM   17  F   UNK N   1      24.828  20.994   4.275  0.00  0.00    -0.168 F 
ENDBRANCH  13  14
BRANCH  13  18
HETATM   18  C   UNK N   1      25.974  18.258   4.546  0.00  0.00    -0.027 A 
HETATM   19  C   UNK N   1      26.582  18.838   5.663  0.00  0.00     0.010 A 
HETATM   20  C   UNK N   1      27.915  18.577   5.935  0.00  0.00     0.013 A 
HETATM   21  C   UNK N   1      28.611  17.722   5.077  0.00  0.00    -0.026 A 
HETATM   22  C   UNK N   1      27.985  17.144   3.987  0.00  0.00     0.013 A 
HETATM   23  C   UNK N   1      26.702  17.421   3.721  0.00  0.00     0.010 A 
BRANCH  21  24
HETATM   24  C   UNK N   1      29.923  17.247   5.376  0.00  0.00    -0.026 A 
HETATM   25  C   UNK N   1      31.013  17.572   4.584  0.00  0.00     0.014 A 
HETATM   26  C   UNK N   1      32.284  17.273   5.047  0.00  0.00     0.024 A 
HETATM   27  C   UNK N   1      32.476  16.657   6.310  0.00  0.00     0.058 A 
HETATM   28  C   UNK N   1      31.345  16.354   7.080  0.00  0.00     0.024 A 
HETATM   29  C   UNK N   1      30.096  16.613   6.606  0.00  0.00     0.014 A 
BRANCH  27  30
HETATM   30  S   UNK N   1      34.158  16.544   7.060  0.00  0.00     0.171 S 
HETATM   31  O   UNK N   1      35.122  16.145   5.942  0.00  0.00    -0.223 OA
HETATM   32  O   UNK N   1      34.441  17.845   6.293  0.00  0.00    -0.223 OA
HETATM   33  C   UNK N   1      34.183  14.926   6.208  0.00  0.00     0.167 C 
ENDBRANCH  27  30
ENDBRANCH  21  24
ENDBRANCH  13  18
ENDBRANCH  11  13
ENDBRANCH  10  11
BRANCH  10  34
HETATM   34  C   UNK N   1      21.512  18.635   4.428  0.00  0.00     0.077 C 
BRANCH  34  35
HETATM   35  C   UNK N   1      20.831  17.935   3.238  0.00  0.00     0.098 C 
HETATM   36  C   UNK N   1      20.374  18.860   2.159  0.00  0.00     0.051 C 
HETATM   37  C   UNK N   1      19.606  17.143   3.648  0.00  0.00     0.051 C 
HETATM   38  F   UNK N   1      21.770  17.114   2.663  0.00  0.00    -0.244 F 
ENDBRANCH  34  35
ENDBRANCH  10  34
ENDBRANCH   7  10
ENDBRANCH   1   6
TORSDOF 10
ENDMDL
MODEL 3
REMARK VINA RESULT:      -7.4      2.414      3.774
REMARK  10 active torsions:
REMARK  status: ('A' for Active; 'I' for Inactive)
REMARK    1  A    between atoms: C_2  and  S_7 
REMARK    2  A    between atoms: C_5  and  C_11 
REMARK    3  A    between atoms: C_14  and  C_17 
REMARK    4  A    between atoms: C_17  and  N_18 
REMARK    5  A    between atoms: C_17  and  C_28 
REMARK    6  A    between atoms: N_18  and  C_19 
REMARK    7  A    between atoms: C_19  and  C_20 
REMARK    8  A    between atoms: C_19  and  C_29 
REMARK       I    between atoms: C_20  and  N_21 
REMARK    9  A    between atoms: N_21  and  C_23 
REMARK   10  A    between atoms: C_29  and  C_33 
ROOT
HETATM    1  C   UNK N   1      21.470  15.324   7.333  0.00  0.00     0.122 A 
HETATM    2  C   UNK N   1      20.635  14.196   6.729  0.00  0.00     0.050 A 
HETATM    3  C   UNK N   1      21.267  14.016   8.073  0.00  0.00     0.050 A 
HETATM    4  C   UNK N   1      20.821  16.407   8.057  0.00  0.00     0.091 C 
HETATM    5  N   UNK N   1      20.336  17.290   8.624  0.00  0.00    -0.195 NA
ENDROOT
BRANCH   1   6
HETATM    6  N   UNK N   1      22.810  15.497   6.823  0.00  0.00    -0.337 N 
HETATM    7  C   UNK N   1      23.020  15.919   5.559  0.00  0.00     0.241 C 
HETATM    8  O   UNK N   1      23.218  15.078   4.696  0.00  0.00    -0.271 OA
HETATM    9  H   UNK N   1      23.580  15.304   7.406  0.00  0.00     0.164 HD
BRANCH   7  10
HETATM   10  C   UNK N   1      22.800  17.390   5.171  0.00  0.00     0.173 C 
BRANCH  10  11
HETATM   11  N   UNK N   1      23.829  18.412   5.409  0.00  0.00    -0.394 N 
HETATM   12  H   UNK N   1      24.006  18.919   6.277  0.00  0.00     0.155 HD
BRANCH  11  13
HETATM   13  C   UNK N   1      24.550  18.552   4.137  0.00  0.00     0.219 C 
BRANCH  13  14
HETATM   14  C   UNK N   1      24.580  19.999   3.507  0.00  0.00     0.411 C 
HETATM   15  F   UNK N   1      24.985  21.008   4.333  0.00  0.00    -0.168 F 
HETATM   16  F   UNK N   1      25.383  20.028   2.373  0.00  0.00    -0.168 F 
HETATM   17  F   UNK N   1      23.278  20.338   3.157  0.00  0.00    -0.168 F 
ENDBRANCH  13  14
BRANCH  13  18
HETATM   18  C   UNK N   1      25.930  18.102   4.418  0.00  0.00    -0.027 A 
HETATM   19  C   UNK N   1      26.487  17.010   3.746  0.00  0.00     0.010 A 
HETATM   20  C   UNK N   1      27.740  16.544   4.110  0.00  0.00     0.013 A 
HETATM   21  C   UNK N   1      28.416  17.199   5.142  0.00  0.00    -0.026 A 
HETATM   22  C   UNK N   1      27.854  18.289   5.782  0.00  0.00     0.013 A 
HETATM   23  C   UNK N   1      26.633  18.717   5.437  0.00  0.00     0.010 A 
BRANCH  21  24
HETATM   24  C   UNK N   1      29.778  16.914   5.460  0.00  0.00    -0.026 A 
HETATM   25  C   UNK N   1      30.817  17.322   4.637  0.00  0.00     0.014 A 
HETATM   26  C   UNK N   1      32.116  17.218   5.107  0.00  0.00     0.024 A 
HETATM   27  C   UNK N   1      32.386  16.716   6.405  0.00  0.00     0.058 A 
HETATM   28  C   UNK N   1      31.304  16.323   7.204  0.00  0.00     0.024 A 
HETATM   29  C   UNK N   1      30.031  16.390   6.727  0.00  0.00     0.014 A 
BRANCH  27  30
HETATM   30  S   UNK N   1      34.070  16.867   7.145  0.00  0.00     0.171 S 
HETATM   31  O   UNK N   1      35.056  16.271   6.139  0.00  0.00    -0.223 OA
HETATM   32  O   UNK N   1      34.286  17.968   6.095  0.00  0.00    -0.223 OA
HETATM   33  C   UNK N   1      34.182  15.099   6.689  0.00  0.00     0.167 C 
ENDBRANCH  27  30
ENDBRANCH  21  24
ENDBRANCH  13  18
ENDBRANCH  11  13
ENDBRANCH  10  11
BRANCH  10  34
HETATM   34  C   UNK N   1      21.403  17.951   4.977  0.00  0.00     0.077 C 
BRANCH  34  35
HETATM   35  C   UNK N   1      20.728  17.543   3.655  0.00  0.00     0.098 C 
HETATM   36  C   UNK N   1      19.967  18.641   2.989  0.00  0.00     0.051 C 
HETATM   37  C   UNK N   1      19.743  16.405   3.827  0.00  0.00     0.051 C 
HETATM   38  F   UNK N   1      21.730  17.192   2.782  0.00  0.00    -0.244 F 
ENDBRANCH  34  35
ENDBRANCH  10  34
ENDBRANCH   7  10
ENDBRANCH   1   6
TORSDOF 10
ENDMDL
MODEL 4
REMARK VINA RESULT:      -7.2      4.411     10.009
REMARK  10 active torsions:
REMARK  status: ('A' for Active; 'I' for Inactive)
REMARK    1  A    between atoms: C_2  and  S_7 
REMARK    2  A    between atoms: C_5  and  C_11 
REMARK    3  A    between atoms: C_14  and  C_17 
REMARK    4  A    between atoms: C_17  and  N_18 
REMARK    5  A    between atoms: C_17  and  C_28 
REMARK    6  A    between atoms: N_18  and  C_19 
REMARK    7  A    between atoms: C_19  and  C_20 
REMARK    8  A    between atoms: C_19  and  C_29 
REMARK       I    between atoms: C_20  and  N_21 
REMARK    9  A    between atoms: N_21  and  C_23 
REMARK   10  A    between atoms: C_29  and  C_33 
ROOT
HETATM    1  C   UNK N   1      34.038  16.658   8.005  0.00  0.00     0.122 A 
HETATM    2  C   UNK N   1      34.564  17.044   6.624  0.00  0.00     0.050 A 
HETATM    3  C   UNK N   1      33.506  17.877   7.276  0.00  0.00     0.050 A 
HETATM    4  C   UNK N   1      34.754  17.071   9.202  0.00  0.00     0.091 C 
HETATM    5  N   UNK N   1      35.308  17.369  10.173  0.00  0.00    -0.195 NA
ENDROOT
BRANCH   1   6
HETATM    6  N   UNK N   1      33.094  15.567   8.069  0.00  0.00    -0.337 N 
HETATM    7  C   UNK N   1      31.886  15.730   8.647  0.00  0.00     0.241 C 
HETATM    8  O   UNK N   1      31.756  15.397   9.815  0.00  0.00    -0.271 OA
HETATM    9  H   UNK N   1      33.336  14.693   7.685  0.00  0.00     0.164 HD
BRANCH   7  10
HETATM   10  C   UNK N   1      30.769  16.510   7.935  0.00  0.00     0.173 C 
BRANCH  10  11
HETATM   11  N   UNK N   1      30.169  16.028   6.682  0.00  0.00    -0.394 N 
HETATM   12  H   UNK N   1      29.834  15.086   6.482  0.00  0.00     0.155 HD
BRANCH  11  13
HETATM   13  C   UNK N   1      30.154  17.187   5.780  0.00  0.00     0.219 C 
BRANCH  13  14
HETATM   14  C   UNK N   1      31.023  17.062   4.468  0.00  0.00     0.411 C 
HETATM   15  F   UNK N   1      32.102  16.229   4.538  0.00  0.00    -0.168 F 
HETATM   16  F   UNK N   1      30.240  16.655   3.394  0.00  0.00    -0.168 F 
HETATM   17  F   UNK N   1      31.565  18.312   4.196  0.00  0.00    -0.168 F 
ENDBRANCH  13  14
BRANCH  13  18
HETATM   18  C   UNK N   1      28.734  17.383   5.420  0.00  0.00    -0.027 A 
HETATM   19  C   UNK N   1      28.269  18.614   4.946  0.00  0.00     0.010 A 
HETATM   20  C   UNK N   1      26.915  18.800   4.724  0.00  0.00     0.013 A 
HETATM   21  C   UNK N   1      26.050  17.732   4.975  0.00  0.00    -0.026 A 
HETATM   22  C   UNK N   1      26.532  16.516   5.427  0.00  0.00     0.013 A 
HETATM   23  C   UNK N   1      27.841  16.355   5.659  0.00  0.00     0.010 A 
BRANCH  21  24
HETATM   24  C   UNK N   1      24.673  17.764   4.601  0.00  0.00    -0.026 A 
HETATM   25  C   UNK N   1      24.019  18.958   4.336  0.00  0.00     0.014 A 
HETATM   26  C   UNK N   1      22.759  18.912   3.762  0.00  0.00     0.024 A 
HETATM   27  C   UNK N   1      22.148  17.674   3.439  0.00  0.00     0.058 A 
HETATM   28  C   UNK N   1      22.849  16.494   3.718  0.00  0.00     0.024 A 
HETATM   29  C   UNK N   1      24.070  16.539   4.317  0.00  0.00     0.014 A 
BRANCH  27  30
HETATM   30  S   UNK N   1      20.623  17.616   2.400  0.00  0.00     0.171 S 
HETATM   31  O   UNK N   1      19.561  18.451   3.117  0.00  0.00    -0.223 OA
HETATM   32  O   UNK N   1      20.963  19.075   2.058  0.00  0.00    -0.223 OA
HETATM   33  C   UNK N   1      19.828  17.184   3.990  0.00  0.00     0.167 C 
ENDBRANCH  27  30
ENDBRANCH  21  24
ENDBRANCH  13  18
ENDBRANCH  11  13
ENDBRANCH  10  11
BRANCH  10  34
HETATM   34  C   UNK N   1      30.557  17.991   8.193  0.00  0.00     0.077 C 
BRANCH  34  35
HETATM   35  C   UNK N   1      29.407  18.313   9.164  0.00  0.00     0.098 C 
HETATM   36  C   UNK N   1      28.794  17.116   9.810  0.00  0.00     0.051 C 
HETATM   37  C   UNK N   1      28.265  19.051   8.495  0.00  0.00     0.051 C 
HETATM   38  F   UNK N   1      29.940  19.064  10.184  0.00  0.00    -0.244 F 
ENDBRANCH  34  35
ENDBRANCH  10  34
ENDBRANCH   7  10
ENDBRANCH   1   6
TORSDOF 10
ENDMDL
MODEL 5
REMARK VINA RESULT:      -7.1      5.143      9.993
REMARK  10 active torsions:
REMARK  status: ('A' for Active; 'I' for Inactive)
REMARK    1  A    between atoms: C_2  and  S_7 
REMARK    2  A    between atoms: C_5  and  C_11 
REMARK    3  A    between atoms: C_14  and  C_17 
REMARK    4  A    between atoms: C_17  and  N_18 
REMARK    5  A    between atoms: C_17  and  C_28 
REMARK    6  A    between atoms: N_18  and  C_19 
REMARK    7  A    between atoms: C_19  and  C_20 
REMARK    8  A    between atoms: C_19  and  C_29 
REMARK       I    between atoms: C_20  and  N_21 
REMARK    9  A    between atoms: N_21  and  C_23 
REMARK   10  A    between atoms: C_29  and  C_33 
ROOT
HETATM    1  C   UNK N   1      34.745  16.024   9.628  0.00  0.00     0.122 A 
HETATM    2  C   UNK N   1      35.188  15.641  11.039  0.00  0.00     0.050 A 
HETATM    3  C   UNK N   1      33.849  15.202  10.535  0.00  0.00     0.050 A 
HETATM    4  C   UNK N   1      35.162  15.223   8.487  0.00  0.00     0.091 C 
HETATM    5  N   UNK N   1      35.490  14.617   7.558  0.00  0.00    -0.195 NA
ENDROOT
BRANCH   1   6
HETATM    6  N   UNK N   1      34.280  17.376   9.429  0.00  0.00    -0.337 N 
HETATM    7  C   UNK N   1      33.759  17.762   8.245  0.00  0.00     0.241 C 
HETATM    8  O   UNK N   1      34.498  18.312   7.443  0.00  0.00    -0.271 OA
HETATM    9  H   UNK N   1      34.343  18.025  10.167  0.00  0.00     0.164 HD
BRANCH   7  10
HETATM   10  C   UNK N   1      32.345  17.330   7.826  0.00  0.00     0.173 C 
BRANCH  10  11
HETATM   11  N   UNK N   1      32.126  16.262   6.839  0.00  0.00    -0.394 N 
HETATM   12  H   UNK N   1      32.177  15.256   6.998  0.00  0.00     0.155 HD
BRANCH  11  13
HETATM   13  C   UNK N   1      31.818  16.947   5.577  0.00  0.00     0.219 C 
BRANCH  13  14
HETATM   14  C   UNK N   1      32.955  16.939   4.482  0.00  0.00     0.411 C 
HETATM   15  F   UNK N   1      32.754  16.116   3.411  0.00  0.00    -0.168 F 
HETATM   16  F   UNK N   1      33.184  18.221   3.998  0.00  0.00    -0.168 F 
HETATM   17  F   UNK N   1      34.115  16.457   5.077  0.00  0.00    -0.168 F 
ENDBRANCH  13  14
BRANCH  13  18
HETATM   18  C   UNK N   1      30.613  16.272   5.049  0.00  0.00    -0.027 A 
HETATM   19  C   UNK N   1      30.274  14.977   5.450  0.00  0.00     0.010 A 
HETATM   20  C   UNK N   1      29.203  14.329   4.854  0.00  0.00     0.013 A 
HETATM   21  C   UNK N   1      28.484  15.010   3.868  0.00  0.00    -0.026 A 
HETATM   22  C   UNK N   1      28.826  16.298   3.499  0.00  0.00     0.013 A 
HETATM   23  C   UNK N   1      29.876  16.906   4.066  0.00  0.00     0.010 A 
BRANCH  21  24
HETATM   24  C   UNK N   1      27.261  14.504   3.334  0.00  0.00    -0.026 A 
HETATM   25  C   UNK N   1      26.194  15.340   3.041  0.00  0.00     0.014 A 
HETATM   26  C   UNK N   1      25.128  14.828   2.320  0.00  0.00     0.024 A 
HETATM   27  C   UNK N   1      25.124  13.482   1.877  0.00  0.00     0.058 A 
HETATM   28  C   UNK N   1      26.227  12.676   2.189  0.00  0.00     0.024 A 
HETATM   29  C   UNK N   1      27.256  13.169   2.930  0.00  0.00     0.014 A 
BRANCH  27  30
HETATM   30  S   UNK N   1      23.866  12.890   0.663  0.00  0.00     0.171 S 
HETATM   31  O   UNK N   1      22.492  13.258   1.225  0.00  0.00    -0.223 OA
HETATM   32  O   UNK N   1      23.683  14.379   0.330  0.00  0.00    -0.223 OA
HETATM   33  C   UNK N   1      23.100  12.159   2.154  0.00  0.00     0.167 C 
ENDBRANCH  27  30
ENDBRANCH  21  24
ENDBRANCH  13  18
ENDBRANCH  11  13
ENDBRANCH  10  11
BRANCH  10  34
HETATM   34  C   UNK N   1      31.153  18.250   8.018  0.00  0.00     0.077 C 
BRANCH  34  35
HETATM   35  C   UNK N   1      30.016  17.655   8.868  0.00  0.00     0.098 C 
HETATM   36  C   UNK N   1      28.803  17.268   8.089  0.00  0.00     0.051 C 
HETATM   37  C   UNK N   1      29.529  18.605   9.943  0.00  0.00     0.051 C 
HETATM   38  F   UNK N   1      30.495  16.494   9.426  0.00  0.00    -0.244 F 
ENDBRANCH  34  35
ENDBRANCH  10  34
ENDBRANCH   7  10
ENDBRANCH   1   6
TORSDOF 10
ENDMDL
MODEL 6
REMARK VINA RESULT:      -6.9      6.316     11.587
REMARK  10 active torsions:
REMARK  status: ('A' for Active; 'I' for Inactive)
REMARK    1  A    between atoms: C_2  and  S_7 
REMARK    2  A    between atoms: C_5  and  C_11 
REMARK    3  A    between atoms: C_14  and  C_17 
REMARK    4  A    between atoms: C_17  and  N_18 
REMARK    5  A    between atoms: C_17  and  C_28 
REMARK    6  A    between atoms: N_18  and  C_19 
REMARK    7  A    between atoms: C_19  and  C_20 
REMARK    8  A    between atoms: C_19  and  C_29 
REMARK       I    between atoms: C_20  and  N_21 
REMARK    9  A    between atoms: N_21  and  C_23 
REMARK   10  A    between atoms: C_29  and  C_33 
ROOT
HETATM    1  C   UNK N   1      37.966  13.623   9.454  0.00  0.00     0.122 A 
HETATM    2  C   UNK N   1      39.140  12.670   9.672  0.00  0.00     0.050 A 
HETATM    3  C   UNK N   1      37.747  12.215   9.974  0.00  0.00     0.050 A 
HETATM    4  C   UNK N   1      37.370  13.759   8.132  0.00  0.00     0.091 C 
HETATM    5  N   UNK N   1      36.885  13.903   7.093  0.00  0.00    -0.195 NA
ENDROOT
BRANCH   1   6
HETATM    6  N   UNK N   1      37.754  14.646  10.450  0.00  0.00    -0.337 N 
HETATM    7  C   UNK N   1      36.513  15.100  10.723  0.00  0.00     0.241 C 
HETATM    8  O   UNK N   1      36.136  16.117  10.161  0.00  0.00    -0.271 OA
HETATM    9  H   UNK N   1      38.526  15.016  10.936  0.00  0.00     0.164 HD
BRANCH   7  10
HETATM   10  C   UNK N   1      35.524  14.254  11.540  0.00  0.00     0.173 C 
BRANCH  10  11
HETATM   11  N   UNK N   1      34.148  14.016  11.078  0.00  0.00    -0.394 N 
HETATM   12  H   UNK N   1      33.287  14.167  11.602  0.00  0.00     0.155 HD
BRANCH  11  13
HETATM   13  C   UNK N   1      34.274  13.516   9.702  0.00  0.00     0.219 C 
BRANCH  13  14
HETATM   14  C   UNK N   1      33.924  11.993   9.478  0.00  0.00     0.411 C 
HETATM   15  F   UNK N   1      34.175  11.157  10.528  0.00  0.00    -0.168 F 
HETATM   16  F   UNK N   1      32.590  11.840   9.121  0.00  0.00    -0.168 F 
HETATM   17  F   UNK N   1      34.733  11.516   8.454  0.00  0.00    -0.168 F 
ENDBRANCH  13  14
BRANCH  13  18
HETATM   18  C   UNK N   1      33.368  14.360   8.895  0.00  0.00    -0.027 A 
HETATM   19  C   UNK N   1      33.463  14.397   7.501  0.00  0.00     0.010 A 
HETATM   20  C   UNK N   1      32.676  15.281   6.780  0.00  0.00     0.013 A 
HETATM   21  C   UNK N   1      31.795  16.107   7.483  0.00  0.00    -0.026 A 
HETATM   22  C   UNK N   1      31.704  16.042   8.861  0.00  0.00     0.013 A 
HETATM   23  C   UNK N   1      32.485  15.199   9.549  0.00  0.00     0.010 A 
BRANCH  21  24
HETATM   24  C   UNK N   1      30.816  16.910   6.823  0.00  0.00    -0.026 A 
HETATM   25  C   UNK N   1      30.770  17.012   5.441  0.00  0.00     0.014 A 
HETATM   26  C   UNK N   1      29.669  17.615   4.856  0.00  0.00     0.024 A 
HETATM   27  C   UNK N   1      28.602  18.112   5.646  0.00  0.00     0.058 A 
HETATM   28  C   UNK N   1      28.688  17.981   7.039  0.00  0.00     0.024 A 
HETATM   29  C   UNK N   1      29.788  17.422   7.614  0.00  0.00     0.014 A 
BRANCH  27  30
HETATM   30  S   UNK N   1      27.010  18.628   4.868  0.00  0.00     0.171 S 
HETATM   31  O   UNK N   1      27.359  19.589   3.729  0.00  0.00    -0.223 OA
HETATM   32  O   UNK N   1      27.444  17.727   3.701  0.00  0.00    -0.223 OA
HETATM   33  C   UNK N   1      27.714  20.304   5.071  0.00  0.00     0.167 C 
ENDBRANCH  27  30
ENDBRANCH  21  24
ENDBRANCH  13  18
ENDBRANCH  11  13
ENDBRANCH  10  11
BRANCH  10  34
HETATM   34  C   UNK N   1      35.726  14.026  13.027  0.00  0.00     0.077 C 
BRANCH  34  35
HETATM   35  C   UNK N   1      35.862  12.548  13.434  0.00  0.00     0.098 C 
HETATM   36  C   UNK N   1      34.597  11.927  13.925  0.00  0.00     0.051 C 
HETATM   37  C   UNK N   1      36.879  12.335  14.536  0.00  0.00     0.051 C 
HETATM   38  F   UNK N   1      36.215  11.849  12.305  0.00  0.00    -0.244 F 
ENDBRANCH  34  35
ENDBRANCH  10  34
ENDBRANCH   7  10
ENDBRANCH   1   6
TORSDOF 10
ENDMDL
MODEL 7
REMARK VINA RESULT:      -6.7      1.960      3.548
REMARK  10 active torsions:
REMARK  status: ('A' for Active; 'I' for Inactive)
REMARK    1  A    between atoms: C_2  and  S_7 
REMARK    2  A    between atoms: C_5  and  C_11 
REMARK    3  A    between atoms: C_14  and  C_17 
REMARK    4  A    between atoms: C_17  and  N_18 
REMARK    5  A    between atoms: C_17  and  C_28 
REMARK    6  A    between atoms: N_18  and  C_19 
REMARK    7  A    between atoms: C_19  and  C_20 
REMARK    8  A    between atoms: C_19  and  C_29 
REMARK       I    between atoms: C_20  and  N_21 
REMARK    9  A    between atoms: N_21  and  C_23 
REMARK   10  A    between atoms: C_29  and  C_33 
ROOT
HETATM    1  C   UNK N   1      25.069  14.577   3.690  0.00  0.00     0.122 A 
HETATM    2  C   UNK N   1      25.057  13.995   2.277  0.00  0.00     0.050 A 
HETATM    3  C   UNK N   1      25.569  15.382   2.506  0.00  0.00     0.050 A 
HETATM    4  C   UNK N   1      26.175  14.286   4.591  0.00  0.00     0.091 C 
HETATM    5  N   UNK N   1      27.029  14.060   5.337  0.00  0.00    -0.195 NA
ENDROOT
BRANCH   1   6
HETATM    6  N   UNK N   1      23.812  15.049   4.219  0.00  0.00    -0.337 N 
HETATM    7  C   UNK N   1      23.769  16.089   5.078  0.00  0.00     0.241 C 
HETATM    8  O   UNK N   1      23.736  15.846   6.274  0.00  0.00    -0.271 OA
HETATM    9  H   UNK N   1      22.975  14.606   3.949  0.00  0.00     0.164 HD
BRANCH   7  10
HETATM   10  C   UNK N   1      23.977  17.530   4.585  0.00  0.00     0.173 C 
BRANCH  10  11
HETATM   11  N   UNK N   1      24.839  18.475   5.310  0.00  0.00    -0.394 N 
HETATM   12  H   UNK N   1      24.666  18.889   6.226  0.00  0.00     0.155 HD
BRANCH  11  13
HETATM   13  C   UNK N   1      26.001  18.698   4.440  0.00  0.00     0.219 C 
BRANCH  13  14
HETATM   14  C   UNK N   1      26.225  20.179   3.940  0.00  0.00     0.411 C 
HETATM   15  F   UNK N   1      26.001  21.164   4.857  0.00  0.00    -0.168 F 
HETATM   16  F   UNK N   1      27.513  20.343   3.443  0.00  0.00    -0.168 F 
HETATM   17  F   UNK N   1      25.306  20.431   2.928  0.00  0.00    -0.168 F 
ENDBRANCH  13  14
BRANCH  13  18
HETATM   18  C   UNK N   1      27.170  18.255   5.227  0.00  0.00    -0.027 A 
HETATM   19  C   UNK N   1      27.414  18.758   6.509  0.00  0.00     0.010 A 
HETATM   20  C   UNK N   1      28.577  18.409   7.176  0.00  0.00     0.013 A 
HETATM   21  C   UNK N   1      29.472  17.545   6.539  0.00  0.00    -0.026 A 
HETATM   22  C   UNK N   1      29.203  17.045   5.278  0.00  0.00     0.013 A 
HETATM   23  C   UNK N   1      28.086  17.406   4.634  0.00  0.00     0.010 A 
BRANCH  21  24
HETATM   24  C   UNK N   1      30.597  16.983   7.215  0.00  0.00    -0.026 A 
HETATM   25  C   UNK N   1      31.173  15.792   6.801  0.00  0.00     0.014 A 
HETATM   26  C   UNK N   1      32.389  15.417   7.348  0.00  0.00     0.024 A 
HETATM   27  C   UNK N   1      33.043  16.233   8.305  0.00  0.00     0.058 A 
HETATM   28  C   UNK N   1      32.427  17.432   8.688  0.00  0.00     0.024 A 
HETATM   29  C   UNK N   1      31.214  17.780   8.177  0.00  0.00     0.014 A 
BRANCH  27  30
HETATM   30  S   UNK N   1      34.789  15.897   8.798  0.00  0.00     0.171 S 
HETATM   31  O   UNK N   1      34.921  14.384   8.978  0.00  0.00    -0.223 OA
HETATM   32  O   UNK N   1      34.942  15.336   7.375  0.00  0.00    -0.223 OA
HETATM   33  C   UNK N   1      33.991  14.912  10.116  0.00  0.00     0.167 C 
ENDBRANCH  27  30
ENDBRANCH  21  24
ENDBRANCH  13  18
ENDBRANCH  11  13
ENDBRANCH  10  11
BRANCH  10  34
HETATM   34  C   UNK N   1      22.983  18.191   3.648  0.00  0.00     0.077 C 
BRANCH  34  35
HETATM   35  C   UNK N   1      21.601  18.461   4.268  0.00  0.00     0.098 C 
HETATM   36  C   UNK N   1      20.589  17.396   4.004  0.00  0.00     0.051 C 
HETATM   37  C   UNK N   1      20.979  19.751   3.775  0.00  0.00     0.051 C 
HETATM   38  F   UNK N   1      21.770  18.494   5.632  0.00  0.00    -0.244 F 
ENDBRANCH  34  35
ENDBRANCH  10  34
ENDBRANCH   7  10
ENDBRANCH   1   6
TORSDOF 10
ENDMDL
MODEL 8
REMARK VINA RESULT:      -6.6      4.542      9.551
REMARK  10 active torsions:
REMARK  status: ('A' for Active; 'I' for Inactive)
REMARK    1  A    between atoms: C_2  and  S_7 
REMARK    2  A    between atoms: C_5  and  C_11 
REMARK    3  A    between atoms: C_14  and  C_17 
REMARK    4  A    between atoms: C_17  and  N_18 
REMARK    5  A    between atoms: C_17  and  C_28 
REMARK    6  A    between atoms: N_18  and  C_19 
REMARK    7  A    between atoms: C_19  and  C_20 
REMARK    8  A    between atoms: C_19  and  C_29 
REMARK       I    between atoms: C_20  and  N_21 
REMARK    9  A    between atoms: N_21  and  C_23 
REMARK   10  A    between atoms: C_29  and  C_33 
ROOT
HETATM    1  C   UNK N   1      33.124  17.155   8.189  0.00  0.00     0.122 A 
HETATM    2  C   UNK N   1      34.217  18.219   8.273  0.00  0.00     0.050 A 
HETATM    3  C   UNK N   1      33.706  17.782   6.936  0.00  0.00     0.050 A 
HETATM    4  C   UNK N   1      31.725  17.531   8.325  0.00  0.00     0.091 C 
HETATM    5  N   UNK N   1      30.605  17.794   8.446  0.00  0.00    -0.195 NA
ENDROOT
BRANCH   1   6
HETATM    6  N   UNK N   1      33.525  15.782   8.387  0.00  0.00    -0.337 N 
HETATM    7  C   UNK N   1      32.788  14.767   7.889  0.00  0.00     0.241 C 
HETATM    8  O   UNK N   1      31.978  14.229   8.628  0.00  0.00    -0.271 OA
HETATM    9  H   UNK N   1      34.347  15.585   8.891  0.00  0.00     0.164 HD
BRANCH   7  10
HETATM   10  C   UNK N   1      32.805  14.441   6.388  0.00  0.00     0.173 C 
BRANCH  10  11
HETATM   11  N   UNK N   1      31.598  14.569   5.557  0.00  0.00    -0.394 N 
HETATM   12  H   UNK N   1      30.881  13.862   5.399  0.00  0.00     0.155 HD
BRANCH  11  13
HETATM   13  C   UNK N   1      31.642  15.929   5.005  0.00  0.00     0.219 C 
BRANCH  13  14
HETATM   14  C   UNK N   1      32.206  16.069   3.536  0.00  0.00     0.411 C 
HETATM   15  F   UNK N   1      31.299  16.401   2.572  0.00  0.00    -0.168 F 
HETATM   16  F   UNK N   1      33.238  16.999   3.490  0.00  0.00    -0.168 F 
HETATM   17  F   UNK N   1      32.689  14.825   3.146  0.00  0.00    -0.168 F 
ENDBRANCH  13  14
BRANCH  13  18
HETATM   18  C   UNK N   1      30.247  16.415   5.051  0.00  0.00    -0.027 A 
HETATM   19  C   UNK N   1      29.951  17.779   4.971  0.00  0.00     0.010 A 
HETATM   20  C   UNK N   1      28.645  18.212   5.129  0.00  0.00     0.013 A 
HETATM   21  C   UNK N   1      27.653  17.254   5.356  0.00  0.00    -0.026 A 
HETATM   22  C   UNK N   1      27.965  15.907   5.414  0.00  0.00     0.013 A 
HETATM   23  C   UNK N   1      29.234  15.503   5.281  0.00  0.00     0.010 A 
BRANCH  21  24
HETATM   24  C   UNK N   1      26.264  17.580   5.344  0.00  0.00    -0.026 A 
HETATM   25  C   UNK N   1      25.817  18.846   4.998  0.00  0.00     0.014 A 
HETATM   26  C   UNK N   1      24.462  19.037   4.785  0.00  0.00     0.024 A 
HETATM   27  C   UNK N   1      23.544  17.962   4.906  0.00  0.00     0.058 A 
HETATM   28  C   UNK N   1      24.042  16.699   5.250  0.00  0.00     0.024 A 
HETATM   29  C   UNK N   1      25.369  16.521   5.496  0.00  0.00     0.014 A 
BRANCH  27  30
HETATM   30  S   UNK N   1      21.801  18.138   4.325  0.00  0.00     0.171 S 
HETATM   31  O   UNK N   1      21.204  19.341   5.057  0.00  0.00    -0.223 OA
HETATM   32  O   UNK N   1      22.321  19.368   3.564  0.00  0.00    -0.223 OA
HETATM   33  C   UNK N   1      21.450  18.222   6.118  0.00  0.00     0.167 C 
ENDBRANCH  27  30
ENDBRANCH  21  24
ENDBRANCH  13  18
ENDBRANCH  11  13
ENDBRANCH  10  11
BRANCH  10  34
HETATM   34  C   UNK N   1      33.876  13.546   5.790  0.00  0.00     0.077 C 
BRANCH  34  35
HETATM   35  C   UNK N   1      35.220  14.248   5.524  0.00  0.00     0.098 C 
HETATM   36  C   UNK N   1      35.932  13.768   4.303  0.00  0.00     0.051 C 
HETATM   37  C   UNK N   1      36.202  14.084   6.665  0.00  0.00     0.051 C 
HETATM   38  F   UNK N   1      34.945  15.576   5.305  0.00  0.00    -0.244 F 
ENDBRANCH  34  35
ENDBRANCH  10  34
ENDBRANCH   7  10
ENDBRANCH   1   6
TORSDOF 10
ENDMDL
MODEL 9
REMARK VINA RESULT:      -6.6     13.196     17.085
REMARK  10 active torsions:
REMARK  status: ('A' for Active; 'I' for Inactive)
REMARK    1  A    between atoms: C_2  and  S_7 
REMARK    2  A    between atoms: C_5  and  C_11 
REMARK    3  A    between atoms: C_14  and  C_17 
REMARK    4  A    between atoms: C_17  and  N_18 
REMARK    5  A    between atoms: C_17  and  C_28 
REMARK    6  A    between atoms: N_18  and  C_19 
REMARK    7  A    between atoms: C_19  and  C_20 
REMARK    8  A    between atoms: C_19  and  C_29 
REMARK       I    between atoms: C_20  and  N_21 
REMARK    9  A    between atoms: N_21  and  C_23 
REMARK   10  A    between atoms: C_29  and  C_33 
ROOT
HETATM    1  C   UNK N   1      31.861   5.828  19.834  0.00  0.00     0.122 A 
HETATM    2  C   UNK N   1      32.022   4.707  18.808  0.00  0.00     0.050 A 
HETATM    3  C   UNK N   1      33.182   5.101  19.667  0.00  0.00     0.050 A 
HETATM    4  C   UNK N   1      31.303   5.542  21.147  0.00  0.00     0.091 C 
HETATM    5  N   UNK N   1      30.848   5.352  22.194  0.00  0.00    -0.195 NA
ENDROOT
BRANCH   1   6
HETATM    6  N   UNK N   1      31.881   7.183  19.337  0.00  0.00    -0.337 N 
HETATM    7  C   UNK N   1      32.026   8.227  20.180  0.00  0.00     0.241 C 
HETATM    8  O   UNK N   1      31.018   8.797  20.568  0.00  0.00    -0.271 OA
HETATM    9  H   UNK N   1      31.788   7.347  18.371  0.00  0.00     0.164 HD
BRANCH   7  10
HETATM   10  C   UNK N   1      33.391   8.553  20.806  0.00  0.00     0.173 C 
BRANCH  10  11
HETATM   11  N   UNK N   1      34.623   8.567  20.005  0.00  0.00    -0.394 N 
HETATM   12  H   UNK N   1      34.941   7.853  19.349  0.00  0.00     0.155 HD
BRANCH  11  13
HETATM   13  C   UNK N   1      35.302   9.824  20.345  0.00  0.00     0.219 C 
BRANCH  13  14
HETATM   14  C   UNK N   1      36.729   9.690  21.008  0.00  0.00     0.411 C 
HETATM   15  F   UNK N   1      37.794  10.005  20.214  0.00  0.00    -0.168 F 
HETATM   16  F   UNK N   1      36.813  10.463  22.160  0.00  0.00    -0.168 F 
HETATM   17  F   UNK N   1      36.922   8.354  21.336  0.00  0.00    -0.168 F 
ENDBRANCH  13  14
BRANCH  13  18
HETATM   18  C   UNK N   1      35.412  10.566  19.071  0.00  0.00    -0.027 A 
HETATM   19  C   UNK N   1      35.309  11.960  19.033  0.00  0.00     0.010 A 
HETATM   20  C   UNK N   1      35.305  12.617  17.813  0.00  0.00     0.013 A 
HETATM   21  C   UNK N   1      35.416  11.852  16.649  0.00  0.00    -0.026 A 
HETATM   22  C   UNK N   1      35.535  10.476  16.710  0.00  0.00     0.013 A 
HETATM   23  C   UNK N   1      35.517   9.849  17.894  0.00  0.00     0.010 A 
BRANCH  21  24
HETATM   24  C   UNK N   1      35.609  12.446  15.365  0.00  0.00    -0.026 A 
HETATM   25  C   UNK N   1      34.848  12.072  14.269  0.00  0.00     0.014 A 
HETATM   26  C   UNK N   1      34.923  12.836  13.116  0.00  0.00     0.024 A 
HETATM   27  C   UNK N   1      35.751  13.985  13.053  0.00  0.00     0.058 A 
HETATM   28  C   UNK N   1      36.497  14.329  14.188  0.00  0.00     0.024 A 
HETATM   29  C   UNK N   1      36.451  13.556  15.307  0.00  0.00     0.014 A 
BRANCH  27  30
HETATM   30  S   UNK N   1      35.619  15.170  11.645  0.00  0.00     0.171 S 
HETATM   31  O   UNK N   1      35.442  14.338  10.374  0.00  0.00    -0.223 OA
HETATM   32  O   UNK N   1      34.133  14.775  11.627  0.00  0.00    -0.223 OA
HETATM   33  C   UNK N   1      36.889  14.082  10.904  0.00  0.00     0.167 C 
ENDBRANCH  27  30
ENDBRANCH  21  24
ENDBRANCH  13  18
ENDBRANCH  11  13
ENDBRANCH  10  11
BRANCH  10  34
HETATM   34  C   UNK N   1      33.624   8.410  22.299  0.00  0.00     0.077 C 
BRANCH  34  35
HETATM   35  C   UNK N   1      33.075   9.571  23.147  0.00  0.00     0.098 C 
HETATM   36  C   UNK N   1      32.897  10.849  22.397  0.00  0.00     0.051 C 
HETATM   37  C   UNK N   1      33.965   9.908  24.326  0.00  0.00     0.051 C 
HETATM   38  F   UNK N   1      31.822   9.202  23.572  0.00  0.00    -0.244 F 
ENDBRANCH  34  35
ENDBRANCH  10  34
ENDBRANCH   7  10
ENDBRANCH   1   6
TORSDOF 10
ENDMDL
