MODEL 1
REMARK VINA RESULT:      -6.3      0.000      0.000
REMARK  9 active torsions:
REMARK  status: ('A' for Active; 'I' for Inactive)
REMARK    1  A    between atoms: C_4  and  C_7 
REMARK    2  A    between atoms: C_8  and  C_10 
REMARK    3  A    between atoms: C_8  and  C_11 
REMARK    4  A    between atoms: C_14  and  O_22 
REMARK    5  A    between atoms: O_22  and  C_23 
REMARK    6  A    between atoms: C_23  and  C_24 
REMARK    7  A    between atoms: C_24  and  N_25 
REMARK    8  A    between atoms: N_25  and  C_26 
REMARK    9  A    between atoms: N_25  and  C_27 
ROOT
HETATM    1  C   UNK N   1      26.707  25.470  -6.640  0.00  0.00     0.056 C 
HETATM    2  C   UNK N   1      27.324  25.968  -5.487  0.00  0.00     0.007 C 
HETATM    3 Cl   UNK N   1      25.844  26.551  -7.762  0.00  0.00    -0.082 Cl
ENDROOT
BRANCH   2   4
HETATM    4  C   UNK N   1      27.163  27.431  -5.070  0.00  0.00    -0.023 A 
HETATM    5  C   UNK N   1      26.257  27.785  -4.049  0.00  0.00     0.012 A 
HETATM    6  C   UNK N   1      26.092  29.114  -3.649  0.00  0.00     0.001 A 
HETATM    7  C   UNK N   1      26.830  30.124  -4.265  0.00  0.00     0.000 A 
HETATM    8  C   UNK N   1      27.726  29.803  -5.281  0.00  0.00     0.001 A 
HETATM    9  C   UNK N   1      27.887  28.474  -5.677  0.00  0.00     0.012 A 
ENDBRANCH   2   4
BRANCH   2  10
HETATM   10  C   UNK N   1      28.244  25.113  -4.629  0.00  0.00    -0.023 A 
HETATM   11  C   UNK N   1      29.639  25.225  -4.720  0.00  0.00     0.015 A 
HETATM   12  C   UNK N   1      30.481  24.456  -3.918  0.00  0.00     0.037 A 
HETATM   13  C   UNK N   1      29.948  23.570  -2.973  0.00  0.00     0.068 A 
HETATM   14  C   UNK N   1      28.562  23.484  -2.828  0.00  0.00     0.037 A 
HETATM   15  C   UNK N   1      27.722  24.248  -3.645  0.00  0.00     0.015 A 
BRANCH  13  16
HETATM   16  O   UNK N   1      30.750  22.788  -2.209  0.00  0.00    -0.349 OA
BRANCH  16  17
HETATM   17  C   UNK N   1      31.700  21.943  -2.746  0.00  0.00     0.206 C 
BRANCH  17  18
HETATM   18  C   UNK N   1      31.010  20.888  -3.622  0.00  0.00     0.299 C 
BRANCH  18  19
HETATM   19  N   UNK N   1      31.776  20.517  -4.819  0.00  0.00     0.089 N 
BRANCH  19  20
HETATM   20  C   UNK N   1      30.876  20.343  -5.952  0.00  0.00     0.268 C 
HETATM   21  C   UNK N   1      29.793  21.405  -5.931  0.00  0.00     0.037 C 
ENDBRANCH  19  20
BRANCH  19  22
HETATM   22  C   UNK N   1      32.762  21.542  -5.144  0.00  0.00     0.268 C 
HETATM   23  C   UNK N   1      33.671  21.049  -6.253  0.00  0.00     0.037 C 
ENDBRANCH  19  22
ENDBRANCH  18  19
ENDBRANCH  17  18
ENDBRANCH  16  17
ENDBRANCH  13  16
ENDBRANCH   2  10
BRANCH   1  24
HETATM   24  C   UNK N   1      26.673  24.028  -7.084  0.00  0.00    -0.014 A 
HETATM   25  C   UNK N   1      25.704  23.113  -6.635  0.00  0.00     0.013 A 
HETATM   26  C   UNK N   1      25.672  21.802  -7.122  0.00  0.00     0.001 A 
HETATM   27  C   UNK N   1      26.591  21.392  -8.088  0.00  0.00     0.000 A 
HETATM   28  C   UNK N   1      27.534  22.296  -8.577  0.00  0.00     0.001 A 
HETATM   29  C   UNK N   1      27.564  23.604  -8.088  0.00  0.00     0.013 A 
ENDBRANCH   1  24
TORSDOF 9
ENDMDL
MODEL 2
REMARK VINA RESULT:      -6.1     11.564     14.504
REMARK  9 active torsions:
REMARK  status: ('A' for Active; 'I' for Inactive)
REMARK    1  A    between atoms: C_4  and  C_7 
REMARK    2  A    between atoms: C_8  and  C_10 
REMARK    3  A    between atoms: C_8  and  C_11 
REMARK    4  A    between atoms: C_14  and  O_22 
REMARK    5  A    between atoms: O_22  and  C_23 
REMARK    6  A    between atoms: C_23  and  C_24 
REMARK    7  A    between atoms: C_24  and  N_25 
REMARK    8  A    between atoms: N_25  and  C_26 
REMARK    9  A    between atoms: N_25  and  C_27 
ROOT
HETATM    1  C   UNK N   1      30.077  17.521   7.294  0.00  0.00     0.056 C 
HETATM    2  C   UNK N   1      29.823  17.487   5.919  0.00  0.00     0.007 C 
HETATM    3 Cl   UNK N   1      28.839  18.079   8.446  0.00  0.00    -0.082 Cl
ENDROOT
BRANCH   2   4
HETATM    4  C   UNK N   1      28.528  18.060   5.337  0.00  0.00    -0.023 A 
HETATM    5  C   UNK N   1      27.374  17.257   5.239  0.00  0.00     0.012 A 
HETATM    6  C   UNK N   1      26.180  17.756   4.713  0.00  0.00     0.001 A 
HETATM    7  C   UNK N   1      26.112  19.076   4.268  0.00  0.00     0.000 A 
HETATM    8  C   UNK N   1      27.240  19.890   4.346  0.00  0.00     0.001 A 
HETATM    9  C   UNK N   1      28.431  19.385   4.873  0.00  0.00     0.012 A 
ENDBRANCH   2   4
BRANCH   2  10
HETATM   10  C   UNK N   1      30.772  16.820   4.936  0.00  0.00    -0.023 A 
HETATM   11  C   UNK N   1      31.843  17.523   4.365  0.00  0.00     0.015 A 
HETATM   12  C   UNK N   1      32.725  16.905   3.480  0.00  0.00     0.037 A 
HETATM   13  C   UNK N   1      32.579  15.548   3.162  0.00  0.00     0.068 A 
HETATM   14  C   UNK N   1      31.552  14.817   3.762  0.00  0.00     0.037 A 
HETATM   15  C   UNK N   1      30.662  15.445   4.640  0.00  0.00     0.015 A 
BRANCH  13  16
HETATM   16  O   UNK N   1      33.405  14.939   2.276  0.00  0.00    -0.349 OA
BRANCH  16  17
HETATM   17  C   UNK N   1      34.019  13.731   2.537  0.00  0.00     0.206 C 
BRANCH  17  18
HETATM   18  C   UNK N   1      35.069  13.918   3.640  0.00  0.00     0.299 C 
BRANCH  18  19
HETATM   19  N   UNK N   1      34.857  13.060   4.813  0.00  0.00     0.089 N 
BRANCH  19  20
HETATM   20  C   UNK N   1      34.457  13.871   5.957  0.00  0.00     0.268 C 
HETATM   21  C   UNK N   1      35.061  15.259   5.854  0.00  0.00     0.037 C 
ENDBRANCH  19  20
BRANCH  19  22
HETATM   22  C   UNK N   1      33.825  12.064   4.549  0.00  0.00     0.268 C 
HETATM   23  C   UNK N   1      32.909  11.940   5.751  0.00  0.00     0.037 C 
ENDBRANCH  19  22
ENDBRANCH  18  19
ENDBRANCH  17  18
ENDBRANCH  16  17
ENDBRANCH  13  16
ENDBRANCH   2  10
BRANCH   1  24
HETATM   24  C   UNK N   1      31.363  17.119   7.975  0.00  0.00    -0.014 A 
HETATM   25  C   UNK N   1      31.609  15.813   8.434  0.00  0.00     0.013 A 
HETATM   26  C   UNK N   1      32.841  15.471   9.002  0.00  0.00     0.001 A 
HETATM   27  C   UNK N   1      33.857  16.422   9.096  0.00  0.00     0.000 A 
HETATM   28  C   UNK N   1      33.647  17.712   8.610  0.00  0.00     0.001 A 
HETATM   29  C   UNK N   1      32.416  18.051   8.044  0.00  0.00     0.013 A 
ENDBRANCH   1  24
TORSDOF 9
ENDMDL
MODEL 3
REMARK VINA RESULT:      -6.1     17.072     21.229
REMARK  9 active torsions:
REMARK  status: ('A' for Active; 'I' for Inactive)
REMARK    1  A    between atoms: C_4  and  C_7 
REMARK    2  A    between atoms: C_8  and  C_10 
REMARK    3  A    between atoms: C_8  and  C_11 
REMARK    4  A    between atoms: C_14  and  O_22 
REMARK    5  A    between atoms: O_22  and  C_23 
REMARK    6  A    between atoms: C_23  and  C_24 
REMARK    7  A    between atoms: C_24  and  N_25 
REMARK    8  A    between atoms: N_25  and  C_26 
REMARK    9  A    between atoms: N_25  and  C_27 
ROOT
HETATM    1  C   UNK N   1      37.232  12.307  12.393  0.00  0.00     0.056 C 
HETATM    2  C   UNK N   1      36.383  13.319  12.853  0.00  0.00     0.007 C 
HETATM    3 Cl   UNK N   1      37.839  11.044  13.492  0.00  0.00    -0.082 Cl
ENDROOT
BRANCH   2   4
HETATM    4  C   UNK N   1      36.058  13.466  14.342  0.00  0.00    -0.023 A 
HETATM    5  C   UNK N   1      36.858  14.280  15.169  0.00  0.00     0.012 A 
HETATM    6  C   UNK N   1      36.581  14.432  16.530  0.00  0.00     0.001 A 
HETATM    7  C   UNK N   1      35.496  13.768  17.099  0.00  0.00     0.000 A 
HETATM    8  C   UNK N   1      34.693  12.950  16.307  0.00  0.00     0.001 A 
HETATM    9  C   UNK N   1      34.974  12.803  14.947  0.00  0.00     0.012 A 
ENDBRANCH   2   4
BRANCH   2  10
HETATM   10  C   UNK N   1      35.680  14.279  11.906  0.00  0.00    -0.023 A 
HETATM   11  C   UNK N   1      36.150  15.587  11.713  0.00  0.00     0.015 A 
HETATM   12  C   UNK N   1      35.517  16.459  10.830  0.00  0.00     0.037 A 
HETATM   13  C   UNK N   1      34.407  16.037  10.084  0.00  0.00     0.068 A 
HETATM   14  C   UNK N   1      33.958  14.722  10.221  0.00  0.00     0.037 A 
HETATM   15  C   UNK N   1      34.589  13.855  11.120  0.00  0.00     0.015 A 
BRANCH  13  16
HETATM   16  O   UNK N   1      33.758  16.882   9.247  0.00  0.00    -0.349 OA
BRANCH  16  17
HETATM   17  C   UNK N   1      34.416  17.785   8.437  0.00  0.00     0.206 C 
BRANCH  17  18
HETATM   18  C   UNK N   1      34.088  17.488   6.968  0.00  0.00     0.299 C 
BRANCH  18  19
HETATM   19  N   UNK N   1      33.892  16.061   6.679  0.00  0.00     0.089 N 
BRANCH  19  20
HETATM   20  C   UNK N   1      32.791  15.891   5.738  0.00  0.00     0.268 C 
HETATM   21  C   UNK N   1      32.531  17.187   4.993  0.00  0.00     0.037 C 
ENDBRANCH  19  20
BRANCH  19  22
HETATM   22  C   UNK N   1      35.101  15.475   6.112  0.00  0.00     0.268 C 
HETATM   23  C   UNK N   1      35.615  14.375   7.020  0.00  0.00     0.037 C 
ENDBRANCH  19  22
ENDBRANCH  18  19
ENDBRANCH  17  18
ENDBRANCH  16  17
ENDBRANCH  13  16
ENDBRANCH   2  10
BRANCH   1  24
HETATM   24  C   UNK N   1      37.739  12.138  10.982  0.00  0.00    -0.014 A 
HETATM   25  C   UNK N   1      37.215  11.186  10.090  0.00  0.00     0.013 A 
HETATM   26  C   UNK N   1      37.672  11.108   8.770  0.00  0.00     0.001 A 
HETATM   27  C   UNK N   1      38.641  12.000   8.312  0.00  0.00     0.000 A 
HETATM   28  C   UNK N   1      39.145  12.979   9.169  0.00  0.00     0.001 A 
HETATM   29  C   UNK N   1      38.688  13.053  10.486  0.00  0.00     0.013 A 
ENDBRANCH   1  24
TORSDOF 9
ENDMDL
MODEL 4
REMARK VINA RESULT:      -6.1     23.463     27.339
REMARK  9 active torsions:
REMARK  status: ('A' for Active; 'I' for Inactive)
REMARK    1  A    between atoms: C_4  and  C_7 
REMARK    2  A    between atoms: C_8  and  C_10 
REMARK    3  A    between atoms: C_8  and  C_11 
REMARK    4  A    between atoms: C_14  and  O_22 
REMARK    5  A    between atoms: O_22  and  C_23 
REMARK    6  A    between atoms: C_23  and  C_24 
REMARK    7  A    between atoms: C_24  and  N_25 
REMARK    8  A    between atoms: N_25  and  C_26 
REMARK    9  A    between atoms: N_25  and  C_27 
ROOT
HETATM    1  C   UNK N   1      35.651   7.972  17.895  0.00  0.00     0.056 C 
HETATM    2  C   UNK N   1      34.924   9.147  18.114  0.00  0.00     0.007 C 
HETATM    3 Cl   UNK N   1      35.459   6.559  18.962  0.00  0.00    -0.082 Cl
ENDROOT
BRANCH   2   4
HETATM    4  C   UNK N   1      34.046   9.318  19.356  0.00  0.00    -0.023 A 
HETATM    5  C   UNK N   1      32.787   8.689  19.430  0.00  0.00     0.012 A 
HETATM    6  C   UNK N   1      31.967   8.828  20.553  0.00  0.00     0.001 A 
HETATM    7  C   UNK N   1      32.388   9.605  21.631  0.00  0.00     0.000 A 
HETATM    8  C   UNK N   1      33.625  10.244  21.581  0.00  0.00     0.001 A 
HETATM    9  C   UNK N   1      34.439  10.102  20.456  0.00  0.00     0.012 A 
ENDBRANCH   2   4
BRANCH   2  10
HETATM   10  C   UNK N   1      34.905  10.286  17.106  0.00  0.00    -0.023 A 
HETATM   11  C   UNK N   1      34.217  10.170  15.888  0.00  0.00     0.015 A 
HETATM   12  C   UNK N   1      34.183  11.221  14.974  0.00  0.00     0.037 A 
HETATM   13  C   UNK N   1      34.812  12.439  15.266  0.00  0.00     0.068 A 
HETATM   14  C   UNK N   1      35.455  12.593  16.496  0.00  0.00     0.037 A 
HETATM   15  C   UNK N   1      35.498  11.530  17.404  0.00  0.00     0.015 A 
BRANCH  13  16
HETATM   16  O   UNK N   1      34.820  13.460  14.375  0.00  0.00    -0.349 OA
BRANCH  16  17
HETATM   17  C   UNK N   1      35.981  13.960  13.821  0.00  0.00     0.206 C 
BRANCH  17  18
HETATM   18  C   UNK N   1      36.227  13.294  12.461  0.00  0.00     0.299 C 
BRANCH  18  19
HETATM   19  N   UNK N   1      37.469  12.512  12.398  0.00  0.00     0.089 N 
BRANCH  19  20
HETATM   20  C   UNK N   1      37.197  11.120  12.739  0.00  0.00     0.268 C 
HETATM   21  C   UNK N   1      37.867  10.760  14.052  0.00  0.00     0.037 C 
ENDBRANCH  19  20
BRANCH  19  22
HETATM   22  C   UNK N   1      38.054  12.571  11.063  0.00  0.00     0.268 C 
HETATM   23  C   UNK N   1      37.460  13.734  10.292  0.00  0.00     0.037 C 
ENDBRANCH  19  22
ENDBRANCH  18  19
ENDBRANCH  17  18
ENDBRANCH  16  17
ENDBRANCH  13  16
ENDBRANCH   2  10
BRANCH   1  24
HETATM   24  C   UNK N   1      36.653   7.732  16.792  0.00  0.00    -0.014 A 
HETATM   25  C   UNK N   1      38.025   8.002  16.934  0.00  0.00     0.013 A 
HETATM   26  C   UNK N   1      38.928   7.705  15.908  0.00  0.00     0.001 A 
HETATM   27  C   UNK N   1      38.476   7.107  14.731  0.00  0.00     0.000 A 
HETATM   28  C   UNK N   1      37.125   6.794  14.586  0.00  0.00     0.001 A 
HETATM   29  C   UNK N   1      36.226   7.092  15.612  0.00  0.00     0.013 A 
ENDBRANCH   1  24
TORSDOF 9
ENDMDL
MODEL 5
REMARK VINA RESULT:      -6.0     11.331     13.564
REMARK  9 active torsions:
REMARK  status: ('A' for Active; 'I' for Inactive)
REMARK    1  A    between atoms: C_4  and  C_7 
REMARK    2  A    between atoms: C_8  and  C_10 
REMARK    3  A    between atoms: C_8  and  C_11 
REMARK    4  A    between atoms: C_14  and  O_22 
REMARK    5  A    between atoms: O_22  and  C_23 
REMARK    6  A    between atoms: C_23  and  C_24 
REMARK    7  A    between atoms: C_24  and  N_25 
REMARK    8  A    between atoms: N_25  and  C_26 
REMARK    9  A    between atoms: N_25  and  C_27 
ROOT
HETATM    1  C   UNK N   1      28.203  16.523   4.109  0.00  0.00     0.056 C 
HETATM    2  C   UNK N   1      28.846  17.546   4.813  0.00  0.00     0.007 C 
HETATM    3 Cl   UNK N   1      26.551  16.737   3.479  0.00  0.00    -0.082 Cl
ENDROOT
BRANCH   2   4
HETATM    4  C   UNK N   1      28.109  18.833   5.194  0.00  0.00    -0.023 A 
HETATM    5  C   UNK N   1      27.890  19.154   6.549  0.00  0.00     0.012 A 
HETATM    6  C   UNK N   1      27.222  20.322   6.923  0.00  0.00     0.001 A 
HETATM    7  C   UNK N   1      26.751  21.199   5.946  0.00  0.00     0.000 A 
HETATM    8  C   UNK N   1      26.947  20.902   4.599  0.00  0.00     0.001 A 
HETATM    9  C   UNK N   1      27.616  19.733   4.232  0.00  0.00     0.012 A 
ENDBRANCH   2   4
BRANCH   2  10
HETATM   10  C   UNK N   1      30.322  17.476   5.175  0.00  0.00    -0.023 A 
HETATM   11  C   UNK N   1      30.740  17.125   6.468  0.00  0.00     0.015 A 
HETATM   12  C   UNK N   1      32.092  17.041   6.793  0.00  0.00     0.037 A 
HETATM   13  C   UNK N   1      33.074  17.276   5.821  0.00  0.00     0.068 A 
HETATM   14  C   UNK N   1      32.678  17.573   4.515  0.00  0.00     0.037 A 
HETATM   15  C   UNK N   1      31.319  17.669   4.197  0.00  0.00     0.015 A 
BRANCH  13  16
HETATM   16  O   UNK N   1      34.393  17.234   6.127  0.00  0.00    -0.349 OA
BRANCH  16  17
HETATM   17  C   UNK N   1      34.941  16.264   6.941  0.00  0.00     0.206 C 
BRANCH  17  18
HETATM   18  C   UNK N   1      35.015  14.935   6.177  0.00  0.00     0.299 C 
BRANCH  18  19
HETATM   19  N   UNK N   1      34.337  13.821   6.853  0.00  0.00     0.089 N 
BRANCH  19  20
HETATM   20  C   UNK N   1      34.144  14.139   8.262  0.00  0.00     0.268 C 
HETATM   21  C   UNK N   1      32.717  13.839   8.678  0.00  0.00     0.037 C 
ENDBRANCH  19  20
BRANCH  19  22
HETATM   22  C   UNK N   1      33.041  13.554   6.241  0.00  0.00     0.268 C 
HETATM   23  C   UNK N   1      33.110  13.820   4.749  0.00  0.00     0.037 C 
ENDBRANCH  19  22
ENDBRANCH  18  19
ENDBRANCH  17  18
ENDBRANCH  16  17
ENDBRANCH  13  16
ENDBRANCH   2  10
BRANCH   1  24
HETATM   24  C   UNK N   1      28.769  15.160   3.796  0.00  0.00    -0.014 A 
HETATM   25  C   UNK N   1      29.342  14.837   2.553  0.00  0.00     0.013 A 
HETATM   26  C   UNK N   1      29.913  13.580   2.328  0.00  0.00     0.001 A 
HETATM   27  C   UNK N   1      29.946  12.634   3.352  0.00  0.00     0.000 A 
HETATM   28  C   UNK N   1      29.420  12.948   4.605  0.00  0.00     0.001 A 
HETATM   29  C   UNK N   1      28.850  14.203   4.826  0.00  0.00     0.013 A 
ENDBRANCH   1  24
TORSDOF 9
ENDMDL
MODEL 6
REMARK VINA RESULT:      -6.0     17.192     21.428
REMARK  9 active torsions:
REMARK  status: ('A' for Active; 'I' for Inactive)
REMARK    1  A    between atoms: C_4  and  C_7 
REMARK    2  A    between atoms: C_8  and  C_10 
REMARK    3  A    between atoms: C_8  and  C_11 
REMARK    4  A    between atoms: C_14  and  O_22 
REMARK    5  A    between atoms: O_22  and  C_23 
REMARK    6  A    between atoms: C_23  and  C_24 
REMARK    7  A    between atoms: C_24  and  N_25 
REMARK    8  A    between atoms: N_25  and  C_26 
REMARK    9  A    between atoms: N_25  and  C_27 
ROOT
HETATM    1  C   UNK N   1      37.292  12.248  12.356  0.00  0.00     0.056 C 
HETATM    2  C   UNK N   1      36.415  13.247  12.793  0.00  0.00     0.007 C 
HETATM    3 Cl   UNK N   1      37.865  10.977  13.464  0.00  0.00    -0.082 Cl
ENDROOT
BRANCH   2   4
HETATM    4  C   UNK N   1      36.026  13.372  14.268  0.00  0.00    -0.023 A 
HETATM    5  C   UNK N   1      36.807  14.149  15.147  0.00  0.00     0.012 A 
HETATM    6  C   UNK N   1      36.473  14.280  16.497  0.00  0.00     0.001 A 
HETATM    7  C   UNK N   1      35.347  13.632  17.003  0.00  0.00     0.000 A 
HETATM    8  C   UNK N   1      34.562  12.851  16.158  0.00  0.00     0.001 A 
HETATM    9  C   UNK N   1      34.901  12.724  14.809  0.00  0.00     0.012 A 
ENDBRANCH   2   4
BRANCH   2  10
HETATM   10  C   UNK N   1      35.743  14.213  11.829  0.00  0.00    -0.023 A 
HETATM   11  C   UNK N   1      34.677  13.805  11.013  0.00  0.00     0.015 A 
HETATM   12  C   UNK N   1      34.050  14.696  10.145  0.00  0.00     0.037 A 
HETATM   13  C   UNK N   1      34.450  16.038  10.088  0.00  0.00     0.068 A 
HETATM   14  C   UNK N   1      35.473  16.476  10.932  0.00  0.00     0.037 A 
HETATM   15  C   UNK N   1      36.109  15.574  11.792  0.00  0.00     0.015 A 
BRANCH  13  16
HETATM   16  O   UNK N   1      33.876  16.910   9.225  0.00  0.00    -0.349 OA
BRANCH  16  17
HETATM   17  C   UNK N   1      32.852  16.552   8.372  0.00  0.00     0.206 C 
BRANCH  17  18
HETATM   18  C   UNK N   1      31.746  17.614   8.426  0.00  0.00     0.299 C 
BRANCH  18  19
HETATM   19  N   UNK N   1      30.454  17.153   7.900  0.00  0.00     0.089 N 
BRANCH  19  20
HETATM   20  C   UNK N   1      29.391  18.051   8.336  0.00  0.00     0.268 C 
HETATM   21  C   UNK N   1      29.715  18.626   9.701  0.00  0.00     0.037 C 
ENDBRANCH  19  20
BRANCH  19  22
HETATM   22  C   UNK N   1      30.473  17.107   6.442  0.00  0.00     0.268 C 
HETATM   23  C   UNK N   1      29.136  17.567   5.895  0.00  0.00     0.037 C 
ENDBRANCH  19  22
ENDBRANCH  18  19
ENDBRANCH  17  18
ENDBRANCH  16  17
ENDBRANCH  13  16
ENDBRANCH   2  10
BRANCH   1  24
HETATM   24  C   UNK N   1      37.860  12.103  10.965  0.00  0.00    -0.014 A 
HETATM   25  C   UNK N   1      38.756  13.030  10.405  0.00  0.00     0.013 A 
HETATM   26  C   UNK N   1      39.307  12.822   9.135  0.00  0.00     0.001 A 
HETATM   27  C   UNK N   1      38.991  11.668   8.417  0.00  0.00     0.000 A 
HETATM   28  C   UNK N   1      38.136  10.717   8.972  0.00  0.00     0.001 A 
HETATM   29  C   UNK N   1      37.587  10.928  10.238  0.00  0.00     0.013 A 
ENDBRANCH   1  24
TORSDOF 9
ENDMDL
MODEL 7
REMARK VINA RESULT:      -5.9      1.625      5.130
REMARK  9 active torsions:
REMARK  status: ('A' for Active; 'I' for Inactive)
REMARK    1  A    between atoms: C_4  and  C_7 
REMARK    2  A    between atoms: C_8  and  C_10 
REMARK    3  A    between atoms: C_8  and  C_11 
REMARK    4  A    between atoms: C_14  and  O_22 
REMARK    5  A    between atoms: O_22  and  C_23 
REMARK    6  A    between atoms: C_23  and  C_24 
REMARK    7  A    between atoms: C_24  and  N_25 
REMARK    8  A    between atoms: N_25  and  C_26 
REMARK    9  A    between atoms: N_25  and  C_27 
ROOT
HETATM    1  C   UNK N   1      26.171  27.054  -5.698  0.00  0.00     0.056 C 
HETATM    2  C   UNK N   1      26.903  25.906  -6.024  0.00  0.00     0.007 C 
HETATM    3 Cl   UNK N   1      24.404  27.109  -5.909  0.00  0.00    -0.082 Cl
ENDROOT
BRANCH   2   4
HETATM    4  C   UNK N   1      26.238  24.708  -6.706  0.00  0.00    -0.023 A 
HETATM    5  C   UNK N   1      25.869  24.776  -8.064  0.00  0.00     0.012 A 
HETATM    6  C   UNK N   1      25.262  23.696  -8.710  0.00  0.00     0.001 A 
HETATM    7  C   UNK N   1      25.005  22.519  -8.009  0.00  0.00     0.000 A 
HETATM    8  C   UNK N   1      25.352  22.427  -6.663  0.00  0.00     0.001 A 
HETATM    9  C   UNK N   1      25.958  23.510  -6.023  0.00  0.00     0.012 A 
ENDBRANCH   2   4
BRANCH   2  10
HETATM   10  C   UNK N   1      28.371  25.751  -5.658  0.00  0.00    -0.023 A 
HETATM   11  C   UNK N   1      29.380  25.865  -6.626  0.00  0.00     0.015 A 
HETATM   12  C   UNK N   1      30.725  25.742  -6.286  0.00  0.00     0.037 A 
HETATM   13  C   UNK N   1      31.107  25.533  -4.954  0.00  0.00     0.068 A 
HETATM   14  C   UNK N   1      30.121  25.472  -3.967  0.00  0.00     0.037 A 
HETATM   15  C   UNK N   1      28.771  25.582  -4.316  0.00  0.00     0.015 A 
BRANCH  13  16
HETATM   16  O   UNK N   1      32.408  25.376  -4.610  0.00  0.00    -0.349 OA
BRANCH  16  17
HETATM   17  C   UNK N   1      33.178  24.321  -5.057  0.00  0.00     0.206 C 
BRANCH  17  18
HETATM   18  C   UNK N   1      32.658  23.013  -4.445  0.00  0.00     0.299 C 
BRANCH  18  19
HETATM   19  N   UNK N   1      31.935  22.158  -5.397  0.00  0.00     0.089 N 
BRANCH  19  20
HETATM   20  C   UNK N   1      32.723  20.968  -5.693  0.00  0.00     0.268 C 
HETATM   21  C   UNK N   1      32.411  19.869  -4.695  0.00  0.00     0.037 C 
ENDBRANCH  19  20
BRANCH  19  22
HETATM   22  C   UNK N   1      30.643  21.754  -4.854  0.00  0.00     0.268 C 
HETATM   23  C   UNK N   1      29.533  22.183  -5.794  0.00  0.00     0.037 C 
ENDBRANCH  19  22
ENDBRANCH  18  19
ENDBRANCH  17  18
ENDBRANCH  16  17
ENDBRANCH  13  16
ENDBRANCH   2  10
BRANCH   1  24
HETATM   24  C   UNK N   1      26.731  28.346  -5.155  0.00  0.00    -0.014 A 
HETATM   25  C   UNK N   1      27.640  29.145  -5.870  0.00  0.00     0.013 A 
HETATM   26  C   UNK N   1      28.083  30.368  -5.354  0.00  0.00     0.001 A 
HETATM   27  C   UNK N   1      27.603  30.825  -4.127  0.00  0.00     0.000 A 
HETATM   28  C   UNK N   1      26.669  30.066  -3.421  0.00  0.00     0.001 A 
HETATM   29  C   UNK N   1      26.229  28.846  -3.938  0.00  0.00     0.013 A 
ENDBRANCH   1  24
TORSDOF 9
ENDMDL
MODEL 8
REMARK VINA RESULT:      -5.9      2.510      4.775
REMARK  9 active torsions:
REMARK  status: ('A' for Active; 'I' for Inactive)
REMARK    1  A    between atoms: C_4  and  C_7 
REMARK    2  A    between atoms: C_8  and  C_10 
REMARK    3  A    between atoms: C_8  and  C_11 
REMARK    4  A    between atoms: C_14  and  O_22 
REMARK    5  A    between atoms: O_22  and  C_23 
REMARK    6  A    between atoms: C_23  and  C_24 
REMARK    7  A    between atoms: C_24  and  N_25 
REMARK    8  A    between atoms: N_25  and  C_26 
REMARK    9  A    between atoms: N_25  and  C_27 
ROOT
HETATM    1  C   UNK N   1      29.936  26.518  -3.832  0.00  0.00     0.056 C 
HETATM    2  C   UNK N   1      28.694  26.821  -4.401  0.00  0.00     0.007 C 
HETATM    3 Cl   UNK N   1      30.849  27.739  -2.911  0.00  0.00    -0.082 Cl
ENDROOT
BRANCH   2   4
HETATM    4  C   UNK N   1      28.137  28.247  -4.378  0.00  0.00    -0.023 A 
HETATM    5  C   UNK N   1      27.188  28.625  -3.407  0.00  0.00     0.012 A 
HETATM    6  C   UNK N   1      26.666  29.921  -3.364  0.00  0.00     0.001 A 
HETATM    7  C   UNK N   1      27.079  30.870  -4.297  0.00  0.00     0.000 A 
HETATM    8  C   UNK N   1      28.009  30.521  -5.273  0.00  0.00     0.001 A 
HETATM    9  C   UNK N   1      28.528  29.225  -5.311  0.00  0.00     0.012 A 
ENDBRANCH   2   4
BRANCH   2  10
HETATM   10  C   UNK N   1      27.798  25.751  -5.005  0.00  0.00    -0.023 A 
HETATM   11  C   UNK N   1      26.997  24.930  -4.197  0.00  0.00     0.015 A 
HETATM   12  C   UNK N   1      26.161  23.963  -4.752  0.00  0.00     0.037 A 
HETATM   13  C   UNK N   1      26.077  23.809  -6.143  0.00  0.00     0.068 A 
HETATM   14  C   UNK N   1      26.824  24.653  -6.966  0.00  0.00     0.037 A 
HETATM   15  C   UNK N   1      27.673  25.613  -6.402  0.00  0.00     0.015 A 
BRANCH  13  16
HETATM   16  O   UNK N   1      25.297  22.851  -6.700  0.00  0.00    -0.349 OA
BRANCH  16  17
HETATM   17  C   UNK N   1      25.426  22.454  -8.015  0.00  0.00     0.206 C 
BRANCH  17  18
HETATM   18  C   UNK N   1      26.332  21.218  -8.090  0.00  0.00     0.299 C 
BRANCH  18  19
HETATM   19  N   UNK N   1      27.699  21.510  -8.542  0.00  0.00     0.089 N 
BRANCH  19  20
HETATM   20  C   UNK N   1      28.663  20.870  -7.655  0.00  0.00     0.268 C 
HETATM   21  C   UNK N   1      29.131  21.847  -6.594  0.00  0.00     0.037 C 
ENDBRANCH  19  20
BRANCH  19  22
HETATM   22  C   UNK N   1      27.910  21.030  -9.903  0.00  0.00     0.268 C 
HETATM   23  C   UNK N   1      29.332  20.526 -10.057  0.00  0.00     0.037 C 
ENDBRANCH  19  22
ENDBRANCH  18  19
ENDBRANCH  17  18
ENDBRANCH  16  17
ENDBRANCH  13  16
ENDBRANCH   2  10
BRANCH   1  24
HETATM   24  C   UNK N   1      30.655  25.194  -3.909  0.00  0.00    -0.014 A 
HETATM   25  C   UNK N   1      30.414  24.140  -3.010  0.00  0.00     0.013 A 
HETATM   26  C   UNK N   1      31.058  22.906  -3.157  0.00  0.00     0.001 A 
HETATM   27  C   UNK N   1      31.932  22.697  -4.224  0.00  0.00     0.000 A 
HETATM   28  C   UNK N   1      32.154  23.716  -5.150  0.00  0.00     0.001 A 
HETATM   29  C   UNK N   1      31.511  24.947  -4.999  0.00  0.00     0.013 A 
ENDBRANCH   1  24
TORSDOF 9
ENDMDL
MODEL 9
REMARK VINA RESULT:      -5.9     17.199     21.390
REMARK  9 active torsions:
REMARK  status: ('A' for Active; 'I' for Inactive)
REMARK    1  A    between atoms: C_4  and  C_7 
REMARK    2  A    between atoms: C_8  and  C_10 
REMARK    3  A    between atoms: C_8  and  C_11 
REMARK    4  A    between atoms: C_14  and  O_22 
REMARK    5  A    between atoms: O_22  and  C_23 
REMARK    6  A    between atoms: C_23  and  C_24 
REMARK    7  A    between atoms: C_24  and  N_25 
REMARK    8  A    between atoms: N_25  and  C_26 
REMARK    9  A    between atoms: N_25  and  C_27 
ROOT
HETATM    1  C   UNK N   1      37.338  12.215  12.560  0.00  0.00     0.056 C 
HETATM    2  C   UNK N   1      36.429  13.204  12.950  0.00  0.00     0.007 C 
HETATM    3 Cl   UNK N   1      37.981  11.041  13.735  0.00  0.00    -0.082 Cl
ENDROOT
BRANCH   2   4
HETATM    4  C   UNK N   1      36.061  13.409  14.422  0.00  0.00    -0.023 A 
HETATM    5  C   UNK N   1      36.850  14.238  15.245  0.00  0.00     0.012 A 
HETATM    6  C   UNK N   1      36.535  14.442  16.591  0.00  0.00     0.001 A 
HETATM    7  C   UNK N   1      35.422  13.816  17.149  0.00  0.00     0.000 A 
HETATM    8  C   UNK N   1      34.630  12.984  16.361  0.00  0.00     0.001 A 
HETATM    9  C   UNK N   1      34.949  12.784  15.016  0.00  0.00     0.012 A 
ENDBRANCH   2   4
BRANCH   2  10
HETATM   10  C   UNK N   1      35.702  14.079  11.941  0.00  0.00    -0.023 A 
HETATM   11  C   UNK N   1      34.674  13.564  11.136  0.00  0.00     0.015 A 
HETATM   12  C   UNK N   1      33.995  14.371  10.226  0.00  0.00     0.037 A 
HETATM   13  C   UNK N   1      34.303  15.734  10.114  0.00  0.00     0.068 A 
HETATM   14  C   UNK N   1      35.284  16.278  10.945  0.00  0.00     0.037 A 
HETATM   15  C   UNK N   1      35.973  15.460  11.848  0.00  0.00     0.015 A 
BRANCH  13  16
HETATM   16  O   UNK N   1      33.678  16.526   9.210  0.00  0.00    -0.349 OA
BRANCH  16  17
HETATM   17  C   UNK N   1      32.463  16.199   8.643  0.00  0.00     0.206 C 
BRANCH  17  18
HETATM   18  C   UNK N   1      32.655  15.925   7.145  0.00  0.00     0.299 C 
BRANCH  18  19
HETATM   19  N   UNK N   1      33.915  16.447   6.602  0.00  0.00     0.089 N 
BRANCH  19  20
HETATM   20  C   UNK N   1      34.634  15.387   5.906  0.00  0.00     0.268 C 
HETATM   21  C   UNK N   1      35.666  14.761   6.824  0.00  0.00     0.037 C 
ENDBRANCH  19  20
BRANCH  19  22
HETATM   22  C   UNK N   1      33.666  17.544   5.674  0.00  0.00     0.268 C 
HETATM   23  C   UNK N   1      32.436  17.244   4.839  0.00  0.00     0.037 C 
ENDBRANCH  19  22
ENDBRANCH  18  19
ENDBRANCH  17  18
ENDBRANCH  16  17
ENDBRANCH  13  16
ENDBRANCH   2  10
BRANCH   1  24
HETATM   24  C   UNK N   1      37.886  12.003  11.170  0.00  0.00    -0.014 A 
HETATM   25  C   UNK N   1      37.615  10.852  10.409  0.00  0.00     0.013 A 
HETATM   26  C   UNK N   1      38.092  10.726   9.100  0.00  0.00     0.001 A 
HETATM   27  C   UNK N   1      38.824  11.762   8.520  0.00  0.00     0.000 A 
HETATM   28  C   UNK N   1      39.069  12.929   9.243  0.00  0.00     0.001 A 
HETATM   29  C   UNK N   1      38.593  13.051  10.550  0.00  0.00     0.013 A 
ENDBRANCH   1  24
TORSDOF 9
ENDMDL
