MODEL 1
REMARK VINA RESULT:      -6.2      0.000      0.000
REMARK  9 active torsions:
REMARK  status: ('A' for Active; 'I' for Inactive)
REMARK    1  A    between atoms: C_16  and  C_10 
REMARK    2  A    between atoms: C_21  and  C_11 
REMARK    3  A    between atoms: C_13  and  C_12 
REMARK    4  A    between atoms: C_18  and  C_12 
REMARK    5  A    between atoms: N_22  and  C_13 
REMARK    6  A    between atoms: C_17  and  C_14 
REMARK    7  A    between atoms: N_22  and  C_14 
REMARK    8  A    between atoms: O_26  and  C_21 
REMARK    9  A    between atoms: N_24  and  O_27 
ROOT
HETATM    1  C   UNK N   1      32.998  14.534   3.189  0.00  0.00     0.152 C 
ENDROOT
BRANCH   1   2
HETATM    2  C   UNK N   1      32.068  15.361   4.012  0.00  0.00    -0.041 A 
HETATM    3  C   UNK N   1      31.087  14.757   4.804  0.00  0.00     0.009 A 
HETATM    4  C   UNK N   1      30.181  15.552   5.520  0.00  0.00     0.012 A 
HETATM    5  C   UNK N   1      30.258  16.951   5.440  0.00  0.00    -0.036 A 
HETATM    6  C   UNK N   1      31.273  17.540   4.676  0.00  0.00     0.012 A 
HETATM    7  C   UNK N   1      32.174  16.752   3.978  0.00  0.00     0.009 A 
BRANCH   5   8
HETATM    8  C   UNK N   1      29.222  17.786   6.083  0.00  0.00     0.015 C 
HETATM    9  C   UNK N   1      28.888  17.616   7.376  0.00  0.00     0.058 C 
BRANCH   9  10
HETATM   10  C   UNK N   1      27.931  18.496   8.066  0.00  0.00     0.159 C 
HETATM   11  N   UNK N   1      27.476  19.529   7.450  0.00  0.00    -0.248 N 
ATOM     12  HN  UNK N   1      27.802  19.736   6.506  1.00  0.00     0.196 HD
BRANCH  11  13
HETATM   13  O   UNK N   1      26.595  20.324   8.018  0.00  0.00    -0.288 OA
HETATM   14  H   UNK N   1      25.828  20.594   7.553  0.00  0.00     0.244 HD
ENDBRANCH  11  13
BRANCH  10  15
HETATM   15  O   UNK N   1      27.508  18.210   9.317  0.00  0.00    -0.345 OA
HETATM   16  H   UNK N   1      28.120  17.963   9.982  0.00  0.00     0.219 HD
ENDBRANCH  10  15
ENDBRANCH   9  10
ENDBRANCH   5   8
ENDBRANCH   1   2
BRANCH   1  17
HETATM   17  N   UNK N   1      33.875  13.685   4.010  0.00  0.00    -0.417 N 
HETATM   18  H   UNK N   1      33.677  12.704   4.207  0.00  0.00     0.153 HD
BRANCH  17  19
HETATM   19  C   UNK N   1      35.062  14.383   4.519  0.00  0.00     0.118 C 
BRANCH  19  20
HETATM   20  C   UNK N   1      35.365  14.083   5.988  0.00  0.00     0.060 C 
BRANCH  20  21
HETATM   21  C   UNK N   1      34.209  14.396   6.878  0.00  0.00    -0.022 A 
HETATM   22  C   UNK N   1      33.362  13.479   7.482  0.00  0.00     0.013 A 
HETATM   23  C   UNK N   1      33.445  11.998   7.351  0.00  0.00     0.068 C 
HETATM   24  N   UNK N   1      32.424  14.112   8.227  0.00  0.00    -0.359 N 
HETATM   25  C   UNK N   1      32.688  15.427   8.091  0.00  0.00     0.043 A 
HETATM   26  H   UNK N   1      31.702  13.699   8.754  0.00  0.00     0.166 HD
HETATM   27  C   UNK N   1      31.995  16.484   8.675  0.00  0.00     0.030 A 
HETATM   28  C   UNK N   1      33.771  15.634   7.281  0.00  0.00    -0.001 A 
HETATM   29  C   UNK N   1      32.445  17.790   8.407  0.00  0.00     0.002 A 
HETATM   30  C   UNK N   1      33.567  18.004   7.576  0.00  0.00     0.001 A 
HETATM   31  C   UNK N   1      34.244  16.914   7.003  0.00  0.00     0.014 A 
ENDBRANCH  20  21
ENDBRANCH  19  20
ENDBRANCH  17  19
ENDBRANCH   1  17
TORSDOF 9
ENDMDL
MODEL 2
REMARK VINA RESULT:      -6.1      4.470      6.727
REMARK  9 active torsions:
REMARK  status: ('A' for Active; 'I' for Inactive)
REMARK    1  A    between atoms: C_16  and  C_10 
REMARK    2  A    between atoms: C_21  and  C_11 
REMARK    3  A    between atoms: C_13  and  C_12 
REMARK    4  A    between atoms: C_18  and  C_12 
REMARK    5  A    between atoms: N_22  and  C_13 
REMARK    6  A    between atoms: C_17  and  C_14 
REMARK    7  A    between atoms: N_22  and  C_14 
REMARK    8  A    between atoms: O_26  and  C_21 
REMARK    9  A    between atoms: N_24  and  O_27 
ROOT
HETATM    1  C   UNK N   1      27.770  14.944   4.996  0.00  0.00     0.152 C 
ENDROOT
BRANCH   1   2
HETATM    2  C   UNK N   1      26.703  15.934   4.668  0.00  0.00    -0.041 A 
HETATM    3  C   UNK N   1      26.585  16.454   3.375  0.00  0.00     0.009 A 
HETATM    4  C   UNK N   1      25.618  17.431   3.102  0.00  0.00     0.012 A 
HETATM    5  C   UNK N   1      24.771  17.887   4.123  0.00  0.00    -0.036 A 
HETATM    6  C   UNK N   1      24.875  17.326   5.402  0.00  0.00     0.012 A 
HETATM    7  C   UNK N   1      25.824  16.352   5.668  0.00  0.00     0.009 A 
BRANCH   5   8
HETATM    8  C   UNK N   1      23.846  19.011   3.870  0.00  0.00     0.015 C 
HETATM    9  C   UNK N   1      22.586  18.800   3.444  0.00  0.00     0.058 C 
BRANCH   9  10
HETATM   10  C   UNK N   1      21.616  19.894   3.278  0.00  0.00     0.159 C 
HETATM   11  N   UNK N   1      21.701  20.653   2.244  0.00  0.00    -0.248 N 
ATOM     12  HN  UNK N   1      22.452  20.503   1.571  1.00  0.00     0.196 HD
BRANCH  11  13
HETATM   13  O   UNK N   1      20.835  21.622   2.042  0.00  0.00    -0.288 OA
HETATM   14  H   UNK N   1      20.194  21.831   2.693  0.00  0.00     0.244 HD
ENDBRANCH  11  13
BRANCH  10  15
HETATM   15  O   UNK N   1      20.627  20.081   4.180  0.00  0.00    -0.345 OA
HETATM   16  H   UNK N   1      19.809  19.634   4.090  0.00  0.00     0.219 HD
ENDBRANCH  10  15
ENDBRANCH   9  10
ENDBRANCH   5   8
ENDBRANCH   1   2
BRANCH   1  17
HETATM   17  N   UNK N   1      29.108  15.553   5.049  0.00  0.00    -0.417 N 
HETATM   18  H   UNK N   1      29.629  15.829   4.217  0.00  0.00     0.153 HD
BRANCH  17  19
HETATM   19  C   UNK N   1      29.623  15.725   6.413  0.00  0.00     0.118 C 
BRANCH  19  20
HETATM   20  C   UNK N   1      30.139  17.136   6.699  0.00  0.00     0.060 C 
BRANCH  20  21
HETATM   21  C   UNK N   1      29.039  18.077   7.060  0.00  0.00    -0.022 A 
HETATM   22  C   UNK N   1      28.489  18.258   8.320  0.00  0.00     0.013 A 
HETATM   23  C   UNK N   1      28.893  17.537   9.559  0.00  0.00     0.068 C 
HETATM   24  N   UNK N   1      27.512  19.195   8.287  0.00  0.00    -0.359 N 
HETATM   25  C   UNK N   1      27.454  19.605   7.004  0.00  0.00     0.043 A 
HETATM   26  H   UNK N   1      26.960  19.511   9.039  0.00  0.00     0.166 HD
HETATM   27  C   UNK N   1      26.602  20.568   6.470  0.00  0.00     0.030 A 
HETATM   28  C   UNK N   1      28.374  18.948   6.232  0.00  0.00    -0.001 A 
HETATM   29  C   UNK N   1      26.713  20.852   5.097  0.00  0.00     0.002 A 
HETATM   30  C   UNK N   1      27.666  20.179   4.300  0.00  0.00     0.001 A 
HETATM   31  C   UNK N   1      28.512  19.213   4.871  0.00  0.00     0.014 A 
ENDBRANCH  20  21
ENDBRANCH  19  20
ENDBRANCH  17  19
ENDBRANCH   1  17
TORSDOF 9
ENDMDL
MODEL 3
REMARK VINA RESULT:      -6.1     15.002     17.249
REMARK  9 active torsions:
REMARK  status: ('A' for Active; 'I' for Inactive)
REMARK    1  A    between atoms: C_16  and  C_10 
REMARK    2  A    between atoms: C_21  and  C_11 
REMARK    3  A    between atoms: C_13  and  C_12 
REMARK    4  A    between atoms: C_18  and  C_12 
REMARK    5  A    between atoms: N_22  and  C_13 
REMARK    6  A    between atoms: C_17  and  C_14 
REMARK    7  A    between atoms: N_22  and  C_14 
REMARK    8  A    between atoms: O_26  and  C_21 
REMARK    9  A    between atoms: N_24  and  O_27 
ROOT
HETATM    1  C   UNK N   1      30.479  26.249  -3.665  0.00  0.00     0.152 C 
ENDROOT
BRANCH   1   2
HETATM    2  C   UNK N   1      29.443  25.482  -4.418  0.00  0.00    -0.041 A 
HETATM    3  C   UNK N   1      28.210  25.183  -3.830  0.00  0.00     0.009 A 
HETATM    4  C   UNK N   1      27.275  24.406  -4.529  0.00  0.00     0.012 A 
HETATM    5  C   UNK N   1      27.577  23.929  -5.813  0.00  0.00    -0.036 A 
HETATM    6  C   UNK N   1      28.800  24.273  -6.403  0.00  0.00     0.012 A 
HETATM    7  C   UNK N   1      29.718  25.050  -5.716  0.00  0.00     0.009 A 
BRANCH   5   8
HETATM    8  C   UNK N   1      26.651  22.999  -6.493  0.00  0.00     0.015 C 
HETATM    9  C   UNK N   1      26.142  23.281  -7.708  0.00  0.00     0.058 C 
BRANCH   9  10
HETATM   10  C   UNK N   1      25.297  22.330  -8.448  0.00  0.00     0.159 C 
HETATM   11  N   UNK N   1      25.818  21.637  -9.397  0.00  0.00    -0.248 N 
ATOM     12  HN  UNK N   1      26.800  21.774  -9.639  1.00  0.00     0.196 HD
BRANCH  11  13
HETATM   13  O   UNK N   1      25.106  20.754 -10.062  0.00  0.00    -0.288 OA
HETATM   14  H   UNK N   1      24.974  19.893  -9.718  0.00  0.00     0.244 HD
ENDBRANCH  11  13
BRANCH  10  15
HETATM   15  O   UNK N   1      23.998  22.160  -8.117  0.00  0.00    -0.345 OA
HETATM   16  H   UNK N   1      23.736  21.454  -7.560  0.00  0.00     0.219 HD
ENDBRANCH  10  15
ENDBRANCH   9  10
ENDBRANCH   5   8
ENDBRANCH   1   2
BRANCH   1  17
HETATM   17  N   UNK N   1      30.093  27.651  -3.444  0.00  0.00    -0.417 N 
HETATM   18  H   UNK N   1      29.693  27.988  -2.568  0.00  0.00     0.153 HD
BRANCH  17  19
HETATM   19  C   UNK N   1      30.337  28.519  -4.602  0.00  0.00     0.118 C 
BRANCH  19  20
HETATM   20  C   UNK N   1      29.272  29.600  -4.792  0.00  0.00     0.060 C 
BRANCH  20  21
HETATM   21  C   UNK N   1      27.897  29.091  -4.517  0.00  0.00    -0.022 A 
HETATM   22  C   UNK N   1      27.136  29.340  -3.383  0.00  0.00     0.013 A 
HETATM   23  C   UNK N   1      27.557  30.165  -2.217  0.00  0.00     0.068 C 
HETATM   24  N   UNK N   1      25.933  28.724  -3.468  0.00  0.00    -0.359 N 
HETATM   25  C   UNK N   1      25.939  28.092  -4.659  0.00  0.00     0.043 A 
HETATM   26  H   UNK N   1      25.208  28.735  -2.802  0.00  0.00     0.166 HD
HETATM   27  C   UNK N   1      24.914  27.322  -5.202  0.00  0.00     0.030 A 
HETATM   28  C   UNK N   1      27.117  28.299  -5.325  0.00  0.00    -0.001 A 
HETATM   29  C   UNK N   1      25.125  26.754  -6.473  0.00  0.00     0.002 A 
HETATM   30  C   UNK N   1      26.338  26.972  -7.163  0.00  0.00     0.001 A 
HETATM   31  C   UNK N   1      27.351  27.756  -6.586  0.00  0.00     0.014 A 
ENDBRANCH  20  21
ENDBRANCH  19  20
ENDBRANCH  17  19
ENDBRANCH   1  17
TORSDOF 9
ENDMDL
MODEL 4
REMARK VINA RESULT:      -6.1      9.193     11.352
REMARK  9 active torsions:
REMARK  status: ('A' for Active; 'I' for Inactive)
REMARK    1  A    between atoms: C_16  and  C_10 
REMARK    2  A    between atoms: C_21  and  C_11 
REMARK    3  A    between atoms: C_13  and  C_12 
REMARK    4  A    between atoms: C_18  and  C_12 
REMARK    5  A    between atoms: N_22  and  C_13 
REMARK    6  A    between atoms: C_17  and  C_14 
REMARK    7  A    between atoms: N_22  and  C_14 
REMARK    8  A    between atoms: O_26  and  C_21 
REMARK    9  A    between atoms: N_24  and  O_27 
ROOT
HETATM    1  C   UNK N   1      19.746  12.805   4.725  0.00  0.00     0.152 C 
ENDROOT
BRANCH   1   2
HETATM    2  C   UNK N   1      19.874  14.196   4.197  0.00  0.00    -0.041 A 
HETATM    3  C   UNK N   1      19.156  15.247   4.776  0.00  0.00     0.009 A 
HETATM    4  C   UNK N   1      19.239  16.533   4.226  0.00  0.00     0.012 A 
HETATM    5  C   UNK N   1      20.038  16.765   3.097  0.00  0.00    -0.036 A 
HETATM    6  C   UNK N   1      20.782  15.710   2.554  0.00  0.00     0.012 A 
HETATM    7  C   UNK N   1      20.708  14.441   3.106  0.00  0.00     0.009 A 
BRANCH   5   8
HETATM    8  C   UNK N   1      20.019  18.087   2.436  0.00  0.00     0.015 C 
HETATM    9  C   UNK N   1      20.918  19.040   2.749  0.00  0.00     0.058 C 
BRANCH   9  10
HETATM   10  C   UNK N   1      20.982  20.327   2.038  0.00  0.00     0.159 C 
HETATM   11  N   UNK N   1      20.547  20.397   0.830  0.00  0.00    -0.248 N 
ATOM     12  HN  UNK N   1      20.189  19.557   0.376  1.00  0.00     0.196 HD
BRANCH  11  13
HETATM   13  O   UNK N   1      20.557  21.535   0.171  0.00  0.00    -0.288 OA
HETATM   14  H   UNK N   1      19.760  22.003   0.019  0.00  0.00     0.244 HD
ENDBRANCH  11  13
BRANCH  10  15
HETATM   15  O   UNK N   1      21.460  21.431   2.654  0.00  0.00    -0.345 OA
HETATM   16  H   UNK N   1      22.348  21.466   2.949  0.00  0.00     0.219 HD
ENDBRANCH  10  15
ENDBRANCH   9  10
ENDBRANCH   5   8
ENDBRANCH   1   2
BRANCH   1  17
HETATM   17  N   UNK N   1      21.024  12.270   5.220  0.00  0.00    -0.417 N 
HETATM   18  H   UNK N   1      21.802  12.027   4.606  0.00  0.00     0.153 HD
BRANCH  17  19
HETATM   19  C   UNK N   1      21.073  12.117   6.679  0.00  0.00     0.118 C 
BRANCH  19  20
HETATM   20  C   UNK N   1      22.192  12.922   7.341  0.00  0.00     0.060 C 
BRANCH  20  21
HETATM   21  C   UNK N   1      21.985  14.394   7.204  0.00  0.00    -0.022 A 
HETATM   22  C   UNK N   1      21.160  15.187   7.988  0.00  0.00     0.013 A 
HETATM   23  C   UNK N   1      20.315  14.714   9.120  0.00  0.00     0.068 C 
HETATM   24  N   UNK N   1      21.217  16.480   7.588  0.00  0.00    -0.359 N 
HETATM   25  C   UNK N   1      22.083  16.496   6.555  0.00  0.00     0.043 A 
HETATM   26  H   UNK N   1      20.730  17.245   7.970  0.00  0.00     0.166 HD
HETATM   27  C   UNK N   1      22.476  17.605   5.810  0.00  0.00     0.030 A 
HETATM   28  C   UNK N   1      22.572  15.244   6.299  0.00  0.00    -0.001 A 
HETATM   29  C   UNK N   1      23.403  17.400   4.772  0.00  0.00     0.002 A 
HETATM   30  C   UNK N   1      23.914  16.110   4.510  0.00  0.00     0.001 A 
HETATM   31  C   UNK N   1      23.497  15.012   5.283  0.00  0.00     0.014 A 
ENDBRANCH  20  21
ENDBRANCH  19  20
ENDBRANCH  17  19
ENDBRANCH   1  17
TORSDOF 9
ENDMDL
MODEL 5
REMARK VINA RESULT:      -6.1      3.356      5.605
REMARK  9 active torsions:
REMARK  status: ('A' for Active; 'I' for Inactive)
REMARK    1  A    between atoms: C_16  and  C_10 
REMARK    2  A    between atoms: C_21  and  C_11 
REMARK    3  A    between atoms: C_13  and  C_12 
REMARK    4  A    between atoms: C_18  and  C_12 
REMARK    5  A    between atoms: N_22  and  C_13 
REMARK    6  A    between atoms: C_17  and  C_14 
REMARK    7  A    between atoms: N_22  and  C_14 
REMARK    8  A    between atoms: O_26  and  C_21 
REMARK    9  A    between atoms: N_24  and  O_27 
ROOT
HETATM    1  C   UNK N   1      33.397  13.667   3.785  0.00  0.00     0.152 C 
ENDROOT
BRANCH   1   2
HETATM    2  C   UNK N   1      33.560  13.837   5.259  0.00  0.00    -0.041 A 
HETATM    3  C   UNK N   1      34.823  14.059   5.815  0.00  0.00     0.009 A 
HETATM    4  C   UNK N   1      34.965  14.152   7.207  0.00  0.00     0.012 A 
HETATM    5  C   UNK N   1      33.843  14.021   8.038  0.00  0.00    -0.036 A 
HETATM    6  C   UNK N   1      32.579  13.840   7.462  0.00  0.00     0.012 A 
HETATM    7  C   UNK N   1      32.439  13.759   6.086  0.00  0.00     0.009 A 
BRANCH   5   8
HETATM    8  C   UNK N   1      34.011  13.981   9.506  0.00  0.00     0.015 C 
HETATM    9  C   UNK N   1      35.164  14.363  10.090  0.00  0.00     0.058 C 
BRANCH   9  10
HETATM   10  C   UNK N   1      35.324  14.425  11.551  0.00  0.00     0.159 C 
HETATM   11  N   UNK N   1      36.314  15.082  12.044  0.00  0.00    -0.248 N 
ATOM     12  HN  UNK N   1      36.984  15.526  11.417  1.00  0.00     0.196 HD
BRANCH  11  13
HETATM   13  O   UNK N   1      36.476  15.189  13.345  0.00  0.00    -0.288 OA
HETATM   14  H   UNK N   1      36.607  14.425  13.872  0.00  0.00     0.244 HD
ENDBRANCH  11  13
BRANCH  10  15
HETATM   15  O   UNK N   1      34.428  13.831  12.369  0.00  0.00    -0.345 OA
HETATM   16  H   UNK N   1      33.650  14.281  12.632  0.00  0.00     0.219 HD
ENDBRANCH  10  15
ENDBRANCH   9  10
ENDBRANCH   5   8
ENDBRANCH   1   2
BRANCH   1  17
HETATM   17  N   UNK N   1      32.585  14.734   3.180  0.00  0.00    -0.417 N 
HETATM   18  H   UNK N   1      31.624  14.595   2.867  0.00  0.00     0.153 HD
BRANCH  17  19
HETATM   19  C   UNK N   1      33.289  16.017   3.067  0.00  0.00     0.118 C 
BRANCH  19  20
HETATM   20  C   UNK N   1      32.400  17.230   3.342  0.00  0.00     0.060 C 
BRANCH  20  21
HETATM   21  C   UNK N   1      31.812  17.199   4.714  0.00  0.00    -0.022 A 
HETATM   22  C   UNK N   1      30.482  16.974   5.037  0.00  0.00     0.013 A 
HETATM   23  C   UNK N   1      29.380  16.724   4.066  0.00  0.00     0.068 C 
HETATM   24  N   UNK N   1      30.302  17.010   6.378  0.00  0.00    -0.359 N 
HETATM   25  C   UNK N   1      31.523  17.254   6.896  0.00  0.00     0.043 A 
HETATM   26  H   UNK N   1      29.459  16.886   6.871  0.00  0.00     0.166 HD
HETATM   27  C   UNK N   1      31.851  17.377   8.243  0.00  0.00     0.030 A 
HETATM   28  C   UNK N   1      32.465  17.369   5.910  0.00  0.00    -0.001 A 
HETATM   29  C   UNK N   1      33.197  17.626   8.569  0.00  0.00     0.002 A 
HETATM   30  C   UNK N   1      34.172  17.738   7.553  0.00  0.00     0.001 A 
HETATM   31  C   UNK N   1      33.806  17.607   6.203  0.00  0.00     0.014 A 
ENDBRANCH  20  21
ENDBRANCH  19  20
ENDBRANCH  17  19
ENDBRANCH   1  17
TORSDOF 9
ENDMDL
MODEL 6
REMARK VINA RESULT:      -6.0      8.309     11.113
REMARK  9 active torsions:
REMARK  status: ('A' for Active; 'I' for Inactive)
REMARK    1  A    between atoms: C_16  and  C_10 
REMARK    2  A    between atoms: C_21  and  C_11 
REMARK    3  A    between atoms: C_13  and  C_12 
REMARK    4  A    between atoms: C_18  and  C_12 
REMARK    5  A    between atoms: N_22  and  C_13 
REMARK    6  A    between atoms: C_17  and  C_14 
REMARK    7  A    between atoms: N_22  and  C_14 
REMARK    8  A    between atoms: O_26  and  C_21 
REMARK    9  A    between atoms: N_24  and  O_27 
ROOT
HETATM    1  C   UNK N   1      18.987  16.012   4.812  0.00  0.00     0.152 C 
ENDROOT
BRANCH   1   2
HETATM    2  C   UNK N   1      19.695  15.509   6.026  0.00  0.00    -0.041 A 
HETATM    3  C   UNK N   1      20.024  16.379   7.070  0.00  0.00     0.009 A 
HETATM    4  C   UNK N   1      20.747  15.902   8.173  0.00  0.00     0.012 A 
HETATM    5  C   UNK N   1      21.140  14.556   8.227  0.00  0.00    -0.036 A 
HETATM    6  C   UNK N   1      20.766  13.690   7.192  0.00  0.00     0.012 A 
HETATM    7  C   UNK N   1      20.043  14.161   6.108  0.00  0.00     0.009 A 
BRANCH   5   8
HETATM    8  C   UNK N   1      22.017  14.086   9.320  0.00  0.00     0.015 C 
HETATM    9  C   UNK N   1      22.163  12.773   9.584  0.00  0.00     0.058 C 
BRANCH   9  10
HETATM   10  C   UNK N   1      23.102  12.274  10.601  0.00  0.00     0.159 C 
HETATM   11  N   UNK N   1      24.268  12.809  10.691  0.00  0.00    -0.248 N 
ATOM     12  HN  UNK N   1      24.532  13.551  10.043  1.00  0.00     0.196 HD
BRANCH  11  13
HETATM   13  O   UNK N   1      25.126  12.414  11.606  0.00  0.00    -0.288 OA
HETATM   14  H   UNK N   1      24.866  11.808  12.272  0.00  0.00     0.244 HD
ENDBRANCH  11  13
BRANCH  10  15
HETATM   15  O   UNK N   1      22.739  11.289  11.451  0.00  0.00    -0.345 OA
HETATM   16  H   UNK N   1      23.029  11.296  12.342  0.00  0.00     0.219 HD
ENDBRANCH  10  15
ENDBRANCH   9  10
ENDBRANCH   5   8
ENDBRANCH   1   2
BRANCH   1  17
HETATM   17  N   UNK N   1      19.507  15.421   3.569  0.00  0.00    -0.417 N 
HETATM   18  H   UNK N   1      19.331  14.455   3.294  0.00  0.00     0.153 HD
BRANCH  17  19
HETATM   19  C   UNK N   1      20.305  16.353   2.763  0.00  0.00     0.118 C 
BRANCH  19  20
HETATM   20  C   UNK N   1      21.776  15.953   2.643  0.00  0.00     0.060 C 
BRANCH  20  21
HETATM   21  C   UNK N   1      22.523  16.158   3.918  0.00  0.00    -0.022 A 
HETATM   22  C   UNK N   1      22.704  17.361   4.584  0.00  0.00     0.013 A 
HETATM   23  C   UNK N   1      22.186  18.687   4.144  0.00  0.00     0.068 C 
HETATM   24  N   UNK N   1      23.429  17.179   5.714  0.00  0.00    -0.359 N 
HETATM   25  C   UNK N   1      23.698  15.859   5.757  0.00  0.00     0.043 A 
HETATM   26  H   UNK N   1      23.702  17.866   6.365  0.00  0.00     0.166 HD
HETATM   27  C   UNK N   1      24.418  15.184   6.739  0.00  0.00     0.030 A 
HETATM   28  C   UNK N   1      23.157  15.207   4.682  0.00  0.00    -0.001 A 
HETATM   29  C   UNK N   1      24.576  13.793   6.594  0.00  0.00     0.002 A 
HETATM   30  C   UNK N   1      24.013  13.118   5.488  0.00  0.00     0.001 A 
HETATM   31  C   UNK N   1      23.291  13.831   4.516  0.00  0.00     0.014 A 
ENDBRANCH  20  21
ENDBRANCH  19  20
ENDBRANCH  17  19
ENDBRANCH   1  17
TORSDOF 9
ENDMDL
MODEL 7
REMARK VINA RESULT:      -6.0     15.232     17.691
REMARK  9 active torsions:
REMARK  status: ('A' for Active; 'I' for Inactive)
REMARK    1  A    between atoms: C_16  and  C_10 
REMARK    2  A    between atoms: C_21  and  C_11 
REMARK    3  A    between atoms: C_13  and  C_12 
REMARK    4  A    between atoms: C_18  and  C_12 
REMARK    5  A    between atoms: N_22  and  C_13 
REMARK    6  A    between atoms: C_17  and  C_14 
REMARK    7  A    between atoms: N_22  and  C_14 
REMARK    8  A    between atoms: O_26  and  C_21 
REMARK    9  A    between atoms: N_24  and  O_27 
ROOT
HETATM    1  C   UNK N   1      29.954  26.681  -3.717  0.00  0.00     0.152 C 
ENDROOT
BRANCH   1   2
HETATM    2  C   UNK N   1      29.303  25.634  -4.558  0.00  0.00    -0.041 A 
HETATM    3  C   UNK N   1      29.858  25.258  -5.786  0.00  0.00     0.009 A 
HETATM    4  C   UNK N   1      29.198  24.321  -6.591  0.00  0.00     0.012 A 
HETATM    5  C   UNK N   1      27.983  23.761  -6.168  0.00  0.00    -0.036 A 
HETATM    6  C   UNK N   1      27.463  24.117  -4.918  0.00  0.00     0.012 A 
HETATM    7  C   UNK N   1      28.122  25.036  -4.118  0.00  0.00     0.009 A 
BRANCH   5   8
HETATM    8  C   UNK N   1      27.220  22.879  -7.075  0.00  0.00     0.015 C 
HETATM    9  C   UNK N   1      25.877  22.950  -7.155  0.00  0.00     0.058 C 
BRANCH   9  10
HETATM   10  C   UNK N   1      25.101  22.153  -8.119  0.00  0.00     0.159 C 
HETATM   11  N   UNK N   1      25.696  21.668  -9.151  0.00  0.00    -0.248 N 
ATOM     12  HN  UNK N   1      26.686  21.863  -9.299  1.00  0.00     0.196 HD
BRANCH  11  13
HETATM   13  O   UNK N   1      25.046  20.924 -10.019  0.00  0.00    -0.288 OA
HETATM   14  H   UNK N   1      24.779  20.054  -9.794  0.00  0.00     0.244 HD
ENDBRANCH  11  13
BRANCH  10  15
HETATM   15  O   UNK N   1      23.790  21.903  -7.910  0.00  0.00    -0.345 OA
HETATM   16  H   UNK N   1      23.491  21.031  -7.745  0.00  0.00     0.219 HD
ENDBRANCH  10  15
ENDBRANCH   9  10
ENDBRANCH   5   8
ENDBRANCH   1   2
BRANCH   1  17
HETATM   17  N   UNK N   1      30.023  27.986  -4.392  0.00  0.00    -0.417 N 
HETATM   18  H   UNK N   1      30.733  28.218  -5.086  0.00  0.00     0.153 HD
BRANCH  17  19
HETATM   19  C   UNK N   1      28.974  28.922  -3.971  0.00  0.00     0.118 C 
BRANCH  19  20
HETATM   20  C   UNK N   1      28.166  29.499  -5.135  0.00  0.00     0.060 C 
BRANCH  20  21
HETATM   21  C   UNK N   1      27.337  28.461  -5.815  0.00  0.00    -0.022 A 
HETATM   22  C   UNK N   1      26.178  27.879  -5.323  0.00  0.00     0.013 A 
HETATM   23  C   UNK N   1      25.542  28.178  -4.009  0.00  0.00     0.068 C 
HETATM   24  N   UNK N   1      25.682  26.979  -6.205  0.00  0.00    -0.359 N 
HETATM   25  C   UNK N   1      26.529  27.002  -7.253  0.00  0.00     0.043 A 
HETATM   26  H   UNK N   1      24.874  26.425  -6.102  0.00  0.00     0.166 HD
HETATM   27  C   UNK N   1      26.437  26.247  -8.419  0.00  0.00     0.030 A 
HETATM   28  C   UNK N   1      27.544  27.897  -7.050  0.00  0.00    -0.001 A 
HETATM   29  C   UNK N   1      27.431  26.433  -9.399  0.00  0.00     0.002 A 
HETATM   30  C   UNK N   1      28.476  27.361  -9.193  0.00  0.00     0.001 A 
HETATM   31  C   UNK N   1      28.537  28.107  -8.004  0.00  0.00     0.014 A 
ENDBRANCH  20  21
ENDBRANCH  19  20
ENDBRANCH  17  19
ENDBRANCH   1  17
TORSDOF 9
ENDMDL
MODEL 8
REMARK VINA RESULT:      -5.9      3.123      5.841
REMARK  9 active torsions:
REMARK  status: ('A' for Active; 'I' for Inactive)
REMARK    1  A    between atoms: C_16  and  C_10 
REMARK    2  A    between atoms: C_21  and  C_11 
REMARK    3  A    between atoms: C_13  and  C_12 
REMARK    4  A    between atoms: C_18  and  C_12 
REMARK    5  A    between atoms: N_22  and  C_13 
REMARK    6  A    between atoms: C_17  and  C_14 
REMARK    7  A    between atoms: N_22  and  C_14 
REMARK    8  A    between atoms: O_26  and  C_21 
REMARK    9  A    between atoms: N_24  and  O_27 
ROOT
HETATM    1  C   UNK N   1      31.839  16.778   3.131  0.00  0.00     0.152 C 
ENDROOT
BRANCH   1   2
HETATM    2  C   UNK N   1      32.649  16.520   4.358  0.00  0.00    -0.041 A 
HETATM    3  C   UNK N   1      32.852  15.215   4.818  0.00  0.00     0.009 A 
HETATM    4  C   UNK N   1      33.561  14.998   6.007  0.00  0.00     0.012 A 
HETATM    5  C   UNK N   1      34.063  16.086   6.735  0.00  0.00    -0.036 A 
HETATM    6  C   UNK N   1      33.886  17.384   6.239  0.00  0.00     0.012 A 
HETATM    7  C   UNK N   1      33.195  17.596   5.058  0.00  0.00     0.009 A 
BRANCH   5   8
HETATM    8  C   UNK N   1      34.689  15.867   8.056  0.00  0.00     0.015 C 
HETATM    9  C   UNK N   1      33.948  15.790   9.178  0.00  0.00     0.058 C 
BRANCH   9  10
HETATM   10  C   UNK N   1      34.536  15.475  10.490  0.00  0.00     0.159 C 
HETATM   11  N   UNK N   1      35.754  15.812  10.727  0.00  0.00    -0.248 N 
ATOM     12  HN  UNK N   1      36.301  16.267   9.996  1.00  0.00     0.196 HD
BRANCH  11  13
HETATM   13  O   UNK N   1      36.307  15.578  11.897  0.00  0.00    -0.288 OA
HETATM   14  H   UNK N   1      37.234  15.466  11.971  0.00  0.00     0.244 HD
ENDBRANCH  11  13
BRANCH  10  15
HETATM   15  O   UNK N   1      33.799  14.871  11.448  0.00  0.00    -0.345 OA
HETATM   16  H   UNK N   1      33.985  13.991  11.709  0.00  0.00     0.219 HD
ENDBRANCH  10  15
ENDBRANCH   9  10
ENDBRANCH   5   8
ENDBRANCH   1   2
BRANCH   1  17
HETATM   17  N   UNK N   1      30.485  17.262   3.440  0.00  0.00    -0.417 N 
HETATM   18  H   UNK N   1      30.284  18.227   3.703  0.00  0.00     0.153 HD
BRANCH  17  19
HETATM   19  C   UNK N   1      29.450  16.226   3.334  0.00  0.00     0.118 C 
BRANCH  19  20
HETATM   20  C   UNK N   1      29.066  15.605   4.678  0.00  0.00     0.060 C 
BRANCH  20  21
HETATM   21  C   UNK N   1      28.545  16.620   5.640  0.00  0.00    -0.022 A 
HETATM   22  C   UNK N   1      27.309  17.249   5.587  0.00  0.00     0.013 A 
HETATM   23  C   UNK N   1      26.264  17.030   4.548  0.00  0.00     0.068 C 
HETATM   24  N   UNK N   1      27.165  18.109   6.622  0.00  0.00    -0.359 N 
HETATM   25  C   UNK N   1      28.310  18.016   7.327  0.00  0.00     0.043 A 
HETATM   26  H   UNK N   1      26.388  18.682   6.819  0.00  0.00     0.166 HD
HETATM   27  C   UNK N   1      28.636  18.709   8.489  0.00  0.00     0.030 A 
HETATM   28  C   UNK N   1      29.169  17.114   6.759  0.00  0.00    -0.001 A 
HETATM   29  C   UNK N   1      29.891  18.454   9.073  0.00  0.00     0.002 A 
HETATM   30  C   UNK N   1      30.776  17.520   8.492  0.00  0.00     0.001 A 
HETATM   31  C   UNK N   1      30.414  16.836   7.318  0.00  0.00     0.014 A 
ENDBRANCH  20  21
ENDBRANCH  19  20
ENDBRANCH  17  19
ENDBRANCH   1  17
TORSDOF 9
ENDMDL
MODEL 9
REMARK VINA RESULT:      -5.9      8.754     11.179
REMARK  9 active torsions:
REMARK  status: ('A' for Active; 'I' for Inactive)
REMARK    1  A    between atoms: C_16  and  C_10 
REMARK    2  A    between atoms: C_21  and  C_11 
REMARK    3  A    between atoms: C_13  and  C_12 
REMARK    4  A    between atoms: C_18  and  C_12 
REMARK    5  A    between atoms: N_22  and  C_13 
REMARK    6  A    between atoms: C_17  and  C_14 
REMARK    7  A    between atoms: N_22  and  C_14 
REMARK    8  A    between atoms: O_26  and  C_21 
REMARK    9  A    between atoms: N_24  and  O_27 
ROOT
HETATM    1  C   UNK N   1      36.451  14.018  12.047  0.00  0.00     0.152 C 
ENDROOT
BRANCH   1   2
HETATM    2  C   UNK N   1      36.044  13.678  13.443  0.00  0.00    -0.041 A 
HETATM    3  C   UNK N   1      36.809  14.105  14.533  0.00  0.00     0.009 A 
HETATM    4  C   UNK N   1      36.446  13.721  15.831  0.00  0.00     0.012 A 
HETATM    5  C   UNK N   1      35.319  12.910  16.036  0.00  0.00    -0.036 A 
HETATM    6  C   UNK N   1      34.541  12.527  14.937  0.00  0.00     0.012 A 
HETATM    7  C   UNK N   1      34.895  12.916  13.655  0.00  0.00     0.009 A 
BRANCH   5   8
HETATM    8  C   UNK N   1      35.016  12.393  17.387  0.00  0.00     0.015 C 
HETATM    9  C   UNK N   1      35.316  13.103  18.492  0.00  0.00     0.058 C 
BRANCH   9  10
HETATM   10  C   UNK N   1      34.938  12.656  19.842  0.00  0.00     0.159 C 
HETATM   11  N   UNK N   1      35.087  11.418  20.156  0.00  0.00    -0.248 N 
ATOM     12  HN  UNK N   1      35.440  10.762  19.459  1.00  0.00     0.196 HD
BRANCH  11  13
HETATM   13  O   UNK N   1      34.790  10.984  21.362  0.00  0.00    -0.288 OA
HETATM   14  H   UNK N   1      34.242  10.233  21.475  0.00  0.00     0.244 HD
ENDBRANCH  11  13
BRANCH  10  15
HETATM   15  O   UNK N   1      34.470  13.537  20.754  0.00  0.00    -0.345 OA
HETATM   16  H   UNK N   1      35.053  13.953  21.358  0.00  0.00     0.219 HD
ENDBRANCH  10  15
ENDBRANCH   9  10
ENDBRANCH   5   8
ENDBRANCH   1   2
BRANCH   1  17
HETATM   17  N   UNK N   1      37.714  13.374  11.655  0.00  0.00    -0.417 N 
HETATM   18  H   UNK N   1      38.607  13.575  12.106  0.00  0.00     0.153 HD
BRANCH  17  19
HETATM   19  C   UNK N   1      37.569  12.416  10.553  0.00  0.00     0.118 C 
BRANCH  19  20
HETATM   20  C   UNK N   1      37.982  10.990  10.923  0.00  0.00     0.060 C 
BRANCH  20  21
HETATM   21  C   UNK N   1      36.948  10.299  11.747  0.00  0.00    -0.022 A 
HETATM   22  C   UNK N   1      35.770   9.731  11.285  0.00  0.00     0.013 A 
HETATM   23  C   UNK N   1      35.310   9.709   9.868  0.00  0.00     0.068 C 
HETATM   24  N   UNK N   1      35.068   9.184  12.306  0.00  0.00    -0.359 N 
HETATM   25  C   UNK N   1      35.811   9.406  13.409  0.00  0.00     0.043 A 
HETATM   26  H   UNK N   1      34.200   8.723  12.255  0.00  0.00     0.166 HD
HETATM   27  C   UNK N   1      35.508   9.024  14.713  0.00  0.00     0.030 A 
HETATM   28  C   UNK N   1      36.964  10.078  13.103  0.00  0.00    -0.001 A 
HETATM   29  C   UNK N   1      36.433   9.352  15.722  0.00  0.00     0.002 A 
HETATM   30  C   UNK N   1      37.625  10.039  15.407  0.00  0.00     0.001 A 
HETATM   31  C   UNK N   1      37.900  10.409  14.079  0.00  0.00     0.014 A 
ENDBRANCH  20  21
ENDBRANCH  19  20
ENDBRANCH  17  19
ENDBRANCH   1  17
TORSDOF 9
ENDMDL
