MODEL 1
REMARK VINA RESULT:      -6.4      0.000      0.000
REMARK  8 active torsions:
REMARK  status: ('A' for Active; 'I' for Inactive)
REMARK    1  A    between atoms: S_1  and  C_18 
REMARK    2  A    between atoms: S_1  and  C_23 
REMARK    3  A    between atoms: O_3  and  C_20 
REMARK    4  A    between atoms: N_6  and  C_14 
REMARK    5  A    between atoms: N_7  and  C_13 
REMARK       I    between atoms: N_7  and  C_16 
REMARK    6  A    between atoms: N_8  and  C_21 
REMARK    7  A    between atoms: C_9  and  C_13 
REMARK    8  A    between atoms: C_16  and  C_17 
ROOT
HETATM    1  C   UNK N   1      35.239  14.947  10.629  0.00  0.00     0.066 A 
HETATM    2  C   UNK N   1      35.553  13.504  12.566  0.00  0.00     0.086 A 
HETATM    3  C   UNK N   1      35.560  14.760  11.976  0.00  0.00     0.045 A 
HETATM    4  C   UNK N   1      34.892  13.824   9.845  0.00  0.00     0.086 A 
HETATM    5  C   UNK N   1      35.240  12.380  11.789  0.00  0.00     0.050 A 
HETATM    6  C   UNK N   1      34.910  12.542  10.436  0.00  0.00     0.068 A 
ENDROOT
BRANCH   1   7
HETATM    7  C   UNK N   1      35.254  16.340  10.121  0.00  0.00     0.254 C 
HETATM    8  O   UNK N   1      35.970  17.193  10.632  0.00  0.00    -0.268 OA
HETATM    9  N   UNK N   1      34.454  16.653   9.073  0.00  0.00    -0.355 N 
HETATM   10  H   UNK N   1      33.876  15.944   8.709  0.00  0.00     0.162 HD
BRANCH   9  11
HETATM   11  C   UNK N   1      34.393  17.950   8.457  0.00  0.00     0.158 C 
BRANCH  11  12
HETATM   12  C   UNK N   1      33.221  17.999   7.477  0.00  0.00     0.240 C 
HETATM   13  N   UNK N   1      32.103  17.153   7.889  0.00  0.00     0.094 N 
HETATM   14  C   UNK N   1      31.437  16.768   6.645  0.00  0.00     0.273 C 
HETATM   15  C   UNK N   1      32.386  17.026   5.491  0.00  0.00     0.032 C 
HETATM   16  C   UNK N   1      33.666  17.495   6.131  0.00  0.00     0.039 C 
BRANCH  13  17
HETATM   17  C   UNK N   1      31.171  17.975   8.654  0.00  0.00     0.268 C 
HETATM   18  C   UNK N   1      29.765  17.872   8.085  0.00  0.00     0.037 C 
ENDBRANCH  13  17
ENDBRANCH  11  12
ENDBRANCH   9  11
ENDBRANCH   1   7
BRANCH   4  19
HETATM   19  O   UNK N   1      34.536  13.984   8.544  0.00  0.00    -0.355 OA
HETATM   20  C   UNK N   1      35.298  13.530   7.491  0.00  0.00     0.210 C 
ENDBRANCH   4  19
BRANCH   2  21
HETATM   21  S   UNK N   1      35.847  13.401  14.336  0.00  0.00     0.177 S 
HETATM   22  O   UNK N   1      36.992  12.387  14.477  0.00  0.00    -0.223 OA
HETATM   23  O   UNK N   1      36.647  14.662  14.699  0.00  0.00    -0.223 OA
BRANCH  21  24
HETATM   24  C   UNK N   1      34.731  13.045  15.725  0.00  0.00     0.141 C 
HETATM   25  C   UNK N   1      35.412  13.405  17.035  0.00  0.00     0.021 C 
ENDBRANCH  21  24
ENDBRANCH   2  21
BRANCH   5  26
HETATM   26  N   UNK N   1      35.221  11.093  12.362  0.00  0.00    -0.398 N 
HETATM   27  H   UNK N   1      35.612  10.944  13.252  0.00  0.00     0.156 HD
HETATM   28  H   UNK N   1      34.815  10.341  11.871  0.00  0.00     0.156 HD
ENDBRANCH   5  26
TORSDOF 8
ENDMDL
MODEL 2
REMARK VINA RESULT:      -6.2     10.877     14.142
REMARK  8 active torsions:
REMARK  status: ('A' for Active; 'I' for Inactive)
REMARK    1  A    between atoms: S_1  and  C_18 
REMARK    2  A    between atoms: S_1  and  C_23 
REMARK    3  A    between atoms: O_3  and  C_20 
REMARK    4  A    between atoms: N_6  and  C_14 
REMARK    5  A    between atoms: N_7  and  C_13 
REMARK       I    between atoms: N_7  and  C_16 
REMARK    6  A    between atoms: N_8  and  C_21 
REMARK    7  A    between atoms: C_9  and  C_13 
REMARK    8  A    between atoms: C_16  and  C_17 
ROOT
HETATM    1  C   UNK N   1      22.429  19.395   3.337  0.00  0.00     0.066 A 
HETATM    2  C   UNK N   1      21.605  17.365   4.403  0.00  0.00     0.086 A 
HETATM    3  C   UNK N   1      22.628  18.265   4.135  0.00  0.00     0.045 A 
HETATM    4  C   UNK N   1      21.148  19.631   2.790  0.00  0.00     0.086 A 
HETATM    5  C   UNK N   1      20.339  17.575   3.839  0.00  0.00     0.050 A 
HETATM    6  C   UNK N   1      20.114  18.703   3.039  0.00  0.00     0.068 A 
ENDROOT
BRANCH   1   7
HETATM    7  C   UNK N   1      23.591  20.297   3.148  0.00  0.00     0.254 C 
HETATM    8  O   UNK N   1      23.438  21.500   2.971  0.00  0.00    -0.268 OA
HETATM    9  N   UNK N   1      24.834  19.760   3.177  0.00  0.00    -0.355 N 
HETATM   10  H   UNK N   1      24.911  18.786   3.296  0.00  0.00     0.162 HD
BRANCH   9  11
HETATM   11  C   UNK N   1      26.049  20.517   3.043  0.00  0.00     0.158 C 
BRANCH  11  12
HETATM   12  C   UNK N   1      27.049  20.079   4.114  0.00  0.00     0.240 C 
HETATM   13  N   UNK N   1      26.774  18.740   4.629  0.00  0.00     0.094 N 
HETATM   14  C   UNK N   1      27.293  18.744   5.997  0.00  0.00     0.273 C 
HETATM   15  C   UNK N   1      27.487  20.183   6.435  0.00  0.00     0.032 C 
HETATM   16  C   UNK N   1      26.972  21.015   5.290  0.00  0.00     0.039 C 
BRANCH  13  17
HETATM   17  C   UNK N   1      27.566  17.787   3.858  0.00  0.00     0.268 C 
HETATM   18  C   UNK N   1      26.703  16.633   3.374  0.00  0.00     0.037 C 
ENDBRANCH  13  17
ENDBRANCH  11  12
ENDBRANCH   9  11
ENDBRANCH   1   7
BRANCH   4  19
HETATM   19  O   UNK N   1      20.920  20.744   2.045  0.00  0.00    -0.355 OA
HETATM   20  C   UNK N   1      20.787  20.721   0.675  0.00  0.00     0.210 C 
ENDBRANCH   4  19
BRANCH   2  21
HETATM   21  S   UNK N   1      21.939  16.025   5.553  0.00  0.00     0.177 S 
HETATM   22  O   UNK N   1      21.370  14.777   4.863  0.00  0.00    -0.223 OA
HETATM   23  O   UNK N   1      23.428  15.691   5.381  0.00  0.00    -0.223 OA
BRANCH  21  24
HETATM   24  C   UNK N   1      21.533  15.817   7.311  0.00  0.00     0.141 C 
HETATM   25  C   UNK N   1      20.432  16.789   7.702  0.00  0.00     0.021 C 
ENDBRANCH  21  24
ENDBRANCH   2  21
BRANCH   5  26
HETATM   26  N   UNK N   1      19.280  16.681   4.096  0.00  0.00    -0.398 N 
HETATM   27  H   UNK N   1      18.475  16.993   4.568  0.00  0.00     0.156 HD
HETATM   28  H   UNK N   1      19.345  15.743   3.802  0.00  0.00     0.156 HD
ENDBRANCH   5  26
TORSDOF 8
ENDMDL
MODEL 3
REMARK VINA RESULT:      -6.2     12.056     15.467
REMARK  8 active torsions:
REMARK  status: ('A' for Active; 'I' for Inactive)
REMARK    1  A    between atoms: S_1  and  C_18 
REMARK    2  A    between atoms: S_1  and  C_23 
REMARK    3  A    between atoms: O_3  and  C_20 
REMARK    4  A    between atoms: N_6  and  C_14 
REMARK    5  A    between atoms: N_7  and  C_13 
REMARK       I    between atoms: N_7  and  C_16 
REMARK    6  A    between atoms: N_8  and  C_21 
REMARK    7  A    between atoms: C_9  and  C_13 
REMARK    8  A    between atoms: C_16  and  C_17 
ROOT
HETATM    1  C   UNK N   1      22.156  15.533   5.534  0.00  0.00     0.066 A 
HETATM    2  C   UNK N   1      21.243  15.561   3.276  0.00  0.00     0.086 A 
HETATM    3  C   UNK N   1      22.096  15.029   4.232  0.00  0.00     0.045 A 
HETATM    4  C   UNK N   1      21.320  16.615   5.889  0.00  0.00     0.086 A 
HETATM    5  C   UNK N   1      20.431  16.655   3.610  0.00  0.00     0.050 A 
HETATM    6  C   UNK N   1      20.471  17.176   4.911  0.00  0.00     0.068 A 
ENDROOT
BRANCH   1   7
HETATM    7  C   UNK N   1      23.087  14.861   6.473  0.00  0.00     0.254 C 
HETATM    8  O   UNK N   1      24.301  14.977   6.354  0.00  0.00    -0.268 OA
HETATM    9  N   UNK N   1      22.564  14.111   7.473  0.00  0.00    -0.355 N 
HETATM   10  H   UNK N   1      21.584  14.024   7.517  0.00  0.00     0.162 HD
BRANCH   9  11
HETATM   11  C   UNK N   1      23.343  13.434   8.473  0.00  0.00     0.158 C 
BRANCH  11  12
HETATM   12  C   UNK N   1      22.564  13.390   9.788  0.00  0.00     0.240 C 
HETATM   13  N   UNK N   1      22.569  12.064  10.403  0.00  0.00     0.094 N 
HETATM   14  C   UNK N   1      21.326  11.997  11.172  0.00  0.00     0.273 C 
HETATM   15  C   UNK N   1      20.397  13.092  10.684  0.00  0.00     0.032 C 
HETATM   16  C   UNK N   1      21.123  13.739   9.534  0.00  0.00     0.039 C 
BRANCH  13  17
HETATM   17  C   UNK N   1      23.678  12.009  11.349  0.00  0.00     0.268 C 
HETATM   18  C   UNK N   1      23.167  11.901  12.777  0.00  0.00     0.037 C 
ENDBRANCH  13  17
ENDBRANCH  11  12
ENDBRANCH   9  11
ENDBRANCH   1   7
BRANCH   4  19
HETATM   19  O   UNK N   1      21.331  17.096   7.159  0.00  0.00    -0.355 OA
HETATM   20  C   UNK N   1      20.256  17.000   8.013  0.00  0.00     0.210 C 
ENDBRANCH   4  19
BRANCH   2  21
HETATM   21  S   UNK N   1      21.150  14.744   1.678  0.00  0.00     0.177 S 
HETATM   22  O   UNK N   1      19.708  14.221   1.598  0.00  0.00    -0.223 OA
HETATM   23  O   UNK N   1      21.014  15.870   0.642  0.00  0.00    -0.223 OA
BRANCH  21  24
HETATM   24  C   UNK N   1      22.166  13.437   0.932  0.00  0.00     0.141 C 
HETATM   25  C   UNK N   1      23.536  13.992   0.576  0.00  0.00     0.021 C 
ENDBRANCH  21  24
ENDBRANCH   2  21
BRANCH   5  26
HETATM   26  N   UNK N   1      19.552  17.215   2.662  0.00  0.00    -0.398 N 
HETATM   27  H   UNK N   1      18.590  17.012   2.702  0.00  0.00     0.156 HD
HETATM   28  H   UNK N   1      19.901  17.810   1.958  0.00  0.00     0.156 HD
ENDBRANCH   5  26
TORSDOF 8
ENDMDL
MODEL 4
REMARK VINA RESULT:      -6.2      1.782      2.251
REMARK  8 active torsions:
REMARK  status: ('A' for Active; 'I' for Inactive)
REMARK    1  A    between atoms: S_1  and  C_18 
REMARK    2  A    between atoms: S_1  and  C_23 
REMARK    3  A    between atoms: O_3  and  C_20 
REMARK    4  A    between atoms: N_6  and  C_14 
REMARK    5  A    between atoms: N_7  and  C_13 
REMARK       I    between atoms: N_7  and  C_16 
REMARK    6  A    between atoms: N_8  and  C_21 
REMARK    7  A    between atoms: C_9  and  C_13 
REMARK    8  A    between atoms: C_16  and  C_17 
ROOT
HETATM    1  C   UNK N   1      34.604  14.839   9.872  0.00  0.00     0.066 A 
HETATM    2  C   UNK N   1      35.923  13.896  11.690  0.00  0.00     0.086 A 
HETATM    3  C   UNK N   1      34.743  14.442  11.205  0.00  0.00     0.045 A 
HETATM    4  C   UNK N   1      35.696  14.676   8.991  0.00  0.00     0.086 A 
HETATM    5  C   UNK N   1      37.022  13.757  10.830  0.00  0.00     0.050 A 
HETATM    6  C   UNK N   1      36.906  14.145   9.488  0.00  0.00     0.068 A 
ENDROOT
BRANCH   1   7
HETATM    7  C   UNK N   1      33.285  15.382   9.467  0.00  0.00     0.254 C 
HETATM    8  O   UNK N   1      32.270  14.698   9.536  0.00  0.00    -0.268 OA
HETATM    9  N   UNK N   1      33.224  16.658   9.017  0.00  0.00    -0.355 N 
HETATM   10  H   UNK N   1      34.066  17.164   8.954  0.00  0.00     0.162 HD
BRANCH   9  11
HETATM   11  C   UNK N   1      32.011  17.324   8.625  0.00  0.00     0.158 C 
BRANCH  11  12
HETATM   12  C   UNK N   1      32.017  17.554   7.114  0.00  0.00     0.240 C 
HETATM   13  N   UNK N   1      31.426  16.443   6.371  0.00  0.00     0.094 N 
HETATM   14  C   UNK N   1      32.086  16.463   5.065  0.00  0.00     0.273 C 
HETATM   15  C   UNK N   1      33.347  17.299   5.176  0.00  0.00     0.032 C 
HETATM   16  C   UNK N   1      33.435  17.688   6.628  0.00  0.00     0.039 C 
BRANCH  13  17
HETATM   17  C   UNK N   1      30.014  16.741   6.158  0.00  0.00     0.268 C 
HETATM   18  C   UNK N   1      29.282  15.528   5.606  0.00  0.00     0.037 C 
ENDBRANCH  13  17
ENDBRANCH  11  12
ENDBRANCH   9  11
ENDBRANCH   1   7
BRANCH   4  19
HETATM   19  O   UNK N   1      35.572  15.017   7.682  0.00  0.00    -0.355 OA
HETATM   20  C   UNK N   1      35.388  14.096   6.675  0.00  0.00     0.210 C 
ENDBRANCH   4  19
BRANCH   2  21
HETATM   21  S   UNK N   1      35.942  13.294  13.383  0.00  0.00     0.177 S 
HETATM   22  O   UNK N   1      34.463  13.050  13.720  0.00  0.00    -0.223 OA
HETATM   23  O   UNK N   1      36.375  11.823  13.296  0.00  0.00    -0.223 OA
BRANCH  21  24
HETATM   24  C   UNK N   1      36.661  13.986  14.900  0.00  0.00     0.141 C 
HETATM   25  C   UNK N   1      35.913  13.454  16.112  0.00  0.00     0.021 C 
ENDBRANCH  21  24
ENDBRANCH   2  21
BRANCH   5  26
HETATM   26  N   UNK N   1      38.232  13.203  11.293  0.00  0.00    -0.398 N 
HETATM   27  H   UNK N   1      38.583  13.455  12.177  0.00  0.00     0.156 HD
HETATM   28  H   UNK N   1      38.727  12.562  10.731  0.00  0.00     0.156 HD
ENDBRANCH   5  26
TORSDOF 8
ENDMDL
MODEL 5
REMARK VINA RESULT:      -6.1      3.793      7.634
REMARK  8 active torsions:
REMARK  status: ('A' for Active; 'I' for Inactive)
REMARK    1  A    between atoms: S_1  and  C_18 
REMARK    2  A    between atoms: S_1  and  C_23 
REMARK    3  A    between atoms: O_3  and  C_20 
REMARK    4  A    between atoms: N_6  and  C_14 
REMARK    5  A    between atoms: N_7  and  C_13 
REMARK       I    between atoms: N_7  and  C_16 
REMARK    6  A    between atoms: N_8  and  C_21 
REMARK    7  A    between atoms: C_9  and  C_13 
REMARK    8  A    between atoms: C_16  and  C_17 
ROOT
HETATM    1  C   UNK N   1      33.372  17.006   7.409  0.00  0.00     0.066 A 
HETATM    2  C   UNK N   1      31.069  17.068   6.620  0.00  0.00     0.086 A 
HETATM    3  C   UNK N   1      32.026  17.334   7.588  0.00  0.00     0.045 A 
HETATM    4  C   UNK N   1      33.772  16.388   6.203  0.00  0.00     0.086 A 
HETATM    5  C   UNK N   1      31.450  16.427   5.432  0.00  0.00     0.050 A 
HETATM    6  C   UNK N   1      32.796  16.091   5.227  0.00  0.00     0.068 A 
ENDROOT
BRANCH   1   7
HETATM    7  C   UNK N   1      34.304  17.367   8.504  0.00  0.00     0.254 C 
HETATM    8  O   UNK N   1      34.700  18.519   8.646  0.00  0.00    -0.268 OA
HETATM    9  N   UNK N   1      34.712  16.393   9.352  0.00  0.00    -0.355 N 
HETATM   10  H   UNK N   1      34.390  15.477   9.187  0.00  0.00     0.162 HD
BRANCH   9  11
HETATM   11  C   UNK N   1      35.583  16.605  10.476  0.00  0.00     0.158 C 
BRANCH  11  12
HETATM   12  C   UNK N   1      36.028  15.257  11.043  0.00  0.00     0.240 C 
HETATM   13  N   UNK N   1      36.465  14.324  10.007  0.00  0.00     0.094 N 
HETATM   14  C   UNK N   1      36.194  12.994  10.553  0.00  0.00     0.273 C 
HETATM   15  C   UNK N   1      35.222  13.136  11.709  0.00  0.00     0.032 C 
HETATM   16  C   UNK N   1      34.873  14.601  11.751  0.00  0.00     0.039 C 
BRANCH  13  17
HETATM   17  C   UNK N   1      37.911  14.456   9.861  0.00  0.00     0.268 C 
HETATM   18  C   UNK N   1      38.619  13.192  10.323  0.00  0.00     0.037 C 
ENDBRANCH  13  17
ENDBRANCH  11  12
ENDBRANCH   9  11
ENDBRANCH   1   7
BRANCH   4  19
HETATM   19  O   UNK N   1      35.081  16.096   5.988  0.00  0.00    -0.355 OA
HETATM   20  C   UNK N   1      35.519  14.868   5.546  0.00  0.00     0.210 C 
ENDBRANCH   4  19
BRANCH   2  21
HETATM   21  S   UNK N   1      29.395  17.659   6.901  0.00  0.00     0.177 S 
HETATM   22  O   UNK N   1      28.999  18.332   5.578  0.00  0.00    -0.223 OA
HETATM   23  O   UNK N   1      28.491  16.423   6.778  0.00  0.00    -0.223 OA
BRANCH  21  24
HETATM   24  C   UNK N   1      28.694  18.721   8.197  0.00  0.00     0.141 C 
HETATM   25  C   UNK N   1      29.371  18.425   9.525  0.00  0.00     0.021 C 
ENDBRANCH  21  24
ENDBRANCH   2  21
BRANCH   5  26
HETATM   26  N   UNK N   1      30.502  16.147   4.429  0.00  0.00    -0.398 N 
HETATM   27  H   UNK N   1      30.514  16.653   3.585  0.00  0.00     0.156 HD
HETATM   28  H   UNK N   1      29.827  15.444   4.571  0.00  0.00     0.156 HD
ENDBRANCH   5  26
TORSDOF 8
ENDMDL
MODEL 6
REMARK VINA RESULT:      -6.1      4.137      8.254
REMARK  8 active torsions:
REMARK  status: ('A' for Active; 'I' for Inactive)
REMARK    1  A    between atoms: S_1  and  C_18 
REMARK    2  A    between atoms: S_1  and  C_23 
REMARK    3  A    between atoms: O_3  and  C_20 
REMARK    4  A    between atoms: N_6  and  C_14 
REMARK    5  A    between atoms: N_7  and  C_13 
REMARK       I    between atoms: N_7  and  C_16 
REMARK    6  A    between atoms: N_8  and  C_21 
REMARK    7  A    between atoms: C_9  and  C_13 
REMARK    8  A    between atoms: C_16  and  C_17 
ROOT
HETATM    1  C   UNK N   1      32.052  17.339   7.333  0.00  0.00     0.066 A 
HETATM    2  C   UNK N   1      30.862  16.471   5.393  0.00  0.00     0.086 A 
HETATM    3  C   UNK N   1      32.042  16.724   6.078  0.00  0.00     0.045 A 
HETATM    4  C   UNK N   1      30.824  17.712   7.923  0.00  0.00     0.086 A 
HETATM    5  C   UNK N   1      29.640  16.864   5.957  0.00  0.00     0.050 A 
HETATM    6  C   UNK N   1      29.625  17.480   7.216  0.00  0.00     0.068 A 
ENDROOT
BRANCH   1   7
HETATM    7  C   UNK N   1      33.374  17.529   7.977  0.00  0.00     0.254 C 
HETATM    8  O   UNK N   1      34.204  18.299   7.507  0.00  0.00    -0.268 OA
HETATM    9  N   UNK N   1      33.648  16.830   9.104  0.00  0.00    -0.355 N 
HETATM   10  H   UNK N   1      32.964  16.204   9.433  0.00  0.00     0.162 HD
BRANCH   9  11
HETATM   11  C   UNK N   1      34.871  16.940   9.852  0.00  0.00     0.158 C 
BRANCH  11  12
HETATM   12  C   UNK N   1      35.406  15.544  10.172  0.00  0.00     0.240 C 
HETATM   13  N   UNK N   1      34.980  14.539   9.200  0.00  0.00     0.094 N 
HETATM   14  C   UNK N   1      34.952  13.279   9.943  0.00  0.00     0.273 C 
HETATM   15  C   UNK N   1      34.947  13.593  11.426  0.00  0.00     0.032 C 
HETATM   16  C   UNK N   1      34.882  15.096  11.509  0.00  0.00     0.039 C 
BRANCH  13  17
HETATM   17  C   UNK N   1      36.017  14.429   8.179  0.00  0.00     0.268 C 
HETATM   18  C   UNK N   1      35.445  14.697   6.796  0.00  0.00     0.037 C 
ENDBRANCH  13  17
ENDBRANCH  11  12
ENDBRANCH   9  11
ENDBRANCH   1   7
BRANCH   4  19
HETATM   19  O   UNK N   1      30.806  18.275   9.159  0.00  0.00    -0.355 OA
HETATM   20  C   UNK N   1      29.647  18.638   9.807  0.00  0.00     0.210 C 
ENDBRANCH   4  19
BRANCH   2  21
HETATM   21  S   UNK N   1      30.960  15.550   3.852  0.00  0.00     0.177 S 
HETATM   22  O   UNK N   1      29.880  14.466   3.984  0.00  0.00    -0.223 OA
HETATM   23  O   UNK N   1      30.250  16.418   2.803  0.00  0.00    -0.223 OA
BRANCH  21  24
HETATM   24  C   UNK N   1      32.353  14.727   3.027  0.00  0.00     0.141 C 
HETATM   25  C   UNK N   1      33.496  15.713   2.843  0.00  0.00     0.021 C 
ENDBRANCH  21  24
ENDBRANCH   2  21
BRANCH   5  26
HETATM   26  N   UNK N   1      28.426  16.618   5.287  0.00  0.00    -0.398 N 
HETATM   27  H   UNK N   1      27.688  16.166   5.755  0.00  0.00     0.156 HD
HETATM   28  H   UNK N   1      28.314  16.899   4.349  0.00  0.00     0.156 HD
ENDBRANCH   5  26
TORSDOF 8
ENDMDL
MODEL 7
REMARK VINA RESULT:      -6.0      8.110     12.552
REMARK  8 active torsions:
REMARK  status: ('A' for Active; 'I' for Inactive)
REMARK    1  A    between atoms: S_1  and  C_18 
REMARK    2  A    between atoms: S_1  and  C_23 
REMARK    3  A    between atoms: O_3  and  C_20 
REMARK    4  A    between atoms: N_6  and  C_14 
REMARK    5  A    between atoms: N_7  and  C_13 
REMARK       I    between atoms: N_7  and  C_16 
REMARK    6  A    between atoms: N_8  and  C_21 
REMARK    7  A    between atoms: C_9  and  C_13 
REMARK    8  A    between atoms: C_16  and  C_17 
ROOT
HETATM    1  C   UNK N   1      25.539  18.100   4.638  0.00  0.00     0.066 A 
HETATM    2  C   UNK N   1      23.239  18.652   4.054  0.00  0.00     0.086 A 
HETATM    3  C   UNK N   1      24.169  17.826   4.671  0.00  0.00     0.045 A 
HETATM    4  C   UNK N   1      25.991  19.254   3.960  0.00  0.00     0.086 A 
HETATM    5  C   UNK N   1      23.681  19.783   3.353  0.00  0.00     0.050 A 
HETATM    6  C   UNK N   1      25.050  20.080   3.309  0.00  0.00     0.068 A 
ENDROOT
BRANCH   1   7
HETATM    7  C   UNK N   1      26.429  17.158   5.359  0.00  0.00     0.254 C 
HETATM    8  O   UNK N   1      26.642  16.031   4.928  0.00  0.00    -0.268 OA
HETATM    9  N   UNK N   1      27.007  17.573   6.512  0.00  0.00    -0.355 N 
HETATM   10  H   UNK N   1      26.789  18.476   6.835  0.00  0.00     0.162 HD
BRANCH   9  11
HETATM   11  C   UNK N   1      27.917  16.781   7.295  0.00  0.00     0.158 C 
BRANCH  11  12
HETATM   12  C   UNK N   1      29.328  17.359   7.183  0.00  0.00     0.240 C 
HETATM   13  N   UNK N   1      30.344  16.331   6.967  0.00  0.00     0.094 N 
HETATM   14  C   UNK N   1      31.570  16.879   7.547  0.00  0.00     0.273 C 
HETATM   15  C   UNK N   1      31.197  18.024   8.469  0.00  0.00     0.032 C 
HETATM   16  C   UNK N   1      29.692  18.057   8.466  0.00  0.00     0.039 C 
BRANCH  13  17
HETATM   17  C   UNK N   1      30.555  16.200   5.528  0.00  0.00     0.268 C 
HETATM   18  C   UNK N   1      30.333  17.530   4.826  0.00  0.00     0.037 C 
ENDBRANCH  13  17
ENDBRANCH  11  12
ENDBRANCH   9  11
ENDBRANCH   1   7
BRANCH   4  19
HETATM   19  O   UNK N   1      27.314  19.562   3.949  0.00  0.00    -0.355 OA
HETATM   20  C   UNK N   1      27.898  20.417   4.856  0.00  0.00     0.210 C 
ENDBRANCH   4  19
BRANCH   2  21
HETATM   21  S   UNK N   1      21.496  18.278   4.279  0.00  0.00     0.177 S 
HETATM   22  O   UNK N   1      20.862  19.622   4.667  0.00  0.00    -0.223 OA
HETATM   23  O   UNK N   1      20.906  18.176   2.865  0.00  0.00    -0.223 OA
BRANCH  21  24
HETATM   24  C   UNK N   1      20.651  17.045   5.312  0.00  0.00     0.141 C 
HETATM   25  C   UNK N   1      21.114  17.180   6.754  0.00  0.00     0.021 C 
ENDBRANCH  21  24
ENDBRANCH   2  21
BRANCH   5  26
HETATM   26  N   UNK N   1      22.761  20.642   2.720  0.00  0.00    -0.398 N 
HETATM   27  H   UNK N   1      22.999  21.079   1.870  0.00  0.00     0.156 HD
HETATM   28  H   UNK N   1      21.879  20.805   3.127  0.00  0.00     0.156 HD
ENDBRANCH   5  26
TORSDOF 8
ENDMDL
MODEL 8
REMARK VINA RESULT:      -6.0      4.285      7.902
REMARK  8 active torsions:
REMARK  status: ('A' for Active; 'I' for Inactive)
REMARK    1  A    between atoms: S_1  and  C_18 
REMARK    2  A    between atoms: S_1  and  C_23 
REMARK    3  A    between atoms: O_3  and  C_20 
REMARK    4  A    between atoms: N_6  and  C_14 
REMARK    5  A    between atoms: N_7  and  C_13 
REMARK       I    between atoms: N_7  and  C_16 
REMARK    6  A    between atoms: N_8  and  C_21 
REMARK    7  A    between atoms: C_9  and  C_13 
REMARK    8  A    between atoms: C_16  and  C_17 
ROOT
HETATM    1  C   UNK N   1      32.273  17.060   5.962  0.00  0.00     0.066 A 
HETATM    2  C   UNK N   1      29.887  17.381   6.337  0.00  0.00     0.086 A 
HETATM    3  C   UNK N   1      31.175  17.188   6.817  0.00  0.00     0.045 A 
HETATM    4  C   UNK N   1      32.067  17.134   4.566  0.00  0.00     0.086 A 
HETATM    5  C   UNK N   1      29.668  17.426   4.953  0.00  0.00     0.050 A 
HETATM    6  C   UNK N   1      30.754  17.303   4.075  0.00  0.00     0.068 A 
ENDROOT
BRANCH   1   7
HETATM    7  C   UNK N   1      33.602  16.886   6.596  0.00  0.00     0.254 C 
HETATM    8  O   UNK N   1      34.337  17.845   6.801  0.00  0.00    -0.268 OA
HETATM    9  N   UNK N   1      33.989  15.637   6.949  0.00  0.00    -0.355 N 
HETATM   10  H   UNK N   1      33.379  14.892   6.744  0.00  0.00     0.162 HD
BRANCH   9  11
HETATM   11  C   UNK N   1      35.232  15.325   7.601  0.00  0.00     0.158 C 
BRANCH  11  12
HETATM   12  C   UNK N   1      34.954  14.766   8.996  0.00  0.00     0.240 C 
HETATM   13  N   UNK N   1      36.175  14.507   9.755  0.00  0.00     0.094 N 
HETATM   14  C   UNK N   1      35.832  13.419  10.671  0.00  0.00     0.273 C 
HETATM   15  C   UNK N   1      34.562  12.754  10.175  0.00  0.00     0.032 C 
HETATM   16  C   UNK N   1      34.234  13.449   8.880  0.00  0.00     0.039 C 
BRANCH  13  17
HETATM   17  C   UNK N   1      36.467  15.688  10.561  0.00  0.00     0.268 C 
HETATM   18  C   UNK N   1      35.183  16.377  10.994  0.00  0.00     0.037 C 
ENDBRANCH  13  17
ENDBRANCH  11  12
ENDBRANCH   9  11
ENDBRANCH   1   7
BRANCH   4  19
HETATM   19  O   UNK N   1      33.123  17.053   3.716  0.00  0.00    -0.355 OA
HETATM   20  C   UNK N   1      33.398  15.938   2.957  0.00  0.00     0.210 C 
ENDBRANCH   4  19
BRANCH   2  21
HETATM   21  S   UNK N   1      28.575  17.672   7.530  0.00  0.00     0.177 S 
HETATM   22  O   UNK N   1      27.938  18.997   7.085  0.00  0.00    -0.223 OA
HETATM   23  O   UNK N   1      27.424  16.744   7.116  0.00  0.00    -0.223 OA
BRANCH  21  24
HETATM   24  C   UNK N   1      28.591  17.744   9.345  0.00  0.00     0.141 C 
HETATM   25  C   UNK N   1      29.688  18.688   9.811  0.00  0.00     0.021 C 
ENDBRANCH  21  24
ENDBRANCH   2  21
BRANCH   5  26
HETATM   26  N   UNK N   1      28.373  17.625   4.435  0.00  0.00    -0.398 N 
HETATM   27  H   UNK N   1      28.100  18.516   4.120  0.00  0.00     0.156 HD
HETATM   28  H   UNK N   1      27.740  16.871   4.388  0.00  0.00     0.156 HD
ENDBRANCH   5  26
TORSDOF 8
ENDMDL
MODEL 9
REMARK VINA RESULT:      -6.0      1.155      1.943
REMARK  8 active torsions:
REMARK  status: ('A' for Active; 'I' for Inactive)
REMARK    1  A    between atoms: S_1  and  C_18 
REMARK    2  A    between atoms: S_1  and  C_23 
REMARK    3  A    between atoms: O_3  and  C_20 
REMARK    4  A    between atoms: N_6  and  C_14 
REMARK    5  A    between atoms: N_7  and  C_13 
REMARK       I    between atoms: N_7  and  C_16 
REMARK    6  A    between atoms: N_8  and  C_21 
REMARK    7  A    between atoms: C_9  and  C_13 
REMARK    8  A    between atoms: C_16  and  C_17 
ROOT
HETATM    1  C   UNK N   1      35.786  15.141  10.644  0.00  0.00     0.066 A 
HETATM    2  C   UNK N   1      36.397  13.830  12.604  0.00  0.00     0.086 A 
HETATM    3  C   UNK N   1      35.839  14.963  12.029  0.00  0.00     0.045 A 
HETATM    4  C   UNK N   1      36.312  14.135   9.803  0.00  0.00     0.086 A 
HETATM    5  C   UNK N   1      36.949  12.839  11.778  0.00  0.00     0.050 A 
HETATM    6  C   UNK N   1      36.904  12.994  10.386  0.00  0.00     0.068 A 
ENDROOT
BRANCH   1   7
HETATM    7  C   UNK N   1      35.140  16.381  10.150  0.00  0.00     0.254 C 
HETATM    8  O   UNK N   1      35.554  17.486  10.480  0.00  0.00    -0.268 OA
HETATM    9  N   UNK N   1      34.076  16.266   9.320  0.00  0.00    -0.355 N 
HETATM   10  H   UNK N   1      33.760  15.360   9.100  0.00  0.00     0.162 HD
BRANCH   9  11
HETATM   11  C   UNK N   1      33.375  17.379   8.738  0.00  0.00     0.158 C 
BRANCH  11  12
HETATM   12  C   UNK N   1      32.063  16.895   8.122  0.00  0.00     0.240 C 
HETATM   13  N   UNK N   1      32.035  17.036   6.668  0.00  0.00     0.094 N 
HETATM   14  C   UNK N   1      30.622  17.206   6.328  0.00  0.00     0.273 C 
HETATM   15  C   UNK N   1      29.866  17.588   7.586  0.00  0.00     0.032 C 
HETATM   16  C   UNK N   1      30.921  17.719   8.654  0.00  0.00     0.039 C 
BRANCH  13  17
HETATM   17  C   UNK N   1      32.482  15.776   6.083  0.00  0.00     0.268 C 
HETATM   18  C   UNK N   1      33.798  15.960   5.344  0.00  0.00     0.037 C 
ENDBRANCH  13  17
ENDBRANCH  11  12
ENDBRANCH   9  11
ENDBRANCH   1   7
BRANCH   4  19
HETATM   19  O   UNK N   1      36.235  14.267   8.453  0.00  0.00    -0.355 OA
HETATM   20  C   UNK N   1      35.569  13.375   7.644  0.00  0.00     0.210 C 
ENDBRANCH   4  19
BRANCH   2  21
HETATM   21  S   UNK N   1      36.285  13.645  14.388  0.00  0.00     0.177 S 
HETATM   22  O   UNK N   1      37.487  12.763  14.758  0.00  0.00    -0.223 OA
HETATM   23  O   UNK N   1      36.812  14.962  14.976  0.00  0.00    -0.223 OA
BRANCH  21  24
HETATM   24  C   UNK N   1      34.934  13.072  15.458  0.00  0.00     0.141 C 
HETATM   25  C   UNK N   1      35.504  12.541  16.764  0.00  0.00     0.021 C 
ENDBRANCH  21  24
ENDBRANCH   2  21
BRANCH   5  26
HETATM   26  N   UNK N   1      37.518  11.676  12.332  0.00  0.00    -0.398 N 
HETATM   27  H   UNK N   1      37.551  11.561  13.309  0.00  0.00     0.156 HD
HETATM   28  H   UNK N   1      37.883  10.977  11.742  0.00  0.00     0.156 HD
ENDBRANCH   5  26
TORSDOF 8
ENDMDL
