MODEL 1
REMARK VINA RESULT:      -6.4      0.000      0.000
REMARK  4 active torsions:
REMARK  status: ('A' for Active; 'I' for Inactive)
REMARK    1  A    between atoms: O_1  and  C_14 
REMARK    2  A    between atoms: N_3  and  C_8 
REMARK       I    between atoms: N_3  and  C_16 
REMARK    3  A    between atoms: C_4  and  C_5 
REMARK    4  A    between atoms: C_5  and  C_8 
ROOT
HETATM    1  C   UNK N   1      27.469  24.380  -4.783  0.00  0.00    -0.045 A 
HETATM    2  C   UNK N   1      26.724  25.592  -4.780  0.00  0.00    -0.017 A 
HETATM    3  C   UNK N   1      25.795  25.833  -5.827  0.00  0.00    -0.025 A 
HETATM    4  C   UNK N   1      27.265  23.462  -5.817  0.00  0.00     0.008 A 
HETATM    5  C   UNK N   1      26.872  26.563  -3.777  0.00  0.00     0.049 A 
HETATM    6  C   UNK N   1      25.618  24.894  -6.842  0.00  0.00     0.012 A 
HETATM    7  C   UNK N   1      25.050  27.012  -5.851  0.00  0.00     0.015 A 
HETATM    8  C   UNK N   1      26.351  23.712  -6.838  0.00  0.00     0.001 A 
HETATM    9  C   UNK N   1      26.124  27.746  -3.801  0.00  0.00     0.069 A 
HETATM   10  C   UNK N   1      25.211  27.965  -4.846  0.00  0.00     0.037 A 
ENDROOT
BRANCH   1  11
HETATM   11  C   UNK N   1      28.491  23.962  -3.757  0.00  0.00     0.059 C 
BRANCH  11  12
HETATM   12  C   UNK N   1      29.940  24.418  -3.870  0.00  0.00     0.127 C 
BRANCH  12  13
HETATM   13  N   UNK N   1      30.912  23.328  -3.842  0.00  0.00    -0.361 N 
HETATM   14  C   UNK N   1      31.312  22.598  -2.763  0.00  0.00     0.213 C 
HETATM   15  O   UNK N   1      30.862  22.804  -1.644  0.00  0.00    -0.274 OA
HETATM   16  C   UNK N   1      32.321  21.520  -2.942  0.00  0.00     0.117 C 
HETATM   17  H   UNK N   1      31.326  23.093  -4.704  0.00  0.00     0.162 HD
ENDBRANCH  12  13
ENDBRANCH  11  12
ENDBRANCH   1  11
BRANCH   9  18
HETATM   18  O   UNK N   1      26.301  28.654  -2.812  0.00  0.00    -0.356 OA
HETATM   19  C   UNK N   1      27.517  29.233  -2.530  0.00  0.00     0.210 C 
ENDBRANCH   9  18
TORSDOF 4
ENDMDL
MODEL 2
REMARK VINA RESULT:      -6.3      3.392      4.974
REMARK  4 active torsions:
REMARK  status: ('A' for Active; 'I' for Inactive)
REMARK    1  A    between atoms: O_1  and  C_14 
REMARK    2  A    between atoms: N_3  and  C_8 
REMARK       I    between atoms: N_3  and  C_16 
REMARK    3  A    between atoms: C_4  and  C_5 
REMARK    4  A    between atoms: C_5  and  C_8 
ROOT
HETATM    1  C   UNK N   1      26.008  27.361  -5.531  0.00  0.00    -0.045 A 
HETATM    2  C   UNK N   1      27.048  27.995  -6.266  0.00  0.00    -0.017 A 
HETATM    3  C   UNK N   1      27.612  29.199  -5.766  0.00  0.00    -0.025 A 
HETATM    4  C   UNK N   1      25.572  27.943  -4.336  0.00  0.00     0.008 A 
HETATM    5  C   UNK N   1      27.542  27.474  -7.473  0.00  0.00     0.049 A 
HETATM    6  C   UNK N   1      27.151  29.750  -4.571  0.00  0.00     0.012 A 
HETATM    7  C   UNK N   1      28.633  29.843  -6.465  0.00  0.00     0.015 A 
HETATM    8  C   UNK N   1      26.134  29.124  -3.858  0.00  0.00     0.001 A 
HETATM    9  C   UNK N   1      28.565  28.120  -8.174  0.00  0.00     0.069 A 
HETATM   10  C   UNK N   1      29.109  29.309  -7.662  0.00  0.00     0.037 A 
ENDROOT
BRANCH   1  11
HETATM   11  C   UNK N   1      25.300  26.086  -5.910  0.00  0.00     0.059 C 
BRANCH  11  12
HETATM   12  C   UNK N   1      25.582  24.786  -5.167  0.00  0.00     0.127 C 
BRANCH  12  13
HETATM   13  N   UNK N   1      26.989  24.585  -4.831  0.00  0.00    -0.361 N 
HETATM   14  C   UNK N   1      27.514  24.239  -3.622  0.00  0.00     0.213 C 
HETATM   15  O   UNK N   1      26.806  24.053  -2.643  0.00  0.00    -0.274 OA
HETATM   16  C   UNK N   1      28.986  24.082  -3.482  0.00  0.00     0.117 C 
HETATM   17  H   UNK N   1      27.633  24.716  -5.564  0.00  0.00     0.162 HD
ENDBRANCH  12  13
ENDBRANCH  11  12
ENDBRANCH   1  11
BRANCH   9  18
HETATM   18  O   UNK N   1      29.009  27.580  -9.334  0.00  0.00    -0.356 OA
HETATM   19  C   UNK N   1      28.199  27.372 -10.426  0.00  0.00     0.210 C 
ENDBRANCH   9  18
TORSDOF 4
ENDMDL
MODEL 3
REMARK VINA RESULT:      -6.2     13.238     15.383
REMARK  4 active torsions:
REMARK  status: ('A' for Active; 'I' for Inactive)
REMARK    1  A    between atoms: O_1  and  C_14 
REMARK    2  A    between atoms: N_3  and  C_8 
REMARK       I    between atoms: N_3  and  C_16 
REMARK    3  A    between atoms: C_4  and  C_5 
REMARK    4  A    between atoms: C_5  and  C_8 
ROOT
HETATM    1  C   UNK N   1      32.593  17.464   7.145  0.00  0.00    -0.045 A 
HETATM    2  C   UNK N   1      31.266  17.327   6.652  0.00  0.00    -0.017 A 
HETATM    3  C   UNK N   1      31.054  17.251   5.250  0.00  0.00    -0.025 A 
HETATM    4  C   UNK N   1      33.652  17.520   6.233  0.00  0.00     0.008 A 
HETATM    5  C   UNK N   1      30.151  17.265   7.503  0.00  0.00     0.049 A 
HETATM    6  C   UNK N   1      32.135  17.309   4.370  0.00  0.00     0.012 A 
HETATM    7  C   UNK N   1      29.764  17.116   4.737  0.00  0.00     0.015 A 
HETATM    8  C   UNK N   1      33.430  17.444   4.860  0.00  0.00     0.001 A 
HETATM    9  C   UNK N   1      28.857  17.129   6.989  0.00  0.00     0.069 A 
HETATM   10  C   UNK N   1      28.669  17.056   5.598  0.00  0.00     0.037 A 
ENDROOT
BRANCH   1  11
HETATM   11  C   UNK N   1      32.999  17.560   8.593  0.00  0.00     0.059 C 
BRANCH  11  12
HETATM   12  C   UNK N   1      34.410  17.186   9.033  0.00  0.00     0.127 C 
BRANCH  12  13
HETATM   13  N   UNK N   1      34.456  16.269  10.168  0.00  0.00    -0.361 N 
HETATM   14  C   UNK N   1      35.541  15.927  10.918  0.00  0.00     0.213 C 
HETATM   15  O   UNK N   1      36.650  16.390  10.693  0.00  0.00    -0.274 OA
HETATM   16  C   UNK N   1      35.381  14.966  12.042  0.00  0.00     0.117 C 
HETATM   17  H   UNK N   1      33.602  15.847  10.420  0.00  0.00     0.162 HD
ENDBRANCH  12  13
ENDBRANCH  11  12
ENDBRANCH   1  11
BRANCH   9  18
HETATM   18  O   UNK N   1      27.811  17.073   7.848  0.00  0.00    -0.356 OA
HETATM   19  C   UNK N   1      27.922  17.360   9.189  0.00  0.00     0.210 C 
ENDBRANCH   9  18
TORSDOF 4
ENDMDL
MODEL 4
REMARK VINA RESULT:      -6.2      3.105      5.179
REMARK  4 active torsions:
REMARK  status: ('A' for Active; 'I' for Inactive)
REMARK    1  A    between atoms: O_1  and  C_14 
REMARK    2  A    between atoms: N_3  and  C_8 
REMARK       I    between atoms: N_3  and  C_16 
REMARK    3  A    between atoms: C_4  and  C_5 
REMARK    4  A    between atoms: C_5  and  C_8 
ROOT
HETATM    1  C   UNK N   1      26.455  27.846  -5.827  0.00  0.00    -0.045 A 
HETATM    2  C   UNK N   1      26.537  26.911  -6.897  0.00  0.00    -0.017 A 
HETATM    3  C   UNK N   1      27.506  27.112  -7.916  0.00  0.00    -0.025 A 
HETATM    4  C   UNK N   1      27.331  28.936  -5.811  0.00  0.00     0.008 A 
HETATM    5  C   UNK N   1      25.694  25.792  -6.985  0.00  0.00     0.049 A 
HETATM    6  C   UNK N   1      28.363  28.211  -7.866  0.00  0.00     0.012 A 
HETATM    7  C   UNK N   1      27.611  26.213  -8.977  0.00  0.00     0.015 A 
HETATM    8  C   UNK N   1      28.276  29.120  -6.817  0.00  0.00     0.001 A 
HETATM    9  C   UNK N   1      25.799  24.890  -8.049  0.00  0.00     0.069 A 
HETATM   10  C   UNK N   1      26.764  25.107  -9.046  0.00  0.00     0.037 A 
ENDROOT
BRANCH   1  11
HETATM   11  C   UNK N   1      25.493  27.789  -4.669  0.00  0.00     0.059 C 
BRANCH  11  12
HETATM   12  C   UNK N   1      25.930  27.233  -3.319  0.00  0.00     0.127 C 
BRANCH  12  13
HETATM   13  N   UNK N   1      27.046  26.294  -3.394  0.00  0.00    -0.361 N 
HETATM   14  C   UNK N   1      26.987  24.947  -3.595  0.00  0.00     0.213 C 
HETATM   15  O   UNK N   1      25.922  24.365  -3.740  0.00  0.00    -0.274 OA
HETATM   16  C   UNK N   1      28.247  24.159  -3.640  0.00  0.00     0.117 C 
HETATM   17  H   UNK N   1      27.946  26.680  -3.288  0.00  0.00     0.162 HD
ENDBRANCH  12  13
ENDBRANCH  11  12
ENDBRANCH   1  11
BRANCH   9  18
HETATM   18  O   UNK N   1      24.963  23.825  -8.092  0.00  0.00    -0.356 OA
HETATM   19  C   UNK N   1      25.405  22.524  -8.165  0.00  0.00     0.210 C 
ENDBRANCH   9  18
TORSDOF 4
ENDMDL
MODEL 5
REMARK VINA RESULT:      -6.1     11.279     14.162
REMARK  4 active torsions:
REMARK  status: ('A' for Active; 'I' for Inactive)
REMARK    1  A    between atoms: O_1  and  C_14 
REMARK    2  A    between atoms: N_3  and  C_8 
REMARK       I    between atoms: N_3  and  C_16 
REMARK    3  A    between atoms: C_4  and  C_5 
REMARK    4  A    between atoms: C_5  and  C_8 
ROOT
HETATM    1  C   UNK N   1      30.666  17.466   7.357  0.00  0.00    -0.045 A 
HETATM    2  C   UNK N   1      31.176  17.264   6.045  0.00  0.00    -0.017 A 
HETATM    3  C   UNK N   1      32.577  17.356   5.827  0.00  0.00    -0.025 A 
HETATM    4  C   UNK N   1      31.559  17.750   8.395  0.00  0.00     0.008 A 
HETATM    5  C   UNK N   1      30.345  16.975   4.951  0.00  0.00     0.049 A 
HETATM    6  C   UNK N   1      33.438  17.641   6.887  0.00  0.00     0.012 A 
HETATM    7  C   UNK N   1      33.107  17.162   4.551  0.00  0.00     0.015 A 
HETATM    8  C   UNK N   1      32.930  17.838   8.167  0.00  0.00     0.001 A 
HETATM    9  C   UNK N   1      30.876  16.781   3.672  0.00  0.00     0.069 A 
HETATM   10  C   UNK N   1      32.264  16.876   3.477  0.00  0.00     0.037 A 
ENDROOT
BRANCH   1  11
HETATM   11  C   UNK N   1      29.217  17.406   7.768  0.00  0.00     0.059 C 
BRANCH  11  12
HETATM   12  C   UNK N   1      28.395  18.681   7.915  0.00  0.00     0.127 C 
BRANCH  12  13
HETATM   13  N   UNK N   1      27.425  18.891   6.844  0.00  0.00    -0.361 N 
HETATM   14  C   UNK N   1      27.162  20.048   6.175  0.00  0.00     0.213 C 
HETATM   15  O   UNK N   1      27.756  21.087   6.428  0.00  0.00    -0.274 OA
HETATM   16  C   UNK N   1      26.127  20.057   5.107  0.00  0.00     0.117 C 
HETATM   17  H   UNK N   1      26.899  18.103   6.575  0.00  0.00     0.162 HD
ENDBRANCH  12  13
ENDBRANCH  11  12
ENDBRANCH   1  11
BRANCH   9  18
HETATM   18  O   UNK N   1      30.035  16.504   2.647  0.00  0.00    -0.356 OA
HETATM   19  C   UNK N   1      29.207  15.405   2.627  0.00  0.00     0.210 C 
ENDBRANCH   9  18
TORSDOF 4
ENDMDL
MODEL 6
REMARK VINA RESULT:      -6.1     11.315     14.524
REMARK  4 active torsions:
REMARK  status: ('A' for Active; 'I' for Inactive)
REMARK    1  A    between atoms: O_1  and  C_14 
REMARK    2  A    between atoms: N_3  and  C_8 
REMARK       I    between atoms: N_3  and  C_16 
REMARK    3  A    between atoms: C_4  and  C_5 
REMARK    4  A    between atoms: C_5  and  C_8 
ROOT
HETATM    1  C   UNK N   1      28.576  17.276   7.477  0.00  0.00    -0.045 A 
HETATM    2  C   UNK N   1      29.967  17.285   7.176  0.00  0.00    -0.017 A 
HETATM    3  C   UNK N   1      30.878  17.802   8.136  0.00  0.00    -0.025 A 
HETATM    4  C   UNK N   1      28.147  17.776   8.711  0.00  0.00     0.008 A 
HETATM    5  C   UNK N   1      30.476  16.802   5.961  0.00  0.00     0.049 A 
HETATM    6  C   UNK N   1      30.413  18.292   9.356  0.00  0.00     0.012 A 
HETATM    7  C   UNK N   1      32.247  17.824   7.869  0.00  0.00     0.015 A 
HETATM    8  C   UNK N   1      29.052  18.279   9.643  0.00  0.00     0.001 A 
HETATM    9  C   UNK N   1      31.849  16.824   5.692  0.00  0.00     0.069 A 
HETATM   10  C   UNK N   1      32.733  17.339   6.655  0.00  0.00     0.037 A 
ENDROOT
BRANCH   1  11
HETATM   11  C   UNK N   1      27.475  16.769   6.582  0.00  0.00     0.059 C 
BRANCH  11  12
HETATM   12  C   UNK N   1      26.840  17.678   5.537  0.00  0.00     0.127 C 
BRANCH  12  13
HETATM   13  N   UNK N   1      26.699  19.067   5.961  0.00  0.00    -0.361 N 
HETATM   14  C   UNK N   1      27.401  20.148   5.517  0.00  0.00     0.213 C 
HETATM   15  O   UNK N   1      28.271  20.043   4.664  0.00  0.00    -0.274 OA
HETATM   16  C   UNK N   1      27.107  21.493   6.079  0.00  0.00     0.117 C 
HETATM   17  H   UNK N   1      26.018  19.244   6.650  0.00  0.00     0.162 HD
ENDBRANCH  12  13
ENDBRANCH  11  12
ENDBRANCH   1  11
BRANCH   9  18
HETATM   18  O   UNK N   1      32.294  16.347   4.506  0.00  0.00    -0.356 OA
HETATM   19  C   UNK N   1      32.458  17.135   3.390  0.00  0.00     0.210 C 
ENDBRANCH   9  18
TORSDOF 4
ENDMDL
MODEL 7
REMARK VINA RESULT:      -6.1      3.945      5.623
REMARK  4 active torsions:
REMARK  status: ('A' for Active; 'I' for Inactive)
REMARK    1  A    between atoms: O_1  and  C_14 
REMARK    2  A    between atoms: N_3  and  C_8 
REMARK       I    between atoms: N_3  and  C_16 
REMARK    3  A    between atoms: C_4  and  C_5 
REMARK    4  A    between atoms: C_5  and  C_8 
ROOT
HETATM    1  C   UNK N   1      25.953  27.467  -5.378  0.00  0.00    -0.045 A 
HETATM    2  C   UNK N   1      26.986  28.008  -6.193  0.00  0.00    -0.017 A 
HETATM    3  C   UNK N   1      27.620  29.215  -5.793  0.00  0.00    -0.025 A 
HETATM    4  C   UNK N   1      25.593  28.139  -4.206  0.00  0.00     0.008 A 
HETATM    5  C   UNK N   1      27.404  27.394  -7.384  0.00  0.00     0.049 A 
HETATM    6  C   UNK N   1      27.234  29.858  -4.617  0.00  0.00     0.012 A 
HETATM    7  C   UNK N   1      28.636  29.770  -6.571  0.00  0.00     0.015 A 
HETATM    8  C   UNK N   1      26.223  29.321  -3.826  0.00  0.00     0.001 A 
HETATM    9  C   UNK N   1      28.423  27.950  -8.165  0.00  0.00     0.069 A 
HETATM   10  C   UNK N   1      29.037  29.144  -7.751  0.00  0.00     0.037 A 
ENDROOT
BRANCH   1  11
HETATM   11  C   UNK N   1      25.177  26.204  -5.647  0.00  0.00     0.059 C 
BRANCH  11  12
HETATM   12  C   UNK N   1      25.709  24.850  -5.194  0.00  0.00     0.127 C 
BRANCH  12  13
HETATM   13  N   UNK N   1      25.170  23.718  -5.941  0.00  0.00    -0.361 N 
HETATM   14  C   UNK N   1      25.863  22.787  -6.656  0.00  0.00     0.213 C 
HETATM   15  O   UNK N   1      27.083  22.819  -6.741  0.00  0.00    -0.274 OA
HETATM   16  C   UNK N   1      25.125  21.701  -7.353  0.00  0.00     0.117 C 
HETATM   17  H   UNK N   1      24.191  23.615  -5.928  0.00  0.00     0.162 HD
ENDBRANCH  12  13
ENDBRANCH  11  12
ENDBRANCH   1  11
BRANCH   9  18
HETATM   18  O   UNK N   1      28.793  27.322  -9.305  0.00  0.00    -0.356 OA
HETATM   19  C   UNK N   1      29.236  27.990 -10.424  0.00  0.00     0.210 C 
ENDBRANCH   9  18
TORSDOF 4
ENDMDL
MODEL 8
REMARK VINA RESULT:      -6.0      2.667      3.671
REMARK  4 active torsions:
REMARK  status: ('A' for Active; 'I' for Inactive)
REMARK    1  A    between atoms: O_1  and  C_14 
REMARK    2  A    between atoms: N_3  and  C_8 
REMARK       I    between atoms: N_3  and  C_16 
REMARK    3  A    between atoms: C_4  and  C_5 
REMARK    4  A    between atoms: C_5  and  C_8 
ROOT
HETATM    1  C   UNK N   1      26.299  26.835  -6.520  0.00  0.00    -0.045 A 
HETATM    2  C   UNK N   1      26.946  28.025  -6.083  0.00  0.00    -0.017 A 
HETATM    3  C   UNK N   1      27.930  28.621  -6.916  0.00  0.00    -0.025 A 
HETATM    4  C   UNK N   1      26.651  26.289  -7.758  0.00  0.00     0.008 A 
HETATM    5  C   UNK N   1      26.649  28.635  -4.854  0.00  0.00     0.049 A 
HETATM    6  C   UNK N   1      28.254  28.047  -8.145  0.00  0.00     0.012 A 
HETATM    7  C   UNK N   1      28.582  29.788  -6.516  0.00  0.00     0.015 A 
HETATM    8  C   UNK N   1      27.617  26.884  -8.565  0.00  0.00     0.001 A 
HETATM    9  C   UNK N   1      27.303  29.805  -4.452  0.00  0.00     0.069 A 
HETATM   10  C   UNK N   1      28.272  30.379  -5.291  0.00  0.00     0.037 A 
ENDROOT
BRANCH   1  11
HETATM   11  C   UNK N   1      25.239  26.073  -5.769  0.00  0.00     0.059 C 
BRANCH  11  12
HETATM   12  C   UNK N   1      25.550  24.721  -5.139  0.00  0.00     0.127 C 
BRANCH  12  13
HETATM   13  N   UNK N   1      26.956  24.533  -4.795  0.00  0.00    -0.361 N 
HETATM   14  C   UNK N   1      27.481  24.223  -3.576  0.00  0.00     0.213 C 
HETATM   15  O   UNK N   1      26.771  24.064  -2.592  0.00  0.00    -0.274 OA
HETATM   16  C   UNK N   1      28.953  24.073  -3.429  0.00  0.00     0.117 C 
HETATM   17  H   UNK N   1      27.601  24.643  -5.531  0.00  0.00     0.162 HD
ENDBRANCH  12  13
ENDBRANCH  11  12
ENDBRANCH   1  11
BRANCH   9  18
HETATM   18  O   UNK N   1      26.983  30.358  -3.257  0.00  0.00    -0.356 OA
HETATM   19  C   UNK N   1      27.753  30.205  -2.127  0.00  0.00     0.210 C 
ENDBRANCH   9  18
TORSDOF 4
ENDMDL
MODEL 9
REMARK VINA RESULT:      -6.0     11.293     13.944
REMARK  4 active torsions:
REMARK  status: ('A' for Active; 'I' for Inactive)
REMARK    1  A    between atoms: O_1  and  C_14 
REMARK    2  A    between atoms: N_3  and  C_8 
REMARK       I    between atoms: N_3  and  C_16 
REMARK    3  A    between atoms: C_4  and  C_5 
REMARK    4  A    between atoms: C_5  and  C_8 
ROOT
HETATM    1  C   UNK N   1      30.646  16.607   4.510  0.00  0.00    -0.045 A 
HETATM    2  C   UNK N   1      31.157  16.985   5.782  0.00  0.00    -0.017 A 
HETATM    3  C   UNK N   1      32.518  17.375   5.891  0.00  0.00    -0.025 A 
HETATM    4  C   UNK N   1      31.499  16.632   3.402  0.00  0.00     0.008 A 
HETATM    5  C   UNK N   1      30.365  16.986   6.941  0.00  0.00     0.049 A 
HETATM    6  C   UNK N   1      33.340  17.388   4.764  0.00  0.00     0.012 A 
HETATM    7  C   UNK N   1      33.048  17.751   7.125  0.00  0.00     0.015 A 
HETATM    8  C   UNK N   1      32.832  17.018   3.523  0.00  0.00     0.001 A 
HETATM    9  C   UNK N   1      30.896  17.362   8.179  0.00  0.00     0.069 A 
HETATM   10  C   UNK N   1      32.244  17.745   8.265  0.00  0.00     0.037 A 
ENDROOT
BRANCH   1  11
HETATM   11  C   UNK N   1      29.235  16.168   4.212  0.00  0.00     0.059 C 
BRANCH  11  12
HETATM   12  C   UNK N   1      28.272  17.087   3.471  0.00  0.00     0.127 C 
BRANCH  12  13
HETATM   13  N   UNK N   1      28.293  18.471   3.935  0.00  0.00    -0.361 N 
HETATM   14  C   UNK N   1      27.635  18.999   5.005  0.00  0.00     0.213 C 
HETATM   15  O   UNK N   1      26.919  18.314   5.722  0.00  0.00    -0.274 OA
HETATM   16  C   UNK N   1      27.786  20.445   5.316  0.00  0.00     0.117 C 
HETATM   17  H   UNK N   1      28.847  19.096   3.413  0.00  0.00     0.162 HD
ENDBRANCH  12  13
ENDBRANCH  11  12
ENDBRANCH   1  11
BRANCH   9  18
HETATM   18  O   UNK N   1      30.093  17.348   9.270  0.00  0.00    -0.356 OA
HETATM   19  C   UNK N   1      29.513  18.481   9.794  0.00  0.00     0.210 C 
ENDBRANCH   9  18
TORSDOF 4
ENDMDL
