MODEL 1
REMARK VINA RESULT:      -6.8      0.000      0.000
REMARK  7 active torsions:
REMARK  status: ('A' for Active; 'I' for Inactive)
REMARK    1  A    between atoms: C_4  and  C_19 
REMARK    2  A    between atoms: C_5  and  N_10 
REMARK    3  A    between atoms: N_10  and  C_11 
REMARK       I    between atoms: C_19  and  N_21 
REMARK    4  A    between atoms: N_21  and  O_22 
REMARK    5  A    between atoms: O_22  and  C_23 
REMARK    6  A    between atoms: C_23  and  C_24 
REMARK    7  A    between atoms: C_24  and  O_25 
ROOT
HETATM    1  C   UNK N   1      29.390  18.185   9.568  0.00  0.00     0.054 C 
HETATM    2  C   UNK N   1      30.312  17.868   8.439  0.00  0.00     0.007 A 
HETATM    3  C   UNK N   1      31.677  17.863   8.662  0.00  0.00     0.033 A 
HETATM    4  C   UNK N   1      32.578  17.577   7.635  0.00  0.00     0.079 A 
HETATM    5  C   UNK N   1      32.066  17.280   6.334  0.00  0.00     0.126 A 
HETATM    6  N   UNK N   1      30.693  17.287   6.129  0.00  0.00    -0.303 N 
HETATM    7  C   UNK N   1      29.824  17.579   7.166  0.00  0.00     0.254 A 
HETATM    8  O   UNK N   1      28.616  17.584   6.972  0.00  0.00    -0.267 OA
HETATM    9  C   UNK N   1      30.089  16.995   4.844  0.00  0.00     0.161 C 
ENDROOT
BRANCH   5  10
HETATM   10  N   UNK N   1      33.036  16.980   5.309  0.00  0.00    -0.339 N 
HETATM   11  H   UNK N   1      33.372  17.824   4.929  0.00  0.00     0.167 HD
BRANCH  10  12
HETATM   12  C   UNK N   1      33.682  15.886   4.655  0.00  0.00     0.072 A 
HETATM   13  C   UNK N   1      34.526  14.979   5.301  0.00  0.00     0.034 A 
HETATM   14  C   UNK N   1      35.127  13.928   4.604  0.00  0.00     0.020 A 
HETATM   15  C   UNK N   1      34.886  13.772   3.239  0.00  0.00     0.009 A 
HETATM   16  C   UNK N   1      34.046  14.665   2.576  0.00  0.00     0.062 A 
HETATM   17  I   UNK N   1      35.785  12.189   2.187  0.00  0.00    -0.044 I 
HETATM   18  C   UNK N   1      33.446  15.716   3.277  0.00  0.00     0.144 A 
HETATM   19  F   UNK N   1      32.633  16.575   2.614  0.00  0.00    -0.204 F 
ENDBRANCH  10  12
ENDBRANCH   5  10
BRANCH   4  20
HETATM   20  C   UNK N   1      34.063  17.597   7.926  0.00  0.00     0.279 C 
HETATM   21  O   UNK N   1      34.745  18.516   7.504  0.00  0.00    -0.265 OA
HETATM   22  N   UNK N   1      34.694  16.634   8.646  0.00  0.00    -0.231 N 
HETATM   23  H   UNK N   1      35.660  16.739   8.807  0.00  0.00     0.197 HD
BRANCH  22  24
HETATM   24  O   UNK N   1      34.088  15.549   9.149  0.00  0.00    -0.275 OA
BRANCH  24  25
HETATM   25  C   UNK N   1      34.596  15.438  10.449  0.00  0.00     0.227 C 
BRANCH  25  26
HETATM   26  C   UNK N   1      35.522  16.605  10.765  0.00  0.00     0.192 C 
BRANCH  26  27
HETATM   27  O   UNK N   1      36.839  16.153  10.828  0.00  0.00    -0.399 OA
HETATM   28  H   UNK N   1      37.211  15.487  11.427  0.00  0.00     0.209 HD
ENDBRANCH  26  27
ENDBRANCH  25  26
ENDBRANCH  24  25
ENDBRANCH  22  24
ENDBRANCH   4  20
TORSDOF 7
ENDMDL
MODEL 2
REMARK VINA RESULT:      -6.4      9.264     12.088
REMARK  7 active torsions:
REMARK  status: ('A' for Active; 'I' for Inactive)
REMARK    1  A    between atoms: C_4  and  C_19 
REMARK    2  A    between atoms: C_5  and  N_10 
REMARK    3  A    between atoms: N_10  and  C_11 
REMARK       I    between atoms: C_19  and  N_21 
REMARK    4  A    between atoms: N_21  and  O_22 
REMARK    5  A    between atoms: O_22  and  C_23 
REMARK    6  A    between atoms: C_23  and  C_24 
REMARK    7  A    between atoms: C_24  and  O_25 
ROOT
HETATM    1  C   UNK N   1      21.479  12.388  11.215  0.00  0.00     0.054 C 
HETATM    2  C   UNK N   1      21.878  13.061   9.945  0.00  0.00     0.007 A 
HETATM    3  C   UNK N   1      20.946  13.818   9.260  0.00  0.00     0.033 A 
HETATM    4  C   UNK N   1      21.271  14.461   8.065  0.00  0.00     0.079 A 
HETATM    5  C   UNK N   1      22.599  14.330   7.553  0.00  0.00     0.126 A 
HETATM    6  N   UNK N   1      23.522  13.567   8.255  0.00  0.00    -0.303 N 
HETATM    7  C   UNK N   1      23.169  12.937   9.435  0.00  0.00     0.254 A 
HETATM    8  O   UNK N   1      23.991  12.266  10.044  0.00  0.00    -0.267 OA
HETATM    9  C   UNK N   1      24.890  13.383   7.811  0.00  0.00     0.161 C 
ENDROOT
BRANCH   5  10
HETATM   10  N   UNK N   1      22.890  15.022   6.321  0.00  0.00    -0.339 N 
HETATM   11  H   UNK N   1      22.361  14.620   5.595  0.00  0.00     0.167 HD
BRANCH  10  12
HETATM   12  C   UNK N   1      23.678  16.089   5.787  0.00  0.00     0.072 A 
HETATM   13  C   UNK N   1      25.073  16.065   5.711  0.00  0.00     0.034 A 
HETATM   14  C   UNK N   1      25.785  17.141   5.175  0.00  0.00     0.020 A 
HETATM   15  C   UNK N   1      25.102  18.262   4.705  0.00  0.00     0.009 A 
HETATM   16  C   UNK N   1      23.709  18.304   4.771  0.00  0.00     0.062 A 
HETATM   17  I   UNK N   1      26.169  19.882   3.896  0.00  0.00    -0.044 I 
HETATM   18  C   UNK N   1      22.999  17.226   5.308  0.00  0.00     0.144 A 
HETATM   19  F   UNK N   1      21.646  17.286   5.363  0.00  0.00    -0.204 F 
ENDBRANCH  10  12
ENDBRANCH   5  10
BRANCH   4  20
HETATM   20  C   UNK N   1      20.212  15.268   7.346  0.00  0.00     0.279 C 
HETATM   21  O   UNK N   1      19.663  14.799   6.363  0.00  0.00    -0.265 OA
HETATM   22  N   UNK N   1      19.827  16.510   7.739  0.00  0.00    -0.231 N 
HETATM   23  H   UNK N   1      19.113  16.954   7.225  0.00  0.00     0.197 HD
BRANCH  22  24
HETATM   24  O   UNK N   1      20.356  17.171   8.778  0.00  0.00    -0.275 OA
BRANCH  24  25
HETATM   25  C   UNK N   1      19.351  18.061   9.174  0.00  0.00     0.227 C 
BRANCH  25  26
HETATM   26  C   UNK N   1      18.073  17.309   9.520  0.00  0.00     0.192 C 
BRANCH  26  27
HETATM   27  O   UNK N   1      17.039  17.736   8.688  0.00  0.00    -0.399 OA
HETATM   28  H   UNK N   1      16.675  17.283   7.912  0.00  0.00     0.209 HD
ENDBRANCH  26  27
ENDBRANCH  25  26
ENDBRANCH  24  25
ENDBRANCH  22  24
ENDBRANCH   4  20
TORSDOF 7
ENDMDL
MODEL 3
REMARK VINA RESULT:      -6.4      2.420      3.632
REMARK  7 active torsions:
REMARK  status: ('A' for Active; 'I' for Inactive)
REMARK    1  A    between atoms: C_4  and  C_19 
REMARK    2  A    between atoms: C_5  and  N_10 
REMARK    3  A    between atoms: N_10  and  C_11 
REMARK       I    between atoms: C_19  and  N_21 
REMARK    4  A    between atoms: N_21  and  O_22 
REMARK    5  A    between atoms: O_22  and  C_23 
REMARK    6  A    between atoms: C_23  and  C_24 
REMARK    7  A    between atoms: C_24  and  O_25 
ROOT
HETATM    1  C   UNK N   1      26.786  21.208   6.472  0.00  0.00     0.054 C 
HETATM    2  C   UNK N   1      27.580  19.947   6.402  0.00  0.00     0.007 A 
HETATM    3  C   UNK N   1      28.143  19.437   7.558  0.00  0.00     0.033 A 
HETATM    4  C   UNK N   1      28.898  18.264   7.540  0.00  0.00     0.079 A 
HETATM    5  C   UNK N   1      29.080  17.582   6.297  0.00  0.00     0.126 A 
HETATM    6  N   UNK N   1      28.506  18.108   5.147  0.00  0.00    -0.303 N 
HETATM    7  C   UNK N   1      27.766  19.276   5.195  0.00  0.00     0.254 A 
HETATM    8  O   UNK N   1      27.267  19.730   4.174  0.00  0.00    -0.267 OA
HETATM    9  C   UNK N   1      28.637  17.481   3.846  0.00  0.00     0.161 C 
ENDROOT
BRANCH   5  10
HETATM   10  N   UNK N   1      29.858  16.369   6.331  0.00  0.00    -0.339 N 
HETATM   11  H   UNK N   1      29.584  15.834   7.111  0.00  0.00     0.167 HD
BRANCH  10  12
HETATM   12  C   UNK N   1      30.887  15.669   5.626  0.00  0.00     0.072 A 
HETATM   13  C   UNK N   1      30.928  14.280   5.484  0.00  0.00     0.034 A 
HETATM   14  C   UNK N   1      31.962  13.657   4.781  0.00  0.00     0.020 A 
HETATM   15  C   UNK N   1      32.974  14.425   4.207  0.00  0.00     0.009 A 
HETATM   16  C   UNK N   1      32.951  15.813   4.337  0.00  0.00     0.062 A 
HETATM   17  I   UNK N   1      34.530  13.491   3.146  0.00  0.00    -0.044 I 
HETATM   18  C   UNK N   1      31.915  16.434   5.042  0.00  0.00     0.144 A 
HETATM   19  F   UNK N   1      31.910  17.785   5.157  0.00  0.00    -0.204 F 
ENDBRANCH  10  12
ENDBRANCH   5  10
BRANCH   4  20
HETATM   20  C   UNK N   1      29.504  17.753   8.829  0.00  0.00     0.279 C 
HETATM   21  O   UNK N   1      28.778  17.284   9.690  0.00  0.00    -0.265 OA
HETATM   22  N   UNK N   1      30.836  17.785   9.090  0.00  0.00    -0.231 N 
HETATM   23  H   UNK N   1      31.146  17.410   9.946  0.00  0.00     0.197 HD
BRANCH  22  24
HETATM   24  O   UNK N   1      31.756  18.296   8.259  0.00  0.00    -0.275 OA
BRANCH  24  25
HETATM   25  C   UNK N   1      32.881  17.484   8.442  0.00  0.00     0.227 C 
BRANCH  25  26
HETATM   26  C   UNK N   1      34.155  18.249   8.109  0.00  0.00     0.192 C 
BRANCH  26  27
HETATM   27  O   UNK N   1      34.562  17.938   6.812  0.00  0.00    -0.399 OA
HETATM   28  H   UNK N   1      35.146  17.216   6.530  0.00  0.00     0.209 HD
ENDBRANCH  26  27
ENDBRANCH  25  26
ENDBRANCH  24  25
ENDBRANCH  22  24
ENDBRANCH   4  20
TORSDOF 7
ENDMDL
MODEL 4
REMARK VINA RESULT:      -6.3     10.269     12.322
REMARK  7 active torsions:
REMARK  status: ('A' for Active; 'I' for Inactive)
REMARK    1  A    between atoms: C_4  and  C_19 
REMARK    2  A    between atoms: C_5  and  N_10 
REMARK    3  A    between atoms: N_10  and  C_11 
REMARK       I    between atoms: C_19  and  N_21 
REMARK    4  A    between atoms: N_21  and  O_22 
REMARK    5  A    between atoms: O_22  and  C_23 
REMARK    6  A    between atoms: C_23  and  C_24 
REMARK    7  A    between atoms: C_24  and  O_25 
ROOT
HETATM    1  C   UNK N   1      20.487  12.128  11.718  0.00  0.00     0.054 C 
HETATM    2  C   UNK N   1      21.230  12.747  10.582  0.00  0.00     0.007 A 
HETATM    3  C   UNK N   1      20.534  13.478   9.637  0.00  0.00     0.033 A 
HETATM    4  C   UNK N   1      21.186  14.071   8.555  0.00  0.00     0.079 A 
HETATM    5  C   UNK N   1      22.602  13.915   8.436  0.00  0.00     0.126 A 
HETATM    6  N   UNK N   1      23.284  13.179   9.395  0.00  0.00    -0.303 N 
HETATM    7  C   UNK N   1      22.610  12.599  10.455  0.00  0.00     0.254 A 
HETATM    8  O   UNK N   1      23.223  11.950  11.293  0.00  0.00    -0.267 OA
HETATM    9  C   UNK N   1      24.719  12.973   9.354  0.00  0.00     0.161 C 
ENDROOT
BRANCH   5  10
HETATM   10  N   UNK N   1      23.232  14.555   7.307  0.00  0.00    -0.339 N 
HETATM   11  H   UNK N   1      23.777  15.309   7.629  0.00  0.00     0.167 HD
BRANCH  10  12
HETATM   12  C   UNK N   1      23.342  14.475   5.884  0.00  0.00     0.072 A 
HETATM   13  C   UNK N   1      23.085  15.544   5.021  0.00  0.00     0.034 A 
HETATM   14  C   UNK N   1      23.213  15.401   3.638  0.00  0.00     0.020 A 
HETATM   15  C   UNK N   1      23.605  14.177   3.098  0.00  0.00     0.009 A 
HETATM   16  C   UNK N   1      23.867  13.098   3.942  0.00  0.00     0.062 A 
HETATM   17  I   UNK N   1      23.801  13.959   1.016  0.00  0.00    -0.044 I 
HETATM   18  C   UNK N   1      23.738  13.244   5.327  0.00  0.00     0.144 A 
HETATM   19  F   UNK N   1      23.998  12.184   6.131  0.00  0.00    -0.204 F 
ENDBRANCH  10  12
ENDBRANCH   5  10
BRANCH   4  20
HETATM   20  C   UNK N   1      20.379  14.851   7.541  0.00  0.00     0.279 C 
HETATM   21  O   UNK N   1      19.980  14.292   6.532  0.00  0.00    -0.265 OA
HETATM   22  N   UNK N   1      20.063  16.163   7.690  0.00  0.00    -0.231 N 
HETATM   23  H   UNK N   1      19.513  16.587   6.991  0.00  0.00     0.197 HD
BRANCH  22  24
HETATM   24  O   UNK N   1      20.452  16.920   8.726  0.00  0.00    -0.275 OA
BRANCH  24  25
HETATM   25  C   UNK N   1      19.379  17.793   8.943  0.00  0.00     0.227 C 
BRANCH  25  26
HETATM   26  C   UNK N   1      18.133  17.019   9.352  0.00  0.00     0.192 C 
BRANCH  26  27
HETATM   27  O   UNK N   1      17.315  16.827   8.239  0.00  0.00    -0.399 OA
HETATM   28  H   UNK N   1      16.493  16.315   8.187  0.00  0.00     0.209 HD
ENDBRANCH  26  27
ENDBRANCH  25  26
ENDBRANCH  24  25
ENDBRANCH  22  24
ENDBRANCH   4  20
TORSDOF 7
ENDMDL
MODEL 5
REMARK VINA RESULT:      -6.3      7.422     10.456
REMARK  7 active torsions:
REMARK  status: ('A' for Active; 'I' for Inactive)
REMARK    1  A    between atoms: C_4  and  C_19 
REMARK    2  A    between atoms: C_5  and  N_10 
REMARK    3  A    between atoms: N_10  and  C_11 
REMARK       I    between atoms: C_19  and  N_21 
REMARK    4  A    between atoms: N_21  and  O_22 
REMARK    5  A    between atoms: O_22  and  C_23 
REMARK    6  A    between atoms: C_23  and  C_24 
REMARK    7  A    between atoms: C_24  and  O_25 
ROOT
HETATM    1  C   UNK N   1      19.775  19.496   2.691  0.00  0.00     0.054 C 
HETATM    2  C   UNK N   1      21.104  19.168   3.282  0.00  0.00     0.007 A 
HETATM    3  C   UNK N   1      21.226  18.059   4.100  0.00  0.00     0.033 A 
HETATM    4  C   UNK N   1      22.448  17.715   4.679  0.00  0.00     0.079 A 
HETATM    5  C   UNK N   1      23.590  18.531   4.409  0.00  0.00     0.126 A 
HETATM    6  N   UNK N   1      23.450  19.639   3.584  0.00  0.00    -0.303 N 
HETATM    7  C   UNK N   1      22.224  19.957   3.028  0.00  0.00     0.254 A 
HETATM    8  O   UNK N   1      22.113  20.938   2.304  0.00  0.00    -0.267 OA
HETATM    9  C   UNK N   1      24.555  20.519   3.255  0.00  0.00     0.161 C 
ENDROOT
BRANCH   5  10
HETATM   10  N   UNK N   1      24.833  18.129   5.021  0.00  0.00    -0.339 N 
HETATM   11  H   UNK N   1      24.711  18.089   5.997  0.00  0.00     0.167 HD
BRANCH  10  12
HETATM   12  C   UNK N   1      26.179  17.766   4.705  0.00  0.00     0.072 A 
HETATM   13  C   UNK N   1      27.302  18.319   5.327  0.00  0.00     0.034 A 
HETATM   14  C   UNK N   1      28.592  17.919   4.973  0.00  0.00     0.020 A 
HETATM   15  C   UNK N   1      28.775  16.953   3.985  0.00  0.00     0.009 A 
HETATM   16  C   UNK N   1      27.668  16.389   3.353  0.00  0.00     0.062 A 
HETATM   17  I   UNK N   1      30.717  16.347   3.452  0.00  0.00    -0.044 I 
HETATM   18  C   UNK N   1      26.377  16.790   3.709  0.00  0.00     0.144 A 
HETATM   19  F   UNK N   1      25.313  16.230   3.083  0.00  0.00    -0.204 F 
ENDBRANCH  10  12
ENDBRANCH   5  10
BRANCH   4  20
HETATM   20  C   UNK N   1      22.526  16.499   5.576  0.00  0.00     0.279 C 
HETATM   21  O   UNK N   1      23.162  15.524   5.212  0.00  0.00    -0.265 OA
HETATM   22  N   UNK N   1      21.921  16.429   6.790  0.00  0.00    -0.231 N 
HETATM   23  H   UNK N   1      22.044  15.607   7.318  0.00  0.00     0.197 HD
BRANCH  22  24
HETATM   24  O   UNK N   1      21.165  17.404   7.314  0.00  0.00    -0.275 OA
BRANCH  24  25
HETATM   25  C   UNK N   1      20.386  16.760   8.282  0.00  0.00     0.227 C 
BRANCH  25  26
HETATM   26  C   UNK N   1      19.388  17.729   8.901  0.00  0.00     0.192 C 
BRANCH  26  27
HETATM   27  O   UNK N   1      19.893  19.027   8.833  0.00  0.00    -0.399 OA
HETATM   28  H   UNK N   1      20.757  19.311   8.498  0.00  0.00     0.209 HD
ENDBRANCH  26  27
ENDBRANCH  25  26
ENDBRANCH  24  25
ENDBRANCH  22  24
ENDBRANCH   4  20
TORSDOF 7
ENDMDL
MODEL 6
REMARK VINA RESULT:      -6.3     14.112     16.396
REMARK  7 active torsions:
REMARK  status: ('A' for Active; 'I' for Inactive)
REMARK    1  A    between atoms: C_4  and  C_19 
REMARK    2  A    between atoms: C_5  and  N_10 
REMARK    3  A    between atoms: N_10  and  C_11 
REMARK       I    between atoms: C_19  and  N_21 
REMARK    4  A    between atoms: N_21  and  O_22 
REMARK    5  A    between atoms: O_22  and  C_23 
REMARK    6  A    between atoms: C_23  and  C_24 
REMARK    7  A    between atoms: C_24  and  O_25 
ROOT
HETATM    1  C   UNK N   1      25.141  21.443  -7.764  0.00  0.00     0.054 C 
HETATM    2  C   UNK N   1      25.590  22.784  -7.289  0.00  0.00     0.007 A 
HETATM    3  C   UNK N   1      26.027  22.928  -5.985  0.00  0.00     0.033 A 
HETATM    4  C   UNK N   1      26.452  24.164  -5.496  0.00  0.00     0.079 A 
HETATM    5  C   UNK N   1      26.434  25.293  -6.372  0.00  0.00     0.126 A 
HETATM    6  N   UNK N   1      25.994  25.129  -7.678  0.00  0.00    -0.303 N 
HETATM    7  C   UNK N   1      25.575  23.892  -8.134  0.00  0.00     0.254 A 
HETATM    8  O   UNK N   1      25.186  23.761  -9.287  0.00  0.00    -0.267 OA
HETATM    9  C   UNK N   1      25.946  26.218  -8.634  0.00  0.00     0.161 C 
ENDROOT
BRANCH   5  10
HETATM   10  N   UNK N   1      26.893  26.546  -5.823  0.00  0.00    -0.339 N 
HETATM   11  H   UNK N   1      26.249  27.253  -6.056  0.00  0.00     0.167 HD
BRANCH  10  12
HETATM   12  C   UNK N   1      27.955  27.119  -5.057  0.00  0.00     0.072 A 
HETATM   13  C   UNK N   1      29.310  26.901  -5.318  0.00  0.00     0.034 A 
HETATM   14  C   UNK N   1      30.301  27.492  -4.532  0.00  0.00     0.020 A 
HETATM   15  C   UNK N   1      29.943  28.317  -3.466  0.00  0.00     0.009 A 
HETATM   16  C   UNK N   1      28.596  28.549  -3.190  0.00  0.00     0.062 A 
HETATM   17  I   UNK N   1      31.432  29.212  -2.282  0.00  0.00    -0.044 I 
HETATM   18  C   UNK N   1      27.606  27.955  -3.979  0.00  0.00     0.144 A 
HETATM   19  F   UNK N   1      26.303  28.192  -3.694  0.00  0.00    -0.204 F 
ENDBRANCH  10  12
ENDBRANCH   5  10
BRANCH   4  20
HETATM   20  C   UNK N   1      26.909  24.273  -4.058  0.00  0.00     0.279 C 
HETATM   21  O   UNK N   1      26.161  24.756  -3.224  0.00  0.00    -0.265 OA
HETATM   22  N   UNK N   1      28.129  23.855  -3.630  0.00  0.00    -0.231 N 
HETATM   23  H   UNK N   1      28.334  23.944  -2.671  0.00  0.00     0.197 HD
BRANCH  22  24
HETATM   24  O   UNK N   1      29.070  23.332  -4.428  0.00  0.00    -0.275 OA
BRANCH  24  25
HETATM   25  C   UNK N   1      30.277  23.627  -3.784  0.00  0.00     0.227 C 
BRANCH  25  26
HETATM   26  C   UNK N   1      30.610  22.558  -2.752  0.00  0.00     0.192 C 
BRANCH  26  27
HETATM   27  O   UNK N   1      30.346  23.043  -1.472  0.00  0.00    -0.399 OA
HETATM   28  H   UNK N   1      30.890  23.643  -0.940  0.00  0.00     0.209 HD
ENDBRANCH  26  27
ENDBRANCH  25  26
ENDBRANCH  24  25
ENDBRANCH  22  24
ENDBRANCH   4  20
TORSDOF 7
ENDMDL
MODEL 7
REMARK VINA RESULT:      -6.2     10.062     11.245
REMARK  7 active torsions:
REMARK  status: ('A' for Active; 'I' for Inactive)
REMARK    1  A    between atoms: C_4  and  C_19 
REMARK    2  A    between atoms: C_5  and  N_10 
REMARK    3  A    between atoms: N_10  and  C_11 
REMARK       I    between atoms: C_19  and  N_21 
REMARK    4  A    between atoms: N_21  and  O_22 
REMARK    5  A    between atoms: O_22  and  C_23 
REMARK    6  A    between atoms: C_23  and  C_24 
REMARK    7  A    between atoms: C_24  and  O_25 
ROOT
HETATM    1  C   UNK N   1      19.142  17.760   9.142  0.00  0.00     0.054 C 
HETATM    2  C   UNK N   1      20.091  17.001   8.276  0.00  0.00     0.007 A 
HETATM    3  C   UNK N   1      20.194  15.631   8.425  0.00  0.00     0.033 A 
HETATM    4  C   UNK N   1      21.071  14.880   7.641  0.00  0.00     0.079 A 
HETATM    5  C   UNK N   1      21.868  15.553   6.664  0.00  0.00     0.126 A 
HETATM    6  N   UNK N   1      21.750  16.930   6.527  0.00  0.00    -0.303 N 
HETATM    7  C   UNK N   1      20.875  17.648   7.322  0.00  0.00     0.254 A 
HETATM    8  O   UNK N   1      20.781  18.861   7.192  0.00  0.00    -0.267 OA
HETATM    9  C   UNK N   1      22.517  17.692   5.561  0.00  0.00     0.161 C 
ENDROOT
BRANCH   5  10
HETATM   10  N   UNK N   1      22.751  14.734   5.871  0.00  0.00    -0.339 N 
HETATM   11  H   UNK N   1      23.537  14.492   6.413  0.00  0.00     0.167 HD
BRANCH  10  12
HETATM   12  C   UNK N   1      22.882  14.147   4.574  0.00  0.00     0.072 A 
HETATM   13  C   UNK N   1      22.042  13.143   4.084  0.00  0.00     0.034 A 
HETATM   14  C   UNK N   1      22.222  12.612   2.805  0.00  0.00     0.020 A 
HETATM   15  C   UNK N   1      23.254  13.084   1.995  0.00  0.00     0.009 A 
HETATM   16  C   UNK N   1      24.103  14.086   2.465  0.00  0.00     0.062 A 
HETATM   17  I   UNK N   1      23.527  12.289   0.068  0.00  0.00    -0.044 I 
HETATM   18  C   UNK N   1      23.920  14.616   3.746  0.00  0.00     0.144 A 
HETATM   19  F   UNK N   1      24.755  15.589   4.185  0.00  0.00    -0.204 F 
ENDBRANCH  10  12
ENDBRANCH   5  10
BRANCH   4  20
HETATM   20  C   UNK N   1      21.157  13.384   7.852  0.00  0.00     0.279 C 
HETATM   21  O   UNK N   1      20.583  12.634   7.080  0.00  0.00    -0.265 OA
HETATM   22  N   UNK N   1      21.853  12.814   8.869  0.00  0.00    -0.231 N 
HETATM   23  H   UNK N   1      21.874  11.830   8.917  0.00  0.00     0.197 HD
BRANCH  22  24
HETATM   24  O   UNK N   1      22.510  13.502   9.814  0.00  0.00    -0.275 OA
BRANCH  24  25
HETATM   25  C   UNK N   1      22.994  12.521  10.687  0.00  0.00     0.227 C 
BRANCH  25  26
HETATM   26  C   UNK N   1      24.494  12.334  10.504  0.00  0.00     0.192 C 
BRANCH  26  27
HETATM   27  O   UNK N   1      25.125  12.367  11.747  0.00  0.00    -0.399 OA
HETATM   28  H   UNK N   1      26.053  12.169  11.947  0.00  0.00     0.209 HD
ENDBRANCH  26  27
ENDBRANCH  25  26
ENDBRANCH  24  25
ENDBRANCH  22  24
ENDBRANCH   4  20
TORSDOF 7
ENDMDL
MODEL 8
REMARK VINA RESULT:      -6.1      2.972      5.186
REMARK  7 active torsions:
REMARK  status: ('A' for Active; 'I' for Inactive)
REMARK    1  A    between atoms: C_4  and  C_19 
REMARK    2  A    between atoms: C_5  and  N_10 
REMARK    3  A    between atoms: N_10  and  C_11 
REMARK       I    between atoms: C_19  and  N_21 
REMARK    4  A    between atoms: N_21  and  O_22 
REMARK    5  A    between atoms: O_22  and  C_23 
REMARK    6  A    between atoms: C_23  and  C_24 
REMARK    7  A    between atoms: C_24  and  O_25 
ROOT
HETATM    1  C   UNK N   1      28.567  17.298   4.981  0.00  0.00     0.054 C 
HETATM    2  C   UNK N   1      29.635  17.256   6.022  0.00  0.00     0.007 A 
HETATM    3  C   UNK N   1      30.959  17.184   5.630  0.00  0.00     0.033 A 
HETATM    4  C   UNK N   1      31.991  17.138   6.567  0.00  0.00     0.079 A 
HETATM    5  C   UNK N   1      31.659  17.172   7.958  0.00  0.00     0.126 A 
HETATM    6  N   UNK N   1      30.325  17.246   8.333  0.00  0.00    -0.303 N 
HETATM    7  C   UNK N   1      29.323  17.285   7.380  0.00  0.00     0.254 A 
HETATM    8  O   UNK N   1      28.150  17.349   7.724  0.00  0.00    -0.267 OA
HETATM    9  C   UNK N   1      29.899  17.287   9.718  0.00  0.00     0.161 C 
ENDROOT
BRANCH   5  10
HETATM   10  N   UNK N   1      32.761  17.133   8.888  0.00  0.00    -0.339 N 
HETATM   11  H   UNK N   1      32.879  18.026   9.283  0.00  0.00     0.167 HD
BRANCH  10  12
HETATM   12  C   UNK N   1      33.741  16.248   9.438  0.00  0.00     0.072 A 
HETATM   13  C   UNK N   1      34.976  16.668   9.939  0.00  0.00     0.034 A 
HETATM   14  C   UNK N   1      35.890  15.752  10.465  0.00  0.00     0.020 A 
HETATM   15  C   UNK N   1      35.574  14.394  10.497  0.00  0.00     0.009 A 
HETATM   16  C   UNK N   1      34.346  13.955  10.002  0.00  0.00     0.062 A 
HETATM   17  I   UNK N   1      36.946  13.013  11.291  0.00  0.00    -0.044 I 
HETATM   18  C   UNK N   1      33.433  14.874   9.476  0.00  0.00     0.144 A 
HETATM   19  F   UNK N   1      32.245  14.428   9.001  0.00  0.00    -0.204 F 
ENDBRANCH  10  12
ENDBRANCH   5  10
BRANCH   4  20
HETATM   20  C   UNK N   1      33.424  17.047   6.088  0.00  0.00     0.279 C 
HETATM   21  O   UNK N   1      34.131  18.041   6.116  0.00  0.00    -0.265 OA
HETATM   22  N   UNK N   1      33.982  15.900   5.622  0.00  0.00    -0.231 N 
HETATM   23  H   UNK N   1      34.929  15.926   5.352  0.00  0.00     0.197 HD
BRANCH  22  24
HETATM   24  O   UNK N   1      33.327  14.736   5.503  0.00  0.00    -0.275 OA
BRANCH  24  25
HETATM   25  C   UNK N   1      33.578  14.328   4.187  0.00  0.00     0.227 C 
BRANCH  25  26
HETATM   26  C   UNK N   1      32.701  15.099   3.210  0.00  0.00     0.192 C 
BRANCH  26  27
HETATM   27  O   UNK N   1      33.484  16.001   2.490  0.00  0.00    -0.399 OA
HETATM   28  H   UNK N   1      33.292  16.932   2.297  0.00  0.00     0.209 HD
ENDBRANCH  26  27
ENDBRANCH  25  26
ENDBRANCH  24  25
ENDBRANCH  22  24
ENDBRANCH   4  20
TORSDOF 7
ENDMDL
MODEL 9
REMARK VINA RESULT:      -6.1      3.584      5.707
REMARK  7 active torsions:
REMARK  status: ('A' for Active; 'I' for Inactive)
REMARK    1  A    between atoms: C_4  and  C_19 
REMARK    2  A    between atoms: C_5  and  N_10 
REMARK    3  A    between atoms: N_10  and  C_11 
REMARK       I    between atoms: C_19  and  N_21 
REMARK    4  A    between atoms: N_21  and  O_22 
REMARK    5  A    between atoms: O_22  and  C_23 
REMARK    6  A    between atoms: C_23  and  C_24 
REMARK    7  A    between atoms: C_24  and  O_25 
ROOT
HETATM    1  C   UNK N   1      35.714  14.178   4.915  0.00  0.00     0.054 C 
HETATM    2  C   UNK N   1      34.380  14.669   5.369  0.00  0.00     0.007 A 
HETATM    3  C   UNK N   1      34.309  15.532   6.447  0.00  0.00     0.033 A 
HETATM    4  C   UNK N   1      33.084  16.013   6.911  0.00  0.00     0.079 A 
HETATM    5  C   UNK N   1      31.887  15.602   6.245  0.00  0.00     0.126 A 
HETATM    6  N   UNK N   1      31.978  14.736   5.163  0.00  0.00    -0.303 N 
HETATM    7  C   UNK N   1      33.207  14.272   4.730  0.00  0.00     0.254 A 
HETATM    8  O   UNK N   1      33.275  13.508   3.776  0.00  0.00    -0.267 OA
HETATM    9  C   UNK N   1      30.818  14.271   4.429  0.00  0.00     0.161 C 
ENDROOT
BRANCH   5  10
HETATM   10  N   UNK N   1      30.647  16.134   6.754  0.00  0.00    -0.339 N 
HETATM   11  H   UNK N   1      30.302  15.532   7.452  0.00  0.00     0.167 HD
BRANCH  10  12
HETATM   12  C   UNK N   1      29.745  17.232   6.600  0.00  0.00     0.072 A 
HETATM   13  C   UNK N   1      29.267  17.681   5.365  0.00  0.00     0.034 A 
HETATM   14  C   UNK N   1      28.385  18.761   5.283  0.00  0.00     0.020 A 
HETATM   15  C   UNK N   1      27.966  19.407   6.445  0.00  0.00     0.009 A 
HETATM   16  C   UNK N   1      28.430  18.974   7.686  0.00  0.00     0.062 A 
HETATM   17  I   UNK N   1      26.635  21.031   6.324  0.00  0.00    -0.044 I 
HETATM   18  C   UNK N   1      29.313  17.893   7.766  0.00  0.00     0.144 A 
HETATM   19  F   UNK N   1      29.753  17.486   8.982  0.00  0.00    -0.204 F 
ENDBRANCH  10  12
ENDBRANCH   5  10
BRANCH   4  20
HETATM   20  C   UNK N   1      33.056  16.945   8.102  0.00  0.00     0.279 C 
HETATM   21  O   UNK N   1      32.857  18.136   7.929  0.00  0.00    -0.265 OA
HETATM   22  N   UNK N   1      33.242  16.526   9.381  0.00  0.00    -0.231 N 
HETATM   23  H   UNK N   1      33.185  17.199  10.098  0.00  0.00     0.197 HD
BRANCH  22  24
HETATM   24  O   UNK N   1      33.500  15.257   9.729  0.00  0.00    -0.275 OA
BRANCH  24  25
HETATM   25  C   UNK N   1      34.359  15.366  10.830  0.00  0.00     0.227 C 
BRANCH  25  26
HETATM   26  C   UNK N   1      35.718  15.900  10.400  0.00  0.00     0.192 C 
BRANCH  26  27
HETATM   27  O   UNK N   1      35.711  17.293  10.452  0.00  0.00    -0.399 OA
HETATM   28  H   UNK N   1      36.325  17.907  10.019  0.00  0.00     0.209 HD
ENDBRANCH  26  27
ENDBRANCH  25  26
ENDBRANCH  24  25
ENDBRANCH  22  24
ENDBRANCH   4  20
TORSDOF 7
ENDMDL
