MODEL 1
REMARK VINA RESULT:      -7.8      0.000      0.000
REMARK  7 active torsions:
REMARK  status: ('A' for Active; 'I' for Inactive)
REMARK    1  A    between atoms: C_19  and  C_18 
REMARK    2  A    between atoms: N_29  and  C_18 
REMARK    3  A    between atoms: O_31  and  C_19 
REMARK    4  A    between atoms: C_26  and  C_21 
REMARK    5  A    between atoms: C_28  and  C_22 
REMARK    6  A    between atoms: O_30  and  C_24 
REMARK    7  A    between atoms: O_31  and  C_25 
ROOT
HETATM    1  C   UNK N   1      34.673  12.119  16.437  0.00  0.00     0.040 C 
HETATM    2  C   UNK N   1      37.186  15.619  16.558  0.00  0.00     0.037 A 
HETATM    3  C   UNK N   1      34.721  11.333  15.125  0.00  0.00     0.015 C 
HETATM    4  C   UNK N   1      37.338  14.709  15.511  0.00  0.00     0.011 A 
HETATM    5  C   UNK N   1      35.441  14.238  17.506  0.00  0.00     0.044 A 
HETATM    6  C   UNK N   1      35.579  13.321  16.458  0.00  0.00    -0.048 A 
HETATM    7  C   UNK N   1      36.245  15.378  17.560  0.00  0.00     0.066 A 
HETATM    8  C   UNK N   1      36.161  11.171  14.652  0.00  0.00     0.032 C 
HETATM    9  C   UNK N   1      36.552  13.547  15.454  0.00  0.00    -0.043 A 
HETATM   10  C   UNK N   1      36.798  12.555  14.333  0.00  0.00     0.060 C 
ENDROOT
BRANCH  10  11
HETATM   11  C   UNK N   1      36.440  13.169  12.995  0.00  0.00    -0.049 A 
HETATM   12  C   UNK N   1      35.222  13.852  12.878  0.00  0.00     0.011 A 
HETATM   13  C   UNK N   1      34.850  14.438  11.675  0.00  0.00     0.037 A 
HETATM   14  C   UNK N   1      35.698  14.373  10.559  0.00  0.00     0.068 A 
HETATM   15  C   UNK N   1      36.916  13.686  10.665  0.00  0.00     0.037 A 
HETATM   16  C   UNK N   1      37.281  13.073  11.873  0.00  0.00     0.011 A 
BRANCH  14  17
HETATM   17  O   UNK N   1      35.359  14.967   9.389  0.00  0.00    -0.349 OA
BRANCH  17  18
HETATM   18  C   UNK N   1      34.206  15.717   9.256  0.00  0.00     0.206 C 
BRANCH  18  19
HETATM   19  C   UNK N   1      34.521  17.171   8.915  0.00  0.00     0.299 C 
BRANCH  19  20
HETATM   20  N   UNK N   1      33.476  17.790   8.109  0.00  0.00     0.090 N 
HETATM   21  C   UNK N   1      33.794  17.520   6.716  0.00  0.00     0.272 C 
HETATM   22  C   UNK N   1      32.490  17.278   5.981  0.00  0.00     0.032 C 
HETATM   23  C   UNK N   1      31.430  17.216   7.054  0.00  0.00     0.032 C 
HETATM   24  C   UNK N   1      32.210  17.112   8.344  0.00  0.00     0.272 C 
ENDBRANCH  19  20
ENDBRANCH  18  19
ENDBRANCH  17  18
ENDBRANCH  14  17
ENDBRANCH  10  11
BRANCH   8  25
HETATM   25  C   UNK N   1      36.246  10.150  13.537  0.00  0.00    -0.053 A 
HETATM   26  C   UNK N   1      37.490   9.607  13.182  0.00  0.00     0.007 A 
HETATM   27  C   UNK N   1      37.578   8.634  12.183  0.00  0.00     0.001 A 
HETATM   28  C   UNK N   1      36.422   8.183  11.542  0.00  0.00     0.000 A 
HETATM   29  C   UNK N   1      35.176   8.708  11.895  0.00  0.00     0.001 A 
HETATM   30  C   UNK N   1      35.089   9.690  12.886  0.00  0.00     0.007 A 
ENDBRANCH   8  25
BRANCH   7  31
HETATM   31  O   UNK N   1      36.112  16.246  18.576  0.00  0.00    -0.361 OA
HETATM   32  H   UNK N   1      36.209  17.168  18.436  0.00  0.00     0.217 HD
ENDBRANCH   7  31
TORSDOF 7
ENDMDL
MODEL 2
REMARK VINA RESULT:      -7.7     12.262     16.516
REMARK  7 active torsions:
REMARK  status: ('A' for Active; 'I' for Inactive)
REMARK    1  A    between atoms: C_19  and  C_18 
REMARK    2  A    between atoms: N_29  and  C_18 
REMARK    3  A    between atoms: O_31  and  C_19 
REMARK    4  A    between atoms: C_26  and  C_21 
REMARK    5  A    between atoms: C_28  and  C_22 
REMARK    6  A    between atoms: O_30  and  C_24 
REMARK    7  A    between atoms: O_31  and  C_25 
ROOT
HETATM    1  C   UNK N   1      24.328  19.367   4.047  0.00  0.00     0.040 C 
HETATM    2  C   UNK N   1      20.397  19.482   2.284  0.00  0.00     0.037 A 
HETATM    3  C   UNK N   1      24.640  18.102   4.850  0.00  0.00     0.015 C 
HETATM    4  C   UNK N   1      20.863  18.284   2.826  0.00  0.00     0.011 A 
HETATM    5  C   UNK N   1      22.481  20.560   2.870  0.00  0.00     0.044 A 
HETATM    6  C   UNK N   1      22.959  19.367   3.424  0.00  0.00    -0.048 A 
HETATM    7  C   UNK N   1      21.209  20.616   2.297  0.00  0.00     0.066 A 
HETATM    8  C   UNK N   1      24.182  16.861   4.092  0.00  0.00     0.032 C 
HETATM    9  C   UNK N   1      22.148  18.206   3.388  0.00  0.00    -0.043 A 
HETATM   10  C   UNK N   1      22.638  16.867   3.905  0.00  0.00     0.060 C 
ENDROOT
BRANCH  10  11
HETATM   11  C   UNK N   1      21.813  16.428   5.098  0.00  0.00    -0.049 A 
HETATM   12  C   UNK N   1      21.141  15.200   5.029  0.00  0.00     0.011 A 
HETATM   13  C   UNK N   1      20.376  14.749   6.099  0.00  0.00     0.037 A 
HETATM   14  C   UNK N   1      20.280  15.507   7.275  0.00  0.00     0.068 A 
HETATM   15  C   UNK N   1      20.943  16.740   7.350  0.00  0.00     0.037 A 
HETATM   16  C   UNK N   1      21.696  17.208   6.261  0.00  0.00     0.011 A 
BRANCH  14  17
HETATM   17  O   UNK N   1      19.561  15.063   8.334  0.00  0.00    -0.349 OA
BRANCH  17  18
HETATM   18  C   UNK N   1      20.167  14.586   9.481  0.00  0.00     0.206 C 
BRANCH  18  19
HETATM   19  C   UNK N   1      21.176  13.486   9.165  0.00  0.00     0.299 C 
BRANCH  19  20
HETATM   20  N   UNK N   1      22.286  13.464  10.110  0.00  0.00     0.090 N 
HETATM   21  C   UNK N   1      22.044  12.362  11.028  0.00  0.00     0.272 C 
HETATM   22  C   UNK N   1      23.383  11.726  11.352  0.00  0.00     0.032 C 
HETATM   23  C   UNK N   1      24.373  12.380  10.419  0.00  0.00     0.032 C 
HETATM   24  C   UNK N   1      23.514  13.111   9.414  0.00  0.00     0.272 C 
ENDBRANCH  19  20
ENDBRANCH  18  19
ENDBRANCH  17  18
ENDBRANCH  14  17
ENDBRANCH  10  11
BRANCH   8  25
HETATM   25  C   UNK N   1      24.751  15.609   4.725  0.00  0.00    -0.053 A 
HETATM   26  C   UNK N   1      25.245  15.653   6.037  0.00  0.00     0.007 A 
HETATM   27  C   UNK N   1      25.736  14.495   6.648  0.00  0.00     0.001 A 
HETATM   28  C   UNK N   1      25.720  13.281   5.959  0.00  0.00     0.000 A 
HETATM   29  C   UNK N   1      25.220  13.222   4.655  0.00  0.00     0.001 A 
HETATM   30  C   UNK N   1      24.741  14.382   4.039  0.00  0.00     0.007 A 
ENDBRANCH   8  25
BRANCH   7  31
HETATM   31  O   UNK N   1      20.765  21.764   1.759  0.00  0.00    -0.361 OA
HETATM   32  H   UNK N   1      19.891  22.063   1.919  0.00  0.00     0.217 HD
ENDBRANCH   7  31
TORSDOF 7
ENDMDL
MODEL 3
REMARK VINA RESULT:      -7.5     18.384     22.793
REMARK  7 active torsions:
REMARK  status: ('A' for Active; 'I' for Inactive)
REMARK    1  A    between atoms: C_19  and  C_18 
REMARK    2  A    between atoms: N_29  and  C_18 
REMARK    3  A    between atoms: O_31  and  C_19 
REMARK    4  A    between atoms: C_26  and  C_21 
REMARK    5  A    between atoms: C_28  and  C_22 
REMARK    6  A    between atoms: O_30  and  C_24 
REMARK    7  A    between atoms: O_31  and  C_25 
ROOT
HETATM    1  C   UNK N   1      27.411  27.766  -7.049  0.00  0.00     0.040 C 
HETATM    2  C   UNK N   1      26.543  28.754  -2.944  0.00  0.00     0.037 A 
HETATM    3  C   UNK N   1      27.769  26.299  -7.299  0.00  0.00     0.015 C 
HETATM    4  C   UNK N   1      26.643  27.412  -3.313  0.00  0.00     0.011 A 
HETATM    5  C   UNK N   1      26.981  29.416  -5.229  0.00  0.00     0.044 A 
HETATM    6  C   UNK N   1      27.090  28.074  -5.611  0.00  0.00    -0.048 A 
HETATM    7  C   UNK N   1      26.703  29.754  -3.903  0.00  0.00     0.066 A 
HETATM    8  C   UNK N   1      26.810  25.380  -6.552  0.00  0.00     0.032 C 
HETATM    9  C   UNK N   1      26.901  27.055  -4.647  0.00  0.00    -0.043 A 
HETATM   10  C   UNK N   1      26.935  25.583  -5.014  0.00  0.00     0.060 C 
ENDROOT
BRANCH  10  11
HETATM   11  C   UNK N   1      28.103  24.896  -4.336  0.00  0.00    -0.049 A 
HETATM   12  C   UNK N   1      27.835  23.854  -3.438  0.00  0.00     0.011 A 
HETATM   13  C   UNK N   1      28.870  23.187  -2.795  0.00  0.00     0.037 A 
HETATM   14  C   UNK N   1      30.206  23.533  -3.049  0.00  0.00     0.068 A 
HETATM   15  C   UNK N   1      30.484  24.579  -3.941  0.00  0.00     0.037 A 
HETATM   16  C   UNK N   1      29.437  25.269  -4.573  0.00  0.00     0.011 A 
BRANCH  14  17
HETATM   17  O   UNK N   1      31.224  22.870  -2.451  0.00  0.00    -0.349 OA
BRANCH  17  18
HETATM   18  C   UNK N   1      31.617  21.609  -2.858  0.00  0.00     0.206 C 
BRANCH  18  19
HETATM   19  C   UNK N   1      32.826  21.673  -3.787  0.00  0.00     0.299 C 
BRANCH  19  20
HETATM   20  N   UNK N   1      32.644  20.868  -4.989  0.00  0.00     0.090 N 
HETATM   21  C   UNK N   1      31.356  20.204  -4.868  0.00  0.00     0.272 C 
HETATM   22  C   UNK N   1      30.725  20.162  -6.246  0.00  0.00     0.032 C 
HETATM   23  C   UNK N   1      31.614  21.013  -7.120  0.00  0.00     0.032 C 
HETATM   24  C   UNK N   1      32.511  21.739  -6.146  0.00  0.00     0.272 C 
ENDBRANCH  19  20
ENDBRANCH  18  19
ENDBRANCH  17  18
ENDBRANCH  14  17
ENDBRANCH  10  11
BRANCH   8  25
HETATM   25  C   UNK N   1      26.959  23.950  -7.027  0.00  0.00    -0.053 A 
HETATM   26  C   UNK N   1      25.876  23.065  -6.924  0.00  0.00     0.007 A 
HETATM   27  C   UNK N   1      25.987  21.754  -7.396  0.00  0.00     0.001 A 
HETATM   28  C   UNK N   1      27.174  21.323  -7.992  0.00  0.00     0.000 A 
HETATM   29  C   UNK N   1      28.256  22.199  -8.111  0.00  0.00     0.001 A 
HETATM   30  C   UNK N   1      28.150  23.507  -7.628  0.00  0.00     0.007 A 
ENDBRANCH   8  25
BRANCH   7  31
HETATM   31  O   UNK N   1      26.590  31.045  -3.549  0.00  0.00    -0.361 OA
HETATM   32  H   UNK N   1      27.319  31.510  -3.188  0.00  0.00     0.217 HD
ENDBRANCH   7  31
TORSDOF 7
ENDMDL
MODEL 4
REMARK VINA RESULT:      -7.3     12.144     15.474
REMARK  7 active torsions:
REMARK  status: ('A' for Active; 'I' for Inactive)
REMARK    1  A    between atoms: C_19  and  C_18 
REMARK    2  A    between atoms: N_29  and  C_18 
REMARK    3  A    between atoms: O_31  and  C_19 
REMARK    4  A    between atoms: C_26  and  C_21 
REMARK    5  A    between atoms: C_28  and  C_22 
REMARK    6  A    between atoms: O_30  and  C_24 
REMARK    7  A    between atoms: O_31  and  C_25 
ROOT
HETATM    1  C   UNK N   1      20.559  16.551   8.352  0.00  0.00     0.040 C 
HETATM    2  C   UNK N   1      21.769  12.415   8.362  0.00  0.00     0.037 A 
HETATM    3  C   UNK N   1      20.903  17.323   7.077  0.00  0.00     0.015 C 
HETATM    4  C   UNK N   1      21.819  13.134   7.167  0.00  0.00     0.011 A 
HETATM    5  C   UNK N   1      20.921  14.370   9.505  0.00  0.00     0.044 A 
HETATM    6  C   UNK N   1      20.972  15.105   8.315  0.00  0.00    -0.048 A 
HETATM    7  C   UNK N   1      21.311  13.029   9.527  0.00  0.00     0.066 A 
HETATM    8  C   UNK N   1      20.560  16.497   5.843  0.00  0.00     0.032 C 
HETATM    9  C   UNK N   1      21.410  14.477   7.124  0.00  0.00    -0.043 A 
HETATM   10  C   UNK N   1      21.418  15.200   5.790  0.00  0.00     0.060 C 
ENDROOT
BRANCH  10  11
HETATM   11  C   UNK N   1      22.837  15.351   5.280  0.00  0.00    -0.049 A 
HETATM   12  C   UNK N   1      23.779  15.981   6.104  0.00  0.00     0.011 A 
HETATM   13  C   UNK N   1      25.095  16.139   5.686  0.00  0.00     0.037 A 
HETATM   14  C   UNK N   1      25.508  15.652   4.437  0.00  0.00     0.068 A 
HETATM   15  C   UNK N   1      24.571  15.025   3.603  0.00  0.00     0.037 A 
HETATM   16  C   UNK N   1      23.236  14.887   4.015  0.00  0.00     0.011 A 
BRANCH  14  17
HETATM   17  O   UNK N   1      26.795  15.774   4.031  0.00  0.00    -0.349 OA
BRANCH  17  18
HETATM   18  C   UNK N   1      27.338  16.993   3.673  0.00  0.00     0.206 C 
BRANCH  18  19
HETATM   19  C   UNK N   1      28.372  17.465   4.691  0.00  0.00     0.299 C 
BRANCH  19  20
HETATM   20  N   UNK N   1      28.343  18.910   4.881  0.00  0.00     0.090 N 
HETATM   21  C   UNK N   1      27.344  19.442   3.966  0.00  0.00     0.272 C 
HETATM   22  C   UNK N   1      26.635  20.584   4.667  0.00  0.00     0.032 C 
HETATM   23  C   UNK N   1      27.128  20.548   6.093  0.00  0.00     0.032 C 
HETATM   24  C   UNK N   1      27.837  19.219   6.210  0.00  0.00     0.272 C 
ENDBRANCH  19  20
ENDBRANCH  18  19
ENDBRANCH  17  18
ENDBRANCH  14  17
ENDBRANCH  10  11
BRANCH   8  25
HETATM   25  C   UNK N   1      20.609  17.353   4.595  0.00  0.00    -0.053 A 
HETATM   26  C   UNK N   1      19.957  16.923   3.429  0.00  0.00     0.007 A 
HETATM   27  C   UNK N   1      19.960  17.723   2.282  0.00  0.00     0.001 A 
HETATM   28  C   UNK N   1      20.597  18.965   2.297  0.00  0.00     0.000 A 
HETATM   29  C   UNK N   1      21.240  19.408   3.455  0.00  0.00     0.001 A 
HETATM   30  C   UNK N   1      21.249  18.604   4.599  0.00  0.00     0.007 A 
ENDBRANCH   8  25
BRANCH   7  31
HETATM   31  O   UNK N   1      21.248  12.330  10.672  0.00  0.00    -0.361 OA
HETATM   32  H   UNK N   1      20.585  11.681  10.802  0.00  0.00     0.217 HD
ENDBRANCH   7  31
TORSDOF 7
ENDMDL
MODEL 5
REMARK VINA RESULT:      -7.3     11.482     14.807
REMARK  7 active torsions:
REMARK  status: ('A' for Active; 'I' for Inactive)
REMARK    1  A    between atoms: C_19  and  C_18 
REMARK    2  A    between atoms: N_29  and  C_18 
REMARK    3  A    between atoms: O_31  and  C_19 
REMARK    4  A    between atoms: C_26  and  C_21 
REMARK    5  A    between atoms: C_28  and  C_22 
REMARK    6  A    between atoms: O_30  and  C_24 
REMARK    7  A    between atoms: O_31  and  C_25 
ROOT
HETATM    1  C   UNK N   1      28.275  16.992   3.849  0.00  0.00     0.040 C 
HETATM    2  C   UNK N   1      25.861  20.311   5.165  0.00  0.00     0.037 A 
HETATM    3  C   UNK N   1      27.495  15.725   3.491  0.00  0.00     0.015 C 
HETATM    4  C   UNK N   1      25.237  19.202   4.591  0.00  0.00     0.011 A 
HETATM    5  C   UNK N   1      28.017  19.260   4.853  0.00  0.00     0.044 A 
HETATM    6  C   UNK N   1      27.404  18.140   4.281  0.00  0.00    -0.048 A 
HETATM    7  C   UNK N   1      27.250  20.343   5.287  0.00  0.00     0.066 A 
HETATM    8  C   UNK N   1      26.272  16.072   2.649  0.00  0.00     0.032 C 
HETATM    9  C   UNK N   1      25.996  18.114   4.130  0.00  0.00    -0.043 A 
HETATM   10  C   UNK N   1      25.280  16.960   3.453  0.00  0.00     0.060 C 
ENDROOT
BRANCH  10  11
HETATM   11  C   UNK N   1      24.382  16.243   4.441  0.00  0.00    -0.049 A 
HETATM   12  C   UNK N   1      23.007  16.191   4.176  0.00  0.00     0.011 A 
HETATM   13  C   UNK N   1      22.140  15.540   5.046  0.00  0.00     0.037 A 
HETATM   14  C   UNK N   1      22.631  14.907   6.197  0.00  0.00     0.068 A 
HETATM   15  C   UNK N   1      24.005  14.960   6.474  0.00  0.00     0.037 A 
HETATM   16  C   UNK N   1      24.877  15.638   5.608  0.00  0.00     0.011 A 
BRANCH  14  17
HETATM   17  O   UNK N   1      21.800  14.244   7.037  0.00  0.00    -0.349 OA
BRANCH  17  18
HETATM   18  C   UNK N   1      22.195  13.856   8.303  0.00  0.00     0.206 C 
BRANCH  18  19
HETATM   19  C   UNK N   1      21.703  12.450   8.636  0.00  0.00     0.299 C 
BRANCH  19  20
HETATM   20  N   UNK N   1      22.623  11.734   9.511  0.00  0.00     0.090 N 
HETATM   21  C   UNK N   1      23.953  12.268   9.262  0.00  0.00     0.272 C 
HETATM   22  C   UNK N   1      24.691  12.313  10.586  0.00  0.00     0.032 C 
HETATM   23  C   UNK N   1      23.656  11.976  11.633  0.00  0.00     0.032 C 
HETATM   24  C   UNK N   1      22.339  12.066  10.899  0.00  0.00     0.272 C 
ENDBRANCH  19  20
ENDBRANCH  18  19
ENDBRANCH  17  18
ENDBRANCH  14  17
ENDBRANCH  10  11
BRANCH   8  25
HETATM   25  C   UNK N   1      25.671  14.823   2.040  0.00  0.00    -0.053 A 
HETATM   26  C   UNK N   1      26.150  13.561   2.424  0.00  0.00     0.007 A 
HETATM   27  C   UNK N   1      25.577  12.398   1.901  0.00  0.00     0.001 A 
HETATM   28  C   UNK N   1      24.509  12.486   1.004  0.00  0.00     0.000 A 
HETATM   29  C   UNK N   1      24.017  13.737   0.624  0.00  0.00     0.001 A 
HETATM   30  C   UNK N   1      24.598  14.901   1.137  0.00  0.00     0.007 A 
ENDBRANCH   8  25
BRANCH   7  31
HETATM   31  O   UNK N   1      27.850  21.419   5.824  0.00  0.00    -0.361 OA
HETATM   32  H   UNK N   1      27.676  22.279   5.497  0.00  0.00     0.217 HD
ENDBRANCH   7  31
TORSDOF 7
ENDMDL
MODEL 6
REMARK VINA RESULT:      -7.2      8.508     13.237
REMARK  7 active torsions:
REMARK  status: ('A' for Active; 'I' for Inactive)
REMARK    1  A    between atoms: C_19  and  C_18 
REMARK    2  A    between atoms: N_29  and  C_18 
REMARK    3  A    between atoms: O_31  and  C_19 
REMARK    4  A    between atoms: C_26  and  C_21 
REMARK    5  A    between atoms: C_28  and  C_22 
REMARK    6  A    between atoms: O_30  and  C_24 
REMARK    7  A    between atoms: O_31  and  C_25 
ROOT
HETATM    1  C   UNK N   1      27.396  19.998   6.396  0.00  0.00     0.040 C 
HETATM    2  C   UNK N   1      24.944  18.971   3.003  0.00  0.00     0.037 A 
HETATM    3  C   UNK N   1      28.205  18.840   6.984  0.00  0.00     0.015 C 
HETATM    4  C   UNK N   1      25.894  18.055   3.457  0.00  0.00     0.011 A 
HETATM    5  C   UNK N   1      25.618  20.526   4.729  0.00  0.00     0.044 A 
HETATM    6  C   UNK N   1      26.569  19.614   5.199  0.00  0.00    -0.048 A 
HETATM    7  C   UNK N   1      24.813  20.209   3.633  0.00  0.00     0.066 A 
HETATM    8  C   UNK N   1      28.862  18.029   5.872  0.00  0.00     0.032 C 
HETATM    9  C   UNK N   1      26.725  18.367   4.545  0.00  0.00    -0.043 A 
HETATM   10  C   UNK N   1      27.787  17.368   4.961  0.00  0.00     0.060 C 
ENDROOT
BRANCH  10  11
HETATM   11  C   UNK N   1      27.144  16.101   5.489  0.00  0.00    -0.049 A 
HETATM   12  C   UNK N   1      26.306  16.194   6.607  0.00  0.00     0.011 A 
HETATM   13  C   UNK N   1      25.686  15.064   7.126  0.00  0.00     0.037 A 
HETATM   14  C   UNK N   1      25.875  13.810   6.526  0.00  0.00     0.068 A 
HETATM   15  C   UNK N   1      26.719  13.706   5.410  0.00  0.00     0.037 A 
HETATM   16  C   UNK N   1      27.363  14.844   4.900  0.00  0.00     0.011 A 
BRANCH  14  17
HETATM   17  O   UNK N   1      25.253  12.706   7.005  0.00  0.00    -0.349 OA
BRANCH  17  18
HETATM   18  C   UNK N   1      24.164  12.788   7.851  0.00  0.00     0.206 C 
BRANCH  18  19
HETATM   19  C   UNK N   1      24.559  12.515   9.300  0.00  0.00     0.299 C 
BRANCH  19  20
HETATM   20  N   UNK N   1      23.528  12.933  10.243  0.00  0.00     0.090 N 
HETATM   21  C   UNK N   1      22.538  13.686   9.488  0.00  0.00     0.272 C 
HETATM   22  C   UNK N   1      21.172  13.354  10.057  0.00  0.00     0.032 C 
HETATM   23  C   UNK N   1      21.406  12.223  11.029  0.00  0.00     0.032 C 
HETATM   24  C   UNK N   1      22.816  11.765  10.738  0.00  0.00     0.272 C 
ENDBRANCH  19  20
ENDBRANCH  18  19
ENDBRANCH  17  18
ENDBRANCH  14  17
ENDBRANCH  10  11
BRANCH   8  25
HETATM   25  C   UNK N   1      29.896  17.081   6.442  0.00  0.00    -0.053 A 
HETATM   26  C   UNK N   1      30.607  16.229   5.584  0.00  0.00     0.007 A 
HETATM   27  C   UNK N   1      31.594  15.378   6.090  0.00  0.00     0.001 A 
HETATM   28  C   UNK N   1      31.891  15.385   7.455  0.00  0.00     0.000 A 
HETATM   29  C   UNK N   1      31.197  16.237   8.317  0.00  0.00     0.001 A 
HETATM   30  C   UNK N   1      30.201  17.080   7.813  0.00  0.00     0.007 A 
ENDBRANCH   8  25
BRANCH   7  31
HETATM   31  O   UNK N   1      23.910  21.096   3.184  0.00  0.00    -0.361 OA
HETATM   32  H   UNK N   1      23.155  21.313   3.694  0.00  0.00     0.217 HD
ENDBRANCH   7  31
TORSDOF 7
ENDMDL
MODEL 7
REMARK VINA RESULT:      -7.1     21.162     23.672
REMARK  7 active torsions:
REMARK  status: ('A' for Active; 'I' for Inactive)
REMARK    1  A    between atoms: C_19  and  C_18 
REMARK    2  A    between atoms: N_29  and  C_18 
REMARK    3  A    between atoms: O_31  and  C_19 
REMARK    4  A    between atoms: C_26  and  C_21 
REMARK    5  A    between atoms: C_28  and  C_22 
REMARK    6  A    between atoms: O_30  and  C_24 
REMARK    7  A    between atoms: O_31  and  C_25 
ROOT
HETATM    1  C   UNK N   1      25.424  26.955  -7.175  0.00  0.00     0.040 C 
HETATM    2  C   UNK N   1      26.684  27.101  -3.056  0.00  0.00     0.037 A 
HETATM    3  C   UNK N   1      25.832  25.690  -7.933  0.00  0.00     0.015 C 
HETATM    4  C   UNK N   1      26.794  25.900  -3.758  0.00  0.00     0.011 A 
HETATM    5  C   UNK N   1      25.745  28.162  -5.016  0.00  0.00     0.044 A 
HETATM    6  C   UNK N   1      25.856  26.966  -5.734  0.00  0.00    -0.048 A 
HETATM    7  C   UNK N   1      26.151  28.228  -3.682  0.00  0.00     0.066 A 
HETATM    8  C   UNK N   1      25.573  24.451  -7.083  0.00  0.00     0.032 C 
HETATM    9  C   UNK N   1      26.371  25.812  -5.095  0.00  0.00    -0.043 A 
HETATM   10  C   UNK N   1      26.449  24.470  -5.797  0.00  0.00     0.060 C 
ENDROOT
BRANCH  10  11
HETATM   11  C   UNK N   1      27.894  24.041  -5.960  0.00  0.00    -0.049 A 
HETATM   12  C   UNK N   1      28.316  22.865  -5.326  0.00  0.00     0.011 A 
HETATM   13  C   UNK N   1      29.628  22.425  -5.448  0.00  0.00     0.037 A 
HETATM   14  C   UNK N   1      30.550  23.142  -6.226  0.00  0.00     0.068 A 
HETATM   15  C   UNK N   1      30.138  24.324  -6.858  0.00  0.00     0.037 A 
HETATM   16  C   UNK N   1      28.819  24.781  -6.715  0.00  0.00     0.011 A 
BRANCH  14  17
HETATM   17  O   UNK N   1      31.824  22.706  -6.377  0.00  0.00    -0.349 OA
BRANCH  17  18
HETATM   18  C   UNK N   1      32.159  21.370  -6.270  0.00  0.00     0.206 C 
BRANCH  18  19
HETATM   19  C   UNK N   1      32.640  20.806  -7.604  0.00  0.00     0.299 C 
BRANCH  19  20
HETATM   20  N   UNK N   1      31.628  19.983  -8.255  0.00  0.00     0.090 N 
HETATM   21  C   UNK N   1      30.719  19.522  -7.217  0.00  0.00     0.272 C 
HETATM   22  C   UNK N   1      29.319  19.511  -7.799  0.00  0.00     0.032 C 
HETATM   23  C   UNK N   1      29.439  20.181  -9.146  0.00  0.00     0.032 C 
HETATM   24  C   UNK N   1      30.812  20.811  -9.129  0.00  0.00     0.272 C 
ENDBRANCH  19  20
ENDBRANCH  18  19
ENDBRANCH  17  18
ENDBRANCH  14  17
ENDBRANCH  10  11
BRANCH   8  25
HETATM   25  C   UNK N   1      25.684  23.195  -7.921  0.00  0.00    -0.053 A 
HETATM   26  C   UNK N   1      26.220  23.267  -9.216  0.00  0.00     0.007 A 
HETATM   27  C   UNK N   1      26.366  22.109  -9.985  0.00  0.00     0.001 A 
HETATM   28  C   UNK N   1      25.995  20.869  -9.461  0.00  0.00     0.000 A 
HETATM   29  C   UNK N   1      25.471  20.784  -8.169  0.00  0.00     0.001 A 
HETATM   30  C   UNK N   1      25.313  21.943  -7.403  0.00  0.00     0.007 A 
ENDBRANCH   8  25
BRANCH   7  31
HETATM   31  O   UNK N   1      26.029  29.378  -2.999  0.00  0.00    -0.361 OA
HETATM   32  H   UNK N   1      25.992  29.379  -2.063  0.00  0.00     0.217 HD
ENDBRANCH   7  31
TORSDOF 7
ENDMDL
MODEL 8
REMARK VINA RESULT:      -7.0     12.611     15.383
REMARK  7 active torsions:
REMARK  status: ('A' for Active; 'I' for Inactive)
REMARK    1  A    between atoms: C_19  and  C_18 
REMARK    2  A    between atoms: N_29  and  C_18 
REMARK    3  A    between atoms: O_31  and  C_19 
REMARK    4  A    between atoms: C_26  and  C_21 
REMARK    5  A    between atoms: C_28  and  C_22 
REMARK    6  A    between atoms: O_30  and  C_24 
REMARK    7  A    between atoms: O_31  and  C_25 
ROOT
HETATM    1  C   UNK N   1      27.780  15.680   2.651  0.00  0.00     0.040 C 
HETATM    2  C   UNK N   1      25.682  18.807   4.749  0.00  0.00     0.037 A 
HETATM    3  C   UNK N   1      26.944  14.437   2.338  0.00  0.00     0.015 C 
HETATM    4  C   UNK N   1      24.955  17.745   4.209  0.00  0.00     0.011 A 
HETATM    5  C   UNK N   1      27.730  17.837   3.902  0.00  0.00     0.044 A 
HETATM    6  C   UNK N   1      27.014  16.763   3.362  0.00  0.00    -0.048 A 
HETATM    7  C   UNK N   1      27.067  18.858   4.587  0.00  0.00     0.066 A 
HETATM    8  C   UNK N   1      25.575  14.836   1.801  0.00  0.00     0.032 C 
HETATM    9  C   UNK N   1      25.605  16.722   3.500  0.00  0.00    -0.043 A 
HETATM   10  C   UNK N   1      24.768  15.623   2.874  0.00  0.00     0.060 C 
ENDROOT
BRANCH  10  11
HETATM   11  C   UNK N   1      24.092  14.796   3.949  0.00  0.00    -0.049 A 
HETATM   12  C   UNK N   1      22.700  14.646   3.899  0.00  0.00     0.011 A 
HETATM   13  C   UNK N   1      22.032  13.892   4.857  0.00  0.00     0.037 A 
HETATM   14  C   UNK N   1      22.745  13.252   5.883  0.00  0.00     0.068 A 
HETATM   15  C   UNK N   1      24.138  13.403   5.944  0.00  0.00     0.037 A 
HETATM   16  C   UNK N   1      24.810  14.183   4.991  0.00  0.00     0.011 A 
BRANCH  14  17
HETATM   17  O   UNK N   1      22.108  12.491   6.805  0.00  0.00    -0.349 OA
BRANCH  17  18
HETATM   18  C   UNK N   1      21.164  13.019   7.665  0.00  0.00     0.206 C 
BRANCH  18  19
HETATM   19  C   UNK N   1      21.714  14.221   8.429  0.00  0.00     0.299 C 
BRANCH  19  20
HETATM   20  N   UNK N   1      21.909  13.935   9.845  0.00  0.00     0.090 N 
HETATM   21  C   UNK N   1      20.765  13.150  10.284  0.00  0.00     0.272 C 
HETATM   22  C   UNK N   1      21.264  12.124  11.283  0.00  0.00     0.032 C 
HETATM   23  C   UNK N   1      22.769  12.220  11.240  0.00  0.00     0.032 C 
HETATM   24  C   UNK N   1      23.055  13.056  10.014  0.00  0.00     0.272 C 
ENDBRANCH  19  20
ENDBRANCH  18  19
ENDBRANCH  17  18
ENDBRANCH  14  17
ENDBRANCH  10  11
BRANCH   8  25
HETATM   25  C   UNK N   1      24.863  13.638   1.209  0.00  0.00    -0.053 A 
HETATM   26  C   UNK N   1      23.744  13.829   0.385  0.00  0.00     0.007 A 
HETATM   27  C   UNK N   1      23.102  12.734  -0.200  0.00  0.00     0.001 A 
HETATM   28  C   UNK N   1      23.584  11.441   0.017  0.00  0.00     0.000 A 
HETATM   29  C   UNK N   1      24.705  11.240   0.826  0.00  0.00     0.001 A 
HETATM   30  C   UNK N   1      25.340  12.333   1.423  0.00  0.00     0.007 A 
ENDBRANCH   8  25
BRANCH   7  31
HETATM   31  O   UNK N   1      27.762  19.890   5.093  0.00  0.00    -0.361 OA
HETATM   32  H   UNK N   1      27.876  20.679   4.601  0.00  0.00     0.217 HD
ENDBRANCH   7  31
TORSDOF 7
ENDMDL
MODEL 9
REMARK VINA RESULT:      -7.0      9.133     13.800
REMARK  7 active torsions:
REMARK  status: ('A' for Active; 'I' for Inactive)
REMARK    1  A    between atoms: C_19  and  C_18 
REMARK    2  A    between atoms: N_29  and  C_18 
REMARK    3  A    between atoms: O_31  and  C_19 
REMARK    4  A    between atoms: C_26  and  C_21 
REMARK    5  A    between atoms: C_28  and  C_22 
REMARK    6  A    between atoms: O_30  and  C_24 
REMARK    7  A    between atoms: O_31  and  C_25 
ROOT
HETATM    1  C   UNK N   1      20.994  14.760   8.883  0.00  0.00     0.040 C 
HETATM    2  C   UNK N   1      23.260  11.305  10.109  0.00  0.00     0.037 A 
HETATM    3  C   UNK N   1      21.345  15.306   7.496  0.00  0.00     0.015 C 
HETATM    4  C   UNK N   1      23.332  11.728   8.781  0.00  0.00     0.011 A 
HETATM    5  C   UNK N   1      21.717  13.101  10.599  0.00  0.00     0.044 A 
HETATM    6  C   UNK N   1      21.784  13.540   9.272  0.00  0.00    -0.048 A 
HETATM    7  C   UNK N   1      22.446  11.985  11.014  0.00  0.00     0.066 A 
HETATM    8  C   UNK N   1      21.473  14.167   6.491  0.00  0.00     0.032 C 
HETATM    9  C   UNK N   1      22.588  12.836   8.343  0.00  0.00    -0.043 A 
HETATM   10  C   UNK N   1      22.646  13.219   6.876  0.00  0.00     0.060 C 
ENDROOT
BRANCH  10  11
HETATM   11  C   UNK N   1      24.039  13.687   6.506  0.00  0.00    -0.049 A 
HETATM   12  C   UNK N   1      24.575  14.790   7.184  0.00  0.00     0.011 A 
HETATM   13  C   UNK N   1      25.850  15.254   6.887  0.00  0.00     0.037 A 
HETATM   14  C   UNK N   1      26.633  14.614   5.914  0.00  0.00     0.068 A 
HETATM   15  C   UNK N   1      26.101  13.513   5.226  0.00  0.00     0.037 A 
HETATM   16  C   UNK N   1      24.804  13.059   5.509  0.00  0.00     0.011 A 
BRANCH  14  17
HETATM   17  O   UNK N   1      27.888  15.039   5.637  0.00  0.00    -0.349 OA
BRANCH  17  18
HETATM   18  C   UNK N   1      28.147  16.327   5.209  0.00  0.00     0.206 C 
BRANCH  18  19
HETATM   19  C   UNK N   1      29.385  16.905   5.890  0.00  0.00     0.299 C 
BRANCH  19  20
HETATM   20  N   UNK N   1      29.249  16.948   7.341  0.00  0.00     0.090 N 
HETATM   21  C   UNK N   1      30.534  17.368   7.878  0.00  0.00     0.272 C 
HETATM   22  C   UNK N   1      30.266  18.265   9.071  0.00  0.00     0.032 C 
HETATM   23  C   UNK N   1      28.776  18.506   9.065  0.00  0.00     0.032 C 
HETATM   24  C   UNK N   1      28.322  18.004   7.715  0.00  0.00     0.272 C 
ENDBRANCH  19  20
ENDBRANCH  18  19
ENDBRANCH  17  18
ENDBRANCH  14  17
ENDBRANCH  10  11
BRANCH   8  25
HETATM   25  C   UNK N   1      21.516  14.705   5.077  0.00  0.00    -0.053 A 
HETATM   26  C   UNK N   1      21.783  16.065   4.856  0.00  0.00     0.007 A 
HETATM   27  C   UNK N   1      21.866  16.567   3.554  0.00  0.00     0.001 A 
HETATM   28  C   UNK N   1      21.702  15.711   2.462  0.00  0.00     0.000 A 
HETATM   29  C   UNK N   1      21.446  14.354   2.670  0.00  0.00     0.001 A 
HETATM   30  C   UNK N   1      21.351  13.853   3.972  0.00  0.00     0.007 A 
ENDBRANCH   8  25
BRANCH   7  31
HETATM   31  O   UNK N   1      22.366  11.566  12.288  0.00  0.00    -0.361 OA
HETATM   32  H   UNK N   1      21.554  11.600  12.754  0.00  0.00     0.217 HD
ENDBRANCH   7  31
TORSDOF 7
ENDMDL
