REMARK  5 active torsions:
REMARK  status: ('A' for Active; 'I' for Inactive)
REMARK    1  A    between atoms: C_24  and  C_3 
REMARK    2  A    between atoms: C_11  and  C_4 
REMARK    3  A    between atoms: C_18  and  C_7 
REMARK    4  A    between atoms: N_10  and  C_18 
REMARK    5  A    between atoms: C_29  and  C_24 
ROOT
HETATM    1  C   UNK N   1      -2.987  -1.266   0.000  0.00  0.00     0.137 A 
HETATM    2  N   UNK N   1      -2.931  -2.595   0.000  0.00  0.00    -0.234 N 
HETATM    3  C   UNK N   1      -1.836  -0.488   0.000  0.00  0.00     0.012 A 
HETATM    4  N   UNK N   1      -4.261  -0.831  -0.000  0.00  0.00    -0.329 N 
ATOM      5  HN  UNK N   1      -4.607   0.128  -0.000  1.00  0.00     0.168 HD
HETATM    6  C   UNK N   1      -0.594  -1.200   0.000  0.00  0.00     0.038 A 
HETATM    7  N   UNK N   1      -4.160  -3.073  -0.000  0.00  0.00    -0.280 N 
ATOM      8  HN  UNK N   1      -4.442  -4.053  -0.000  1.00  0.00     0.189 HD
HETATM    9  N   UNK N   1      -0.606  -2.574   0.000  0.00  0.00    -0.352 N 
ATOM     10  HN  UNK N   1       0.281  -3.078   0.000  1.00  0.00     0.166 HD
HETATM   11  C   UNK N   1      -1.771  -3.281   0.000  0.00  0.00     0.209 A 
HETATM   12  C   UNK N   1      -4.968  -1.988  -0.000  0.00  0.00     0.093 A 
HETATM   13  C   UNK N   1      -6.452  -2.049  -0.000  0.00  0.00     0.090 C 
ENDROOT
BRANCH   6  14
HETATM   14  C   UNK N   1       0.716  -0.456   0.000  0.00  0.00     0.187 C 
BRANCH  14  15
HETATM   15  N   UNK N   1       1.973  -1.223   0.000  0.00  0.00    -0.334 N 
HETATM   16  C   UNK N   1       3.213  -0.684  -0.000  0.00  0.00     0.138 A 
HETATM   17  N   UNK N   1       4.168  -1.635  -0.000  0.00  0.00    -0.349 N 
HETATM   18  C   UNK N   1       3.508  -2.812  -0.000  0.00  0.00     0.107 A 
ATOM     19  HN  UNK N   1       5.178  -1.494  -0.000  1.00  0.00     0.167 HD
HETATM   20  C   UNK N   1       2.148  -2.558   0.000  0.00  0.00     0.110 A 
BRANCH  16  21
HETATM   21  C   UNK N   1       3.504   0.776  -0.000  0.00  0.00     0.116 A 
HETATM   22  N   UNK N   1       2.471   1.667  -0.000  0.00  0.00    -0.360 N 
HETATM   23  C   UNK N   1       2.668   3.010  -0.000  0.00  0.00     0.088 A 
ATOM     24  HN  UNK N   1       1.516   1.310  -0.000  1.00  0.00     0.165 HD
HETATM   25  C   UNK N   1       3.962   3.524  -0.000  0.00  0.00     0.020 A 
HETATM   26  C   UNK N   1       5.044   2.645  -0.000  0.00  0.00     0.046 A 
HETATM   27  C   UNK N   1       4.825   1.266  -0.000  0.00  0.00     0.146 A 
HETATM   28  F   UNK N   1       5.891   0.428  -0.000  0.00  0.00    -0.204 F 
ENDBRANCH  16  21
ENDBRANCH  14  15
ENDBRANCH   6  14
BRANCH   3  29
HETATM   29  C   UNK N   1      -2.037   1.014   0.000  0.00  0.00     0.044 C 
BRANCH  29  30
HETATM   30  C   UNK N   1      -0.839   1.939   0.000  0.00  0.00     0.000 C 
HETATM   31  C   UNK N   1      -1.346   3.367   0.000  0.00  0.00     0.005 C 
ENDBRANCH  29  30
ENDBRANCH   3  29
TORSDOF 5
