MODEL 1
REMARK VINA RESULT:      -7.2      0.000      0.000
REMARK  8 active torsions:
REMARK  status: ('A' for Active; 'I' for Inactive)
REMARK    1  A    between atoms: O_2  and  C_3 
REMARK    2  A    between atoms: C_3  and  C_4 
REMARK    3  A    between atoms: C_3  and  C_19 
REMARK    4  A    between atoms: C_3  and  C_25 
REMARK    5  A    between atoms: C_4  and  O_5 
REMARK    6  A    between atoms: C_4  and  C_16 
REMARK    7  A    between atoms: O_5  and  C_6 
REMARK    8  A    between atoms: C_16  and  O_18 
ROOT
HETATM    1  C   UNK N   1      33.186  15.912   8.817  0.00  0.00     0.273 C 
ENDROOT
BRANCH   1   2
HETATM    2  C   UNK N   1      32.623  17.131   7.994  0.00  0.00     0.151 C 
BRANCH   2   3
HETATM    3  O   UNK N   1      33.310  18.353   8.281  0.00  0.00    -0.372 OA
HETATM    4  C   UNK N   1      34.661  18.327   7.912  0.00  0.00     0.203 C 
ENDBRANCH   2   3
BRANCH   2   5
HETATM    5  C   UNK N   1      31.094  17.348   8.120  0.00  0.00    -0.016 A 
HETATM    6  C   UNK N   1      30.571  18.253   9.061  0.00  0.00     0.011 A 
HETATM    7  C   UNK N   1      29.200  18.526   9.111  0.00  0.00     0.001 A 
HETATM    8  C   UNK N   1      28.325  17.894   8.226  0.00  0.00     0.000 A 
HETATM    9  C   UNK N   1      28.819  16.983   7.293  0.00  0.00     0.001 A 
HETATM   10  C   UNK N   1      30.189  16.721   7.235  0.00  0.00     0.011 A 
ENDBRANCH   2   5
BRANCH   2  11
HETATM   11  C   UNK N   1      32.949  16.797   6.532  0.00  0.00    -0.016 A 
HETATM   12  C   UNK N   1      32.548  17.655   5.492  0.00  0.00     0.011 A 
HETATM   13  C   UNK N   1      32.798  17.324   4.159  0.00  0.00     0.001 A 
HETATM   14  C   UNK N   1      33.460  16.135   3.847  0.00  0.00     0.000 A 
HETATM   15  C   UNK N   1      33.877  15.277   4.868  0.00  0.00     0.001 A 
HETATM   16  C   UNK N   1      33.617  15.601   6.202  0.00  0.00     0.011 A 
ENDBRANCH   2  11
ENDBRANCH   1   2
BRANCH   1  17
HETATM   17  O   UNK N   1      34.092  16.363   9.756  0.00  0.00    -0.302 OA
BRANCH  17  18
HETATM   18  C   UNK N   1      35.010  15.557  10.319  0.00  0.00     0.225 A 
HETATM   19  N   UNK N   1      34.783  15.029  11.553  0.00  0.00    -0.326 N 
HETATM   20  C   UNK N   1      35.677  14.185  12.126  0.00  0.00     0.010 A 
ATOM     21  HN  UNK N   1      33.929  15.272  12.055  1.00  0.00     0.169 HD
HETATM   22  C   UNK N   1      35.416  13.632  13.482  0.00  0.00     0.068 C 
HETATM   23  C   UNK N   1      36.836  13.827  11.441  0.00  0.00     0.049 A 
HETATM   24  C   UNK N   1      37.051  14.368  10.174  0.00  0.00     0.010 A 
HETATM   25  C   UNK N   1      38.266  13.992   9.403  0.00  0.00     0.068 C 
HETATM   26  N   UNK N   1      36.142  15.223   9.638  0.00  0.00    -0.326 N 
ATOM     27  HN  UNK N   1      36.310  15.622   8.713  1.00  0.00     0.169 HD
ENDBRANCH  17  18
ENDBRANCH   1  17
BRANCH   1  28
HETATM   28  C   UNK N   1      32.233  14.921   9.438  0.00  0.00     0.174 C 
HETATM   29  O   UNK N   1      32.024  13.863   8.870  0.00  0.00    -0.648 OA
BRANCH  28  30
HETATM   30  O   UNK N   1      31.682  15.143  10.646  0.00  0.00    -0.774 OA
HETATM   31  H   UNK N   1      31.887  15.021  11.552  0.00  0.00     0.167 HD
ENDBRANCH  28  30
ENDBRANCH   1  28
TORSDOF 8
ENDMDL
MODEL 2
REMARK VINA RESULT:      -7.1      0.126      1.853
REMARK  8 active torsions:
REMARK  status: ('A' for Active; 'I' for Inactive)
REMARK    1  A    between atoms: O_2  and  C_3 
REMARK    2  A    between atoms: C_3  and  C_4 
REMARK    3  A    between atoms: C_3  and  C_19 
REMARK    4  A    between atoms: C_3  and  C_25 
REMARK    5  A    between atoms: C_4  and  O_5 
REMARK    6  A    between atoms: C_4  and  C_16 
REMARK    7  A    between atoms: O_5  and  C_6 
REMARK    8  A    between atoms: C_16  and  O_18 
ROOT
HETATM    1  C   UNK N   1      33.158  15.887   8.697  0.00  0.00     0.273 C 
ENDROOT
BRANCH   1   2
HETATM    2  C   UNK N   1      32.581  17.117   7.900  0.00  0.00     0.151 C 
BRANCH   2   3
HETATM    3  O   UNK N   1      33.294  18.328   8.167  0.00  0.00    -0.372 OA
HETATM    4  C   UNK N   1      34.651  18.257   7.823  0.00  0.00     0.203 C 
ENDBRANCH   2   3
BRANCH   2   5
HETATM    5  C   UNK N   1      31.061  17.354   8.084  0.00  0.00    -0.016 A 
HETATM    6  C   UNK N   1      30.585  18.248   9.060  0.00  0.00     0.011 A 
HETATM    7  C   UNK N   1      29.221  18.540   9.164  0.00  0.00     0.001 A 
HETATM    8  C   UNK N   1      28.306  17.938   8.298  0.00  0.00     0.000 A 
HETATM    9  C   UNK N   1      28.753  17.038   7.332  0.00  0.00     0.001 A 
HETATM   10  C   UNK N   1      30.115  16.757   7.221  0.00  0.00     0.011 A 
ENDBRANCH   2   5
BRANCH   2  11
HETATM   11  C   UNK N   1      32.847  16.786   6.426  0.00  0.00    -0.016 A 
HETATM   12  C   UNK N   1      33.529  15.609   6.066  0.00  0.00     0.011 A 
HETATM   13  C   UNK N   1      33.817  15.334   4.728  0.00  0.00     0.001 A 
HETATM   14  C   UNK N   1      33.421  16.227   3.730  0.00  0.00     0.000 A 
HETATM   15  C   UNK N   1      32.733  17.395   4.069  0.00  0.00     0.001 A 
HETATM   16  C   UNK N   1      32.453  17.678   5.409  0.00  0.00     0.011 A 
ENDBRANCH   2  11
ENDBRANCH   1   2
BRANCH   1  17
HETATM   17  O   UNK N   1      34.060  16.328   9.645  0.00  0.00    -0.302 OA
BRANCH  17  18
HETATM   18  C   UNK N   1      34.968  15.512  10.211  0.00  0.00     0.225 A 
HETATM   19  N   UNK N   1      36.093  15.170   9.525  0.00  0.00    -0.326 N 
HETATM   20  C   UNK N   1      37.040  14.379  10.089  0.00  0.00     0.010 A 
ATOM     21  HN  UNK N   1      36.225  15.513   8.574  1.00  0.00     0.169 HD
HETATM   22  C   UNK N   1      38.254  14.004   9.315  0.00  0.00     0.068 C 
HETATM   23  C   UNK N   1      36.880  13.924  11.396  0.00  0.00     0.049 A 
HETATM   24  C   UNK N   1      35.728  14.290  12.089  0.00  0.00     0.010 A 
HETATM   25  C   UNK N   1      35.534  13.841  13.494  0.00  0.00     0.068 C 
HETATM   26  N   UNK N   1      34.792  15.070  11.488  0.00  0.00    -0.326 N 
ATOM     27  HN  UNK N   1      33.947  15.328  11.999  1.00  0.00     0.169 HD
ENDBRANCH  17  18
ENDBRANCH   1  17
BRANCH   1  28
HETATM   28  C   UNK N   1      32.216  14.873   9.298  0.00  0.00     0.174 C 
HETATM   29  O   UNK N   1      32.042  13.811   8.724  0.00  0.00    -0.648 OA
BRANCH  28  30
HETATM   30  O   UNK N   1      31.637  15.080  10.495  0.00  0.00    -0.774 OA
HETATM   31  H   UNK N   1      30.874  14.812  10.969  0.00  0.00     0.167 HD
ENDBRANCH  28  30
ENDBRANCH   1  28
TORSDOF 8
ENDMDL
MODEL 3
REMARK VINA RESULT:      -6.6      2.272      5.222
REMARK  8 active torsions:
REMARK  status: ('A' for Active; 'I' for Inactive)
REMARK    1  A    between atoms: O_2  and  C_3 
REMARK    2  A    between atoms: C_3  and  C_4 
REMARK    3  A    between atoms: C_3  and  C_19 
REMARK    4  A    between atoms: C_3  and  C_25 
REMARK    5  A    between atoms: C_4  and  O_5 
REMARK    6  A    between atoms: C_4  and  C_16 
REMARK    7  A    between atoms: O_5  and  C_6 
REMARK    8  A    between atoms: C_16  and  O_18 
ROOT
HETATM    1  C   UNK N   1      34.904  14.875  10.610  0.00  0.00     0.273 C 
ENDROOT
BRANCH   1   2
HETATM    2  C   UNK N   1      34.331  14.571   9.174  0.00  0.00     0.151 C 
BRANCH   2   3
HETATM    3  O   UNK N   1      33.497  13.409   9.150  0.00  0.00    -0.372 OA
HETATM    4  C   UNK N   1      34.202  12.229   8.880  0.00  0.00     0.203 C 
ENDBRANCH   2   3
BRANCH   2   5
HETATM    5  C   UNK N   1      35.400  14.472   8.057  0.00  0.00    -0.016 A 
HETATM    6  C   UNK N   1      36.675  13.941   8.327  0.00  0.00     0.011 A 
HETATM    7  C   UNK N   1      37.608  13.757   7.301  0.00  0.00     0.001 A 
HETATM    8  C   UNK N   1      37.288  14.107   5.989  0.00  0.00     0.000 A 
HETATM    9  C   UNK N   1      36.035  14.647   5.700  0.00  0.00     0.001 A 
HETATM   10  C   UNK N   1      35.100  14.819   6.721  0.00  0.00     0.011 A 
ENDBRANCH   2   5
BRANCH   2  11
HETATM   11  C   UNK N   1      33.410  15.759   8.863  0.00  0.00    -0.016 A 
HETATM   12  C   UNK N   1      32.017  15.650   9.027  0.00  0.00     0.011 A 
HETATM   13  C   UNK N   1      31.177  16.713   8.693  0.00  0.00     0.001 A 
HETATM   14  C   UNK N   1      31.716  17.902   8.198  0.00  0.00     0.000 A 
HETATM   15  C   UNK N   1      33.098  18.031   8.041  0.00  0.00     0.001 A 
HETATM   16  C   UNK N   1      33.941  16.965   8.364  0.00  0.00     0.011 A 
ENDBRANCH   2  11
ENDBRANCH   1   2
BRANCH   1  17
HETATM   17  O   UNK N   1      35.501  13.742  11.123  0.00  0.00    -0.302 OA
BRANCH  17  18
HETATM   18  C   UNK N   1      35.420  13.410  12.424  0.00  0.00     0.225 A 
HETATM   19  N   UNK N   1      34.616  12.382  12.813  0.00  0.00    -0.326 N 
HETATM   20  C   UNK N   1      34.545  12.005  14.114  0.00  0.00     0.010 A 
ATOM     21  HN  UNK N   1      34.057  11.889  12.116  1.00  0.00     0.169 HD
HETATM   22  C   UNK N   1      33.648  10.890  14.518  0.00  0.00     0.068 C 
HETATM   23  C   UNK N   1      35.321  12.656  15.071  0.00  0.00     0.049 A 
HETATM   24  C   UNK N   1      36.147  13.699  14.657  0.00  0.00     0.010 A 
HETATM   25  C   UNK N   1      37.005  14.403  15.648  0.00  0.00     0.068 C 
HETATM   26  N   UNK N   1      36.180  14.061  13.349  0.00  0.00    -0.326 N 
ATOM     27  HN  UNK N   1      36.781  14.832  13.054  1.00  0.00     0.169 HD
ENDBRANCH  17  18
ENDBRANCH   1  17
BRANCH   1  28
HETATM   28  C   UNK N   1      35.786  16.079  10.826  0.00  0.00     0.174 C 
HETATM   29  O   UNK N   1      35.274  17.147  11.118  0.00  0.00    -0.648 OA
BRANCH  28  30
HETATM   30  O   UNK N   1      37.129  15.978  10.792  0.00  0.00    -0.774 OA
HETATM   31  H   UNK N   1      37.839  16.167  10.211  0.00  0.00     0.167 HD
ENDBRANCH  28  30
ENDBRANCH   1  28
TORSDOF 8
ENDMDL
MODEL 4
REMARK VINA RESULT:      -6.6      4.897      8.015
REMARK  8 active torsions:
REMARK  status: ('A' for Active; 'I' for Inactive)
REMARK    1  A    between atoms: O_2  and  C_3 
REMARK    2  A    between atoms: C_3  and  C_4 
REMARK    3  A    between atoms: C_3  and  C_19 
REMARK    4  A    between atoms: C_3  and  C_25 
REMARK    5  A    between atoms: C_4  and  O_5 
REMARK    6  A    between atoms: C_4  and  C_16 
REMARK    7  A    between atoms: O_5  and  C_6 
REMARK    8  A    between atoms: C_16  and  O_18 
ROOT
HETATM    1  C   UNK N   1      28.974  17.007   4.518  0.00  0.00     0.273 C 
ENDROOT
BRANCH   1   2
HETATM    2  C   UNK N   1      29.598  16.281   5.770  0.00  0.00     0.151 C 
BRANCH   2   3
HETATM    3  O   UNK N   1      29.122  14.941   5.922  0.00  0.00    -0.372 OA
HETATM    4  C   UNK N   1      27.782  14.785   5.546  0.00  0.00     0.203 C 
ENDBRANCH   2   3
BRANCH   2   5
HETATM    5  C   UNK N   1      29.442  17.047   7.108  0.00  0.00    -0.016 A 
HETATM    6  C   UNK N   1      28.185  17.159   7.730  0.00  0.00     0.011 A 
HETATM    7  C   UNK N   1      28.057  17.762   8.985  0.00  0.00     0.001 A 
HETATM    8  C   UNK N   1      29.180  18.271   9.639  0.00  0.00     0.000 A 
HETATM    9  C   UNK N   1      30.434  18.182   9.036  0.00  0.00     0.001 A 
HETATM   10  C   UNK N   1      30.563  17.569   7.789  0.00  0.00     0.011 A 
ENDBRANCH   2   5
BRANCH   2  11
HETATM   11  C   UNK N   1      31.094  16.164   5.446  0.00  0.00    -0.016 A 
HETATM   12  C   UNK N   1      31.896  17.315   5.334  0.00  0.00     0.011 A 
HETATM   13  C   UNK N   1      33.244  17.210   4.988  0.00  0.00     0.001 A 
HETATM   14  C   UNK N   1      33.812  15.955   4.758  0.00  0.00     0.000 A 
HETATM   15  C   UNK N   1      33.032  14.803   4.877  0.00  0.00     0.001 A 
HETATM   16  C   UNK N   1      31.680  14.904   5.212  0.00  0.00     0.011 A 
ENDBRANCH   2  11
ENDBRANCH   1   2
BRANCH   1  17
HETATM   17  O   UNK N   1      29.156  18.370   4.632  0.00  0.00    -0.302 OA
BRANCH  17  18
HETATM   18  C   UNK N   1      28.126  19.232   4.700  0.00  0.00     0.225 A 
HETATM   19  N   UNK N   1      27.333  19.429   3.611  0.00  0.00    -0.326 N 
HETATM   20  C   UNK N   1      26.267  20.266   3.666  0.00  0.00     0.010 A 
ATOM     21  HN  UNK N   1      27.544  18.941   2.741  1.00  0.00     0.169 HD
HETATM   22  C   UNK N   1      25.424  20.479   2.460  0.00  0.00     0.068 C 
HETATM   23  C   UNK N   1      25.956  20.921   4.856  0.00  0.00     0.049 A 
HETATM   24  C   UNK N   1      26.771  20.702   5.966  0.00  0.00     0.010 A 
HETATM   25  C   UNK N   1      26.456  21.366   7.260  0.00  0.00     0.068 C 
HETATM   26  N   UNK N   1      27.840  19.870   5.870  0.00  0.00    -0.326 N 
ATOM     27  HN  UNK N   1      28.437  19.721   6.684  1.00  0.00     0.169 HD
ENDBRANCH  17  18
ENDBRANCH   1  17
BRANCH   1  28
HETATM   28  C   UNK N   1      29.328  16.541   3.128  0.00  0.00     0.174 C 
HETATM   29  O   UNK N   1      28.584  15.763   2.554  0.00  0.00    -0.648 OA
BRANCH  28  30
HETATM   30  O   UNK N   1      30.396  17.036   2.475  0.00  0.00    -0.774 OA
HETATM   31  H   UNK N   1      31.208  16.737   2.115  0.00  0.00     0.167 HD
ENDBRANCH  28  30
ENDBRANCH   1  28
TORSDOF 8
ENDMDL
MODEL 5
REMARK VINA RESULT:      -6.3     14.001     17.088
REMARK  8 active torsions:
REMARK  status: ('A' for Active; 'I' for Inactive)
REMARK    1  A    between atoms: O_2  and  C_3 
REMARK    2  A    between atoms: C_3  and  C_4 
REMARK    3  A    between atoms: C_3  and  C_19 
REMARK    4  A    between atoms: C_3  and  C_25 
REMARK    5  A    between atoms: C_4  and  O_5 
REMARK    6  A    between atoms: C_4  and  C_16 
REMARK    7  A    between atoms: O_5  and  C_6 
REMARK    8  A    between atoms: C_16  and  O_18 
ROOT
HETATM    1  C   UNK N   1      28.064  24.343  -4.510  0.00  0.00     0.273 C 
ENDROOT
BRANCH   1   2
HETATM    2  C   UNK N   1      28.099  25.685  -5.334  0.00  0.00     0.151 C 
BRANCH   2   3
HETATM    3  O   UNK N   1      29.413  26.014  -5.795  0.00  0.00    -0.372 OA
HETATM    4  C   UNK N   1      29.762  25.358  -6.982  0.00  0.00     0.203 C 
ENDBRANCH   2   3
BRANCH   2   5
HETATM    5  C   UNK N   1      27.476  26.906  -4.612  0.00  0.00    -0.016 A 
HETATM    6  C   UNK N   1      28.282  27.793  -3.875  0.00  0.00     0.011 A 
HETATM    7  C   UNK N   1      27.741  28.950  -3.305  0.00  0.00     0.001 A 
HETATM    8  C   UNK N   1      26.383  29.239  -3.454  0.00  0.00     0.000 A 
HETATM    9  C   UNK N   1      25.562  28.367  -4.169  0.00  0.00     0.001 A 
HETATM   10  C   UNK N   1      26.106  27.219  -4.748  0.00  0.00     0.011 A 
ENDBRANCH   2   5
BRANCH   2  11
HETATM   11  C   UNK N   1      27.272  25.390  -6.593  0.00  0.00    -0.016 A 
HETATM   12  C   UNK N   1      26.905  26.427  -7.470  0.00  0.00     0.011 A 
HETATM   13  C   UNK N   1      26.108  26.165  -8.587  0.00  0.00     0.001 A 
HETATM   14  C   UNK N   1      25.674  24.864  -8.846  0.00  0.00     0.000 A 
HETATM   15  C   UNK N   1      26.040  23.821  -7.992  0.00  0.00     0.001 A 
HETATM   16  C   UNK N   1      26.828  24.081  -6.868  0.00  0.00     0.011 A 
ENDBRANCH   2  11
ENDBRANCH   1   2
BRANCH   1  17
HETATM   17  O   UNK N   1      29.312  24.093  -3.975  0.00  0.00    -0.302 OA
BRANCH  17  18
HETATM   18  C   UNK N   1      29.987  22.956  -4.219  0.00  0.00     0.225 A 
HETATM   19  N   UNK N   1      29.653  22.185  -5.291  0.00  0.00    -0.326 N 
HETATM   20  C   UNK N   1      30.342  21.053  -5.578  0.00  0.00     0.010 A 
ATOM     21  HN  UNK N   1      28.871  22.463  -5.885  1.00  0.00     0.169 HD
HETATM   22  C   UNK N   1      29.949  20.218  -6.744  0.00  0.00     0.068 C 
HETATM   23  C   UNK N   1      31.425  20.677  -4.787  0.00  0.00     0.049 A 
HETATM   24  C   UNK N   1      31.763  21.481  -3.699  0.00  0.00     0.010 A 
HETATM   25  C   UNK N   1      32.927  21.122  -2.845  0.00  0.00     0.068 C 
HETATM   26  N   UNK N   1      31.040  22.599  -3.431  0.00  0.00    -0.326 N 
ATOM     27  HN  UNK N   1      31.287  23.178  -2.628  1.00  0.00     0.169 HD
ENDBRANCH  17  18
ENDBRANCH   1  17
BRANCH   1  28
HETATM   28  C   UNK N   1      26.992  24.128  -3.471  0.00  0.00     0.174 C 
HETATM   29  O   UNK N   1      25.828  24.050  -3.826  0.00  0.00    -0.648 OA
BRANCH  28  30
HETATM   30  O   UNK N   1      27.303  23.930  -2.176  0.00  0.00    -0.774 OA
HETATM   31  H   UNK N   1      27.383  23.222  -1.567  0.00  0.00     0.167 HD
ENDBRANCH  28  30
ENDBRANCH   1  28
TORSDOF 8
ENDMDL
MODEL 6
REMARK VINA RESULT:      -6.3     12.047     13.832
REMARK  8 active torsions:
REMARK  status: ('A' for Active; 'I' for Inactive)
REMARK    1  A    between atoms: O_2  and  C_3 
REMARK    2  A    between atoms: C_3  and  C_4 
REMARK    3  A    between atoms: C_3  and  C_19 
REMARK    4  A    between atoms: C_3  and  C_25 
REMARK    5  A    between atoms: C_4  and  O_5 
REMARK    6  A    between atoms: C_4  and  C_16 
REMARK    7  A    between atoms: O_5  and  C_6 
REMARK    8  A    between atoms: C_16  and  O_18 
ROOT
HETATM    1  C   UNK N   1      20.231  14.783   4.404  0.00  0.00     0.273 C 
ENDROOT
BRANCH   1   2
HETATM    2  C   UNK N   1      20.717  15.237   2.977  0.00  0.00     0.151 C 
BRANCH   2   3
HETATM    3  O   UNK N   1      19.695  15.117   1.983  0.00  0.00    -0.372 OA
HETATM    4  C   UNK N   1      19.446  13.791   1.605  0.00  0.00     0.203 C 
ENDBRANCH   2   3
BRANCH   2   5
HETATM    5  C   UNK N   1      22.012  14.545   2.481  0.00  0.00    -0.016 A 
HETATM    6  C   UNK N   1      22.680  13.607   3.290  0.00  0.00     0.011 A 
HETATM    7  C   UNK N   1      23.791  12.906   2.809  0.00  0.00     0.001 A 
HETATM    8  C   UNK N   1      24.260  13.136   1.514  0.00  0.00     0.000 A 
HETATM    9  C   UNK N   1      23.622  14.071   0.700  0.00  0.00     0.001 A 
HETATM   10  C   UNK N   1      22.506  14.760   1.176  0.00  0.00     0.011 A 
ENDBRANCH   2   5
BRANCH   2  11
HETATM   11  C   UNK N   1      20.992  16.741   3.119  0.00  0.00    -0.016 A 
HETATM   12  C   UNK N   1      20.038  17.688   2.705  0.00  0.00     0.011 A 
HETATM   13  C   UNK N   1      20.311  19.054   2.787  0.00  0.00     0.001 A 
HETATM   14  C   UNK N   1      21.537  19.494   3.289  0.00  0.00     0.000 A 
HETATM   15  C   UNK N   1      22.491  18.567   3.716  0.00  0.00     0.001 A 
HETATM   16  C   UNK N   1      22.225  17.198   3.625  0.00  0.00     0.011 A 
ENDBRANCH   2  11
ENDBRANCH   1   2
BRANCH   1  17
HETATM   17  O   UNK N   1      20.904  15.497   5.375  0.00  0.00    -0.302 OA
BRANCH  17  18
HETATM   18  C   UNK N   1      20.630  15.369   6.686  0.00  0.00     0.225 A 
HETATM   19  N   UNK N   1      19.828  16.281   7.302  0.00  0.00    -0.326 N 
HETATM   20  C   UNK N   1      19.508  16.153   8.615  0.00  0.00     0.010 A 
ATOM     21  HN  UNK N   1      19.464  17.071   6.771  1.00  0.00     0.169 HD
HETATM   22  C   UNK N   1      18.644  17.169   9.272  0.00  0.00     0.068 C 
HETATM   23  C   UNK N   1      19.982  15.065   9.345  0.00  0.00     0.049 A 
HETATM   24  C   UNK N   1      20.794  14.135   8.697  0.00  0.00     0.010 A 
HETATM   25  C   UNK N   1      21.299  12.949   9.439  0.00  0.00     0.068 C 
HETATM   26  N   UNK N   1      21.107  14.303   7.387  0.00  0.00    -0.326 N 
ATOM     27  HN  UNK N   1      21.709  13.622   6.921  1.00  0.00     0.169 HD
ENDBRANCH  17  18
ENDBRANCH   1  17
BRANCH   1  28
HETATM   28  C   UNK N   1      18.755  14.735   4.715  0.00  0.00     0.174 C 
HETATM   29  O   UNK N   1      18.211  13.651   4.845  0.00  0.00    -0.648 OA
BRANCH  28  30
HETATM   30  O   UNK N   1      18.050  15.859   4.939  0.00  0.00    -0.774 OA
HETATM   31  H   UNK N   1      17.275  16.132   5.390  0.00  0.00     0.167 HD
ENDBRANCH  28  30
ENDBRANCH   1  28
TORSDOF 8
ENDMDL
MODEL 7
REMARK VINA RESULT:      -6.2     12.130     13.810
REMARK  8 active torsions:
REMARK  status: ('A' for Active; 'I' for Inactive)
REMARK    1  A    between atoms: O_2  and  C_3 
REMARK    2  A    between atoms: C_3  and  C_4 
REMARK    3  A    between atoms: C_3  and  C_19 
REMARK    4  A    between atoms: C_3  and  C_25 
REMARK    5  A    between atoms: C_4  and  O_5 
REMARK    6  A    between atoms: C_4  and  C_16 
REMARK    7  A    between atoms: O_5  and  C_6 
REMARK    8  A    between atoms: C_16  and  O_18 
ROOT
HETATM    1  C   UNK N   1      20.251  14.661   4.288  0.00  0.00     0.273 C 
ENDROOT
BRANCH   1   2
HETATM    2  C   UNK N   1      20.714  15.097   2.846  0.00  0.00     0.151 C 
BRANCH   2   3
HETATM    3  O   UNK N   1      19.670  14.983   1.876  0.00  0.00    -0.372 OA
HETATM    4  C   UNK N   1      19.329  13.655   1.585  0.00  0.00     0.203 C 
ENDBRANCH   2   3
BRANCH   2   5
HETATM    5  C   UNK N   1      21.989  14.382   2.331  0.00  0.00    -0.016 A 
HETATM    6  C   UNK N   1      22.618  13.389   3.103  0.00  0.00     0.011 A 
HETATM    7  C   UNK N   1      23.709  12.672   2.600  0.00  0.00     0.001 A 
HETATM    8  C   UNK N   1      24.195  12.938   1.320  0.00  0.00     0.000 A 
HETATM    9  C   UNK N   1      23.596  13.927   0.541  0.00  0.00     0.001 A 
HETATM   10  C   UNK N   1      22.499  14.634   1.039  0.00  0.00     0.011 A 
ENDBRANCH   2   5
BRANCH   2  11
HETATM   11  C   UNK N   1      21.014  16.597   2.970  0.00  0.00    -0.016 A 
HETATM   12  C   UNK N   1      20.135  17.552   2.427  0.00  0.00     0.011 A 
HETATM   13  C   UNK N   1      20.436  18.914   2.494  0.00  0.00     0.001 A 
HETATM   14  C   UNK N   1      21.613  19.341   3.112  0.00  0.00     0.000 A 
HETATM   15  C   UNK N   1      22.490  18.406   3.667  0.00  0.00     0.001 A 
HETATM   16  C   UNK N   1      22.198  17.042   3.592  0.00  0.00     0.011 A 
ENDBRANCH   2  11
ENDBRANCH   1   2
BRANCH   1  17
HETATM   17  O   UNK N   1      21.076  15.234   5.235  0.00  0.00    -0.302 OA
BRANCH  17  18
HETATM   18  C   UNK N   1      20.773  15.242   6.546  0.00  0.00     0.225 A 
HETATM   19  N   UNK N   1      21.085  14.166   7.320  0.00  0.00    -0.326 N 
HETATM   20  C   UNK N   1      20.822  14.165   8.651  0.00  0.00     0.010 A 
ATOM     21  HN  UNK N   1      21.521  13.349   6.892  1.00  0.00     0.169 HD
HETATM   22  C   UNK N   1      21.157  12.973   9.474  0.00  0.00     0.068 C 
HETATM   23  C   UNK N   1      20.248  15.285   9.249  0.00  0.00     0.049 A 
HETATM   24  C   UNK N   1      19.943  16.383   8.445  0.00  0.00     0.010 A 
HETATM   25  C   UNK N   1      19.349  17.604   9.053  0.00  0.00     0.068 C 
HETATM   26  N   UNK N   1      20.204  16.343   7.113  0.00  0.00    -0.326 N 
ATOM     27  HN  UNK N   1      19.971  17.147   6.530  1.00  0.00     0.169 HD
ENDBRANCH  17  18
ENDBRANCH   1  17
BRANCH   1  28
HETATM   28  C   UNK N   1      18.805  14.811   4.689  0.00  0.00     0.174 C 
HETATM   29  O   UNK N   1      18.135  13.810   4.881  0.00  0.00    -0.648 OA
BRANCH  28  30
HETATM   30  O   UNK N   1      18.266  16.022   4.925  0.00  0.00    -0.774 OA
HETATM   31  H   UNK N   1      17.544  16.545   4.637  0.00  0.00     0.167 HD
ENDBRANCH  28  30
ENDBRANCH   1  28
TORSDOF 8
ENDMDL
MODEL 8
REMARK VINA RESULT:      -6.2     14.695     17.824
REMARK  8 active torsions:
REMARK  status: ('A' for Active; 'I' for Inactive)
REMARK    1  A    between atoms: O_2  and  C_3 
REMARK    2  A    between atoms: C_3  and  C_4 
REMARK    3  A    between atoms: C_3  and  C_19 
REMARK    4  A    between atoms: C_3  and  C_25 
REMARK    5  A    between atoms: C_4  and  O_5 
REMARK    6  A    between atoms: C_4  and  C_16 
REMARK    7  A    between atoms: O_5  and  C_6 
REMARK    8  A    between atoms: C_16  and  O_18 
ROOT
HETATM    1  C   UNK N   1      28.822  24.459  -6.929  0.00  0.00     0.273 C 
ENDROOT
BRANCH   1   2
HETATM    2  C   UNK N   1      27.409  25.007  -7.360  0.00  0.00     0.151 C 
BRANCH   2   3
HETATM    3  O   UNK N   1      27.455  25.742  -8.586  0.00  0.00    -0.372 OA
HETATM    4  C   UNK N   1      27.912  27.057  -8.426  0.00  0.00     0.203 C 
ENDBRANCH   2   3
BRANCH   2   5
HETATM    5  C   UNK N   1      26.679  25.842  -6.277  0.00  0.00    -0.016 A 
HETATM    6  C   UNK N   1      27.302  26.128  -5.048  0.00  0.00     0.011 A 
HETATM    7  C   UNK N   1      26.688  26.963  -4.109  0.00  0.00     0.001 A 
HETATM    8  C   UNK N   1      25.437  27.522  -4.377  0.00  0.00     0.000 A 
HETATM    9  C   UNK N   1      24.795  27.242  -5.582  0.00  0.00     0.001 A 
HETATM   10  C   UNK N   1      25.414  26.419  -6.524  0.00  0.00     0.011 A 
ENDBRANCH   2   5
BRANCH   2  11
HETATM   11  C   UNK N   1      26.576  23.751  -7.650  0.00  0.00    -0.016 A 
HETATM   12  C   UNK N   1      25.839  23.126  -6.628  0.00  0.00     0.011 A 
HETATM   13  C   UNK N   1      25.125  21.954  -6.882  0.00  0.00     0.001 A 
HETATM   14  C   UNK N   1      25.130  21.395  -8.161  0.00  0.00     0.000 A 
HETATM   15  C   UNK N   1      25.846  22.010  -9.190  0.00  0.00     0.001 A 
HETATM   16  C   UNK N   1      26.572  23.177  -8.937  0.00  0.00     0.011 A 
ENDBRANCH   2  11
ENDBRANCH   1   2
BRANCH   1  17
HETATM   17  O   UNK N   1      28.715  23.133  -6.562  0.00  0.00    -0.302 OA
BRANCH  17  18
HETATM   18  C   UNK N   1      29.404  22.612  -5.531  0.00  0.00     0.225 A 
HETATM   19  N   UNK N   1      29.189  23.074  -4.268  0.00  0.00    -0.326 N 
HETATM   20  C   UNK N   1      29.845  22.540  -3.208  0.00  0.00     0.010 A 
ATOM     21  HN  UNK N   1      28.525  23.834  -4.118  1.00  0.00     0.169 HD
HETATM   22  C   UNK N   1      29.607  23.071  -1.840  0.00  0.00     0.068 C 
HETATM   23  C   UNK N   1      30.737  21.486  -3.400  0.00  0.00     0.049 A 
HETATM   24  C   UNK N   1      30.939  21.016  -4.697  0.00  0.00     0.010 A 
HETATM   25  C   UNK N   1      31.867  19.878  -4.936  0.00  0.00     0.068 C 
HETATM   26  N   UNK N   1      30.277  21.586  -5.737  0.00  0.00    -0.326 N 
ATOM     27  HN  UNK N   1      30.437  21.243  -6.684  1.00  0.00     0.169 HD
ENDBRANCH  17  18
ENDBRANCH   1  17
BRANCH   1  28
HETATM   28  C   UNK N   1      30.013  24.661  -7.832  0.00  0.00     0.174 C 
HETATM   29  O   UNK N   1      30.998  25.235  -7.398  0.00  0.00    -0.648 OA
BRANCH  28  30
HETATM   30  O   UNK N   1      30.044  24.143  -9.075  0.00  0.00    -0.774 OA
HETATM   31  H   UNK N   1      29.688  23.417  -9.549  0.00  0.00     0.167 HD
ENDBRANCH  28  30
ENDBRANCH   1  28
TORSDOF 8
ENDMDL
MODEL 9
REMARK VINA RESULT:      -6.2     13.997     17.081
REMARK  8 active torsions:
REMARK  status: ('A' for Active; 'I' for Inactive)
REMARK    1  A    between atoms: O_2  and  C_3 
REMARK    2  A    between atoms: C_3  and  C_4 
REMARK    3  A    between atoms: C_3  and  C_19 
REMARK    4  A    between atoms: C_3  and  C_25 
REMARK    5  A    between atoms: C_4  and  O_5 
REMARK    6  A    between atoms: C_4  and  C_16 
REMARK    7  A    between atoms: O_5  and  C_6 
REMARK    8  A    between atoms: C_16  and  O_18 
ROOT
HETATM    1  C   UNK N   1      28.026  24.304  -4.528  0.00  0.00     0.273 C 
ENDROOT
BRANCH   1   2
HETATM    2  C   UNK N   1      28.056  25.599  -5.425  0.00  0.00     0.151 C 
BRANCH   2   3
HETATM    3  O   UNK N   1      29.363  25.890  -5.927  0.00  0.00    -0.372 OA
HETATM    4  C   UNK N   1      29.637  25.263  -7.150  0.00  0.00     0.203 C 
ENDBRANCH   2   3
BRANCH   2   5
HETATM    5  C   UNK N   1      27.457  26.864  -4.759  0.00  0.00    -0.016 A 
HETATM    6  C   UNK N   1      26.088  27.163  -4.885  0.00  0.00     0.011 A 
HETATM    7  C   UNK N   1      25.525  28.248  -4.205  0.00  0.00     0.001 A 
HETATM    8  C   UNK N   1      26.320  29.057  -3.392  0.00  0.00     0.000 A 
HETATM    9  C   UNK N   1      27.681  28.787  -3.262  0.00  0.00     0.001 A 
HETATM   10  C   UNK N   1      28.240  27.698  -3.931  0.00  0.00     0.011 A 
ENDBRANCH   2   5
BRANCH   2  11
HETATM   11  C   UNK N   1      27.202  25.243  -6.650  0.00  0.00    -0.016 A 
HETATM   12  C   UNK N   1      26.782  26.242  -7.546  0.00  0.00     0.011 A 
HETATM   13  C   UNK N   1      25.961  25.925  -8.631  0.00  0.00     0.001 A 
HETATM   14  C   UNK N   1      25.557  24.605  -8.839  0.00  0.00     0.000 A 
HETATM   15  C   UNK N   1      25.976  23.599  -7.965  0.00  0.00     0.001 A 
HETATM   16  C   UNK N   1      26.788  23.915  -6.873  0.00  0.00     0.011 A 
ENDBRANCH   2  11
ENDBRANCH   1   2
BRANCH   1  17
HETATM   17  O   UNK N   1      29.278  24.080  -3.992  0.00  0.00    -0.302 OA
BRANCH  17  18
HETATM   18  C   UNK N   1      29.996  22.977  -4.273  0.00  0.00     0.225 A 
HETATM   19  N   UNK N   1      31.036  22.622  -3.469  0.00  0.00    -0.326 N 
HETATM   20  C   UNK N   1      31.752  21.496  -3.710  0.00  0.00     0.010 A 
ATOM     21  HN  UNK N   1      31.280  23.213  -2.674  1.00  0.00     0.169 HD
HETATM   22  C   UNK N   1      32.893  21.136  -2.828  0.00  0.00     0.068 C 
HETATM   23  C   UNK N   1      31.412  20.670  -4.780  0.00  0.00     0.049 A 
HETATM   24  C   UNK N   1      30.338  21.041  -5.589  0.00  0.00     0.010 A 
HETATM   25  C   UNK N   1      29.933  20.173  -6.727  0.00  0.00     0.068 C 
HETATM   26  N   UNK N   1      29.654  22.185  -5.328  0.00  0.00    -0.326 N 
ATOM     27  HN  UNK N   1      28.875  22.455  -5.929  1.00  0.00     0.169 HD
ENDBRANCH  17  18
ENDBRANCH   1  17
BRANCH   1  28
HETATM   28  C   UNK N   1      26.964  24.151  -3.467  0.00  0.00     0.174 C 
HETATM   29  O   UNK N   1      25.793  24.088  -3.803  0.00  0.00    -0.648 OA
BRANCH  28  30
HETATM   30  O   UNK N   1      27.289  23.991  -2.170  0.00  0.00    -0.774 OA
HETATM   31  H   UNK N   1      28.050  23.998  -1.624  0.00  0.00     0.167 HD
ENDBRANCH  28  30
ENDBRANCH   1  28
TORSDOF 8
ENDMDL
