MODEL 1
REMARK VINA RESULT:      -7.9      0.000      0.000
REMARK  9 active torsions:
REMARK  status: ('A' for Active; 'I' for Inactive)
REMARK    1  A    between atoms: C_7  and  C_34 
REMARK    2  A    between atoms: N_10  and  C_13 
REMARK    3  A    between atoms: C_15  and  N_22 
REMARK    4  A    between atoms: C_16  and  C_19 
REMARK       I    between atoms: C_19  and  N_21 
REMARK    5  A    between atoms: C_23  and  N_22 
REMARK    6  A    between atoms: C_26  and  O_29 
REMARK    7  A    between atoms: O_29  and  C_30 
REMARK    8  A    between atoms: C_30  and  C_32 
REMARK    9  A    between atoms: C_32  and  N_33 
ROOT
HETATM    1  C   UNK N   1      36.898  13.413  10.396  0.00  0.00     0.058 A 
HETATM    2  C   UNK N   1      36.017  14.348   9.909  0.00  0.00     0.061 A 
HETATM    3  C   UNK N   1      35.904  14.633   8.555  0.00  0.00     0.046 A 
HETATM    4  C   UNK N   1      36.770  13.979   7.641  0.00  0.00     0.058 A 
HETATM    5  C   UNK N   1      37.744  13.100   8.149  0.00  0.00     0.022 A 
HETATM    6  C   UNK N   1      37.787  12.796   9.510  0.00  0.00     0.032 A 
ENDROOT
BRANCH   1   7
HETATM    7  N   UNK N   1      36.611  12.865  11.692  0.00  0.00    -0.259 N 
HETATM    8  N   UNK N   1      37.009  13.411  12.831  0.00  0.00    -0.288 N 
HETATM    9  C   UNK N   1      36.342  12.817  13.849  0.00  0.00     0.148 A 
ATOM     10  HN  UNK N   1      37.701  14.154  12.926  1.00  0.00     0.187 HD
HETATM   11  C   UNK N   1      35.494  11.844  13.304  0.00  0.00     0.067 A 
HETATM   12  C   UNK N   1      34.469  10.942  13.864  0.00  0.00     0.164 C 
HETATM   13  C   UNK N   1      35.690  11.919  11.952  0.00  0.00     0.051 A 
HETATM   14  C   UNK N   1      33.636  10.098  12.924  0.00  0.00     0.093 C 
HETATM   15  O   UNK N   1      34.235  10.912  15.058  0.00  0.00    -0.292 OA
HETATM   16  C   UNK N   1      34.180   9.965  11.483  0.00  0.00    -0.036 C 
HETATM   17  C   UNK N   1      35.197   8.843  11.396  0.00  0.00     0.015 C 
HETATM   18  C   UNK N   1      34.825  11.232  10.946  0.00  0.00     0.069 C 
HETATM   19  C   UNK N   1      33.020   9.630  10.568  0.00  0.00     0.015 C 
BRANCH   9  20
HETATM   20  C   UNK N   1      36.472  13.311  15.268  0.00  0.00     0.434 C 
HETATM   21  F   UNK N   1      35.256  13.791  15.715  0.00  0.00    -0.165 F 
HETATM   22  F   UNK N   1      36.848  12.246  16.071  0.00  0.00    -0.165 F 
HETATM   23  F   UNK N   1      37.420  14.301  15.409  0.00  0.00    -0.165 F 
ENDBRANCH   9  20
ENDBRANCH   1   7
BRANCH   3  24
HETATM   24  N   UNK N   1      34.805  15.432   8.129  0.00  0.00    -0.384 N 
HETATM   25  H   UNK N   1      34.495  15.368   7.196  0.00  0.00     0.160 HD
BRANCH  24  26
HETATM   26  C   UNK N   1      34.129  16.347   9.050  0.00  0.00     0.082 C 
HETATM   27  C   UNK N   1      34.007  17.791   8.546  0.00  0.00     0.028 C 
HETATM   28  C   UNK N   1      33.073  17.838   7.338  0.00  0.00     0.034 C 
HETATM   29  C   UNK N   1      31.673  17.475   7.803  0.00  0.00     0.132 C 
HETATM   30  C   UNK N   1      31.683  16.052   8.394  0.00  0.00     0.034 C 
HETATM   31  C   UNK N   1      32.751  15.840   9.480  0.00  0.00     0.028 C 
BRANCH  29  32
HETATM   32  O   UNK N   1      31.271  18.423   8.723  0.00  0.00    -0.315 OA
BRANCH  32  33
HETATM   33  C   UNK N   1      29.972  18.545   9.103  0.00  0.00     0.276 C 
HETATM   34  O   UNK N   1      29.703  18.713  10.280  0.00  0.00    -0.263 OA
BRANCH  33  35
HETATM   35  C   UNK N   1      28.859  18.479   8.099  0.00  0.00     0.223 C 
BRANCH  35  36
HETATM   36  N   UNK N   1      27.588  18.691   8.770  0.00  0.00    -0.422 N 
HETATM   37  H   UNK N   1      26.892  19.314   8.361  0.00  0.00     0.150 HD
HETATM   38  H   UNK N   1      27.391  18.216   9.652  0.00  0.00     0.150 HD
ENDBRANCH  35  36
ENDBRANCH  33  35
ENDBRANCH  32  33
ENDBRANCH  29  32
ENDBRANCH  24  26
ENDBRANCH   3  24
BRANCH   4  39
HETATM   39  C   UNK N   1      36.629  14.087   6.167  0.00  0.00     0.251 C 
HETATM   40  O   UNK N   1      36.282  15.148   5.668  0.00  0.00    -0.268 OA
HETATM   41  N   UNK N   1      36.947  13.057   5.358  0.00  0.00    -0.366 N 
HETATM   42  H   UNK N   1      36.767  13.074   4.390  0.00  0.00     0.159 HD
HETATM   43  H   UNK N   1      37.374  12.261   5.748  0.00  0.00     0.159 HD
ENDBRANCH   4  39
TORSDOF 9
ENDMDL
MODEL 2
REMARK VINA RESULT:      -7.8      9.659     13.656
REMARK  9 active torsions:
REMARK  status: ('A' for Active; 'I' for Inactive)
REMARK    1  A    between atoms: C_7  and  C_34 
REMARK    2  A    between atoms: N_10  and  C_13 
REMARK    3  A    between atoms: C_15  and  N_22 
REMARK    4  A    between atoms: C_16  and  C_19 
REMARK       I    between atoms: C_19  and  N_21 
REMARK    5  A    between atoms: C_23  and  N_22 
REMARK    6  A    between atoms: C_26  and  O_29 
REMARK    7  A    between atoms: O_29  and  C_30 
REMARK    8  A    between atoms: C_30  and  C_32 
REMARK    9  A    between atoms: C_32  and  N_33 
ROOT
HETATM    1  C   UNK N   1      24.363  19.180   4.290  0.00  0.00     0.058 A 
HETATM    2  C   UNK N   1      23.210  18.558   4.704  0.00  0.00     0.061 A 
HETATM    3  C   UNK N   1      21.981  18.784   4.098  0.00  0.00     0.046 A 
HETATM    4  C   UNK N   1      21.898  19.735   3.049  0.00  0.00     0.058 A 
HETATM    5  C   UNK N   1      23.056  20.449   2.694  0.00  0.00     0.022 A 
HETATM    6  C   UNK N   1      24.284  20.152   3.288  0.00  0.00     0.032 A 
ENDROOT
BRANCH   1   7
HETATM    7  N   UNK N   1      25.603  18.545   4.640  0.00  0.00    -0.259 N 
HETATM    8  N   UNK N   1      26.462  19.035   5.521  0.00  0.00    -0.288 N 
HETATM    9  C   UNK N   1      27.365  18.073   5.823  0.00  0.00     0.148 A 
ATOM     10  HN  UNK N   1      26.445  19.979   5.908  1.00  0.00     0.187 HD
HETATM   11  C   UNK N   1      27.049  16.931   5.075  0.00  0.00     0.067 A 
HETATM   12  C   UNK N   1      27.582  15.556   5.023  0.00  0.00     0.164 C 
HETATM   13  C   UNK N   1      25.934  17.272   4.359  0.00  0.00     0.051 A 
HETATM   14  C   UNK N   1      26.881  14.525   4.164  0.00  0.00     0.093 C 
HETATM   15  O   UNK N   1      28.532  15.217   5.704  0.00  0.00    -0.292 OA
HETATM   16  C   UNK N   1      25.890  15.086   3.119  0.00  0.00    -0.036 C 
HETATM   17  C   UNK N   1      26.617  15.475   1.847  0.00  0.00     0.015 C 
HETATM   18  C   UNK N   1      25.099  16.292   3.600  0.00  0.00     0.069 C 
HETATM   19  C   UNK N   1      24.889  14.000   2.784  0.00  0.00     0.015 C 
BRANCH   9  20
HETATM   20  C   UNK N   1      28.398  18.275   6.903  0.00  0.00     0.434 C 
HETATM   21  F   UNK N   1      29.661  18.026   6.400  0.00  0.00    -0.165 F 
HETATM   22  F   UNK N   1      28.342  19.593   7.324  0.00  0.00    -0.165 F 
HETATM   23  F   UNK N   1      28.192  17.471   8.003  0.00  0.00    -0.165 F 
ENDBRANCH   9  20
ENDBRANCH   1   7
BRANCH   3  24
HETATM   24  N   UNK N   1      20.900  17.920   4.436  0.00  0.00    -0.384 N 
HETATM   25  H   UNK N   1      19.976  18.252   4.360  0.00  0.00     0.160 HD
BRANCH  24  26
HETATM   26  C   UNK N   1      21.137  16.550   4.894  0.00  0.00     0.082 C 
HETATM   27  C   UNK N   1      21.741  16.439   6.300  0.00  0.00     0.028 C 
HETATM   28  C   UNK N   1      20.730  16.931   7.335  0.00  0.00     0.034 C 
HETATM   29  C   UNK N   1      19.554  15.970   7.346  0.00  0.00     0.132 C 
HETATM   30  C   UNK N   1      18.897  15.949   5.953  0.00  0.00     0.034 C 
HETATM   31  C   UNK N   1      19.886  15.675   4.807  0.00  0.00     0.028 C 
BRANCH  29  32
HETATM   32  O   UNK N   1      20.022  14.728   7.726  0.00  0.00    -0.315 OA
BRANCH  32  33
HETATM   33  C   UNK N   1      20.218  14.406   9.032  0.00  0.00     0.276 C 
HETATM   34  O   UNK N   1      19.270  14.405   9.799  0.00  0.00    -0.263 OA
BRANCH  33  35
HETATM   35  C   UNK N   1      21.581  14.051   9.549  0.00  0.00     0.223 C 
BRANCH  35  36
HETATM   36  N   UNK N   1      21.475  12.919  10.455  0.00  0.00    -0.422 N 
HETATM   37  H   UNK N   1      21.187  12.007  10.100  0.00  0.00     0.150 HD
HETATM   38  H   UNK N   1      21.686  13.037  11.446  0.00  0.00     0.150 HD
ENDBRANCH  35  36
ENDBRANCH  33  35
ENDBRANCH  32  33
ENDBRANCH  29  32
ENDBRANCH  24  26
ENDBRANCH   3  24
BRANCH   4  39
HETATM   39  C   UNK N   1      20.676  19.937   2.229  0.00  0.00     0.251 C 
HETATM   40  O   UNK N   1      19.577  19.712   2.715  0.00  0.00    -0.268 OA
HETATM   41  N   UNK N   1      20.750  20.434   0.978  0.00  0.00    -0.366 N 
HETATM   42  H   UNK N   1      19.965  20.481   0.385  0.00  0.00     0.159 HD
HETATM   43  H   UNK N   1      21.617  20.761   0.647  0.00  0.00     0.159 HD
ENDBRANCH   4  39
TORSDOF 9
ENDMDL
MODEL 3
REMARK VINA RESULT:      -7.7      9.076     13.331
REMARK  9 active torsions:
REMARK  status: ('A' for Active; 'I' for Inactive)
REMARK    1  A    between atoms: C_7  and  C_34 
REMARK    2  A    between atoms: N_10  and  C_13 
REMARK    3  A    between atoms: C_15  and  N_22 
REMARK    4  A    between atoms: C_16  and  C_19 
REMARK       I    between atoms: C_19  and  N_21 
REMARK    5  A    between atoms: C_23  and  N_22 
REMARK    6  A    between atoms: C_26  and  O_29 
REMARK    7  A    between atoms: O_29  and  C_30 
REMARK    8  A    between atoms: C_30  and  C_32 
REMARK    9  A    between atoms: C_32  and  N_33 
ROOT
HETATM    1  C   UNK N   1      25.413  18.424   4.134  0.00  0.00     0.058 A 
HETATM    2  C   UNK N   1      24.167  17.848   4.197  0.00  0.00     0.061 A 
HETATM    3  C   UNK N   1      23.032  18.469   3.694  0.00  0.00     0.046 A 
HETATM    4  C   UNK N   1      23.147  19.772   3.146  0.00  0.00     0.058 A 
HETATM    5  C   UNK N   1      24.402  20.406   3.176  0.00  0.00     0.022 A 
HETATM    6  C   UNK N   1      25.530  19.727   3.638  0.00  0.00     0.032 A 
ENDROOT
BRANCH   1   7
HETATM    7  N   UNK N   1      26.541  17.542   4.233  0.00  0.00    -0.259 N 
HETATM    8  N   UNK N   1      26.982  16.790   3.236  0.00  0.00    -0.288 N 
HETATM    9  C   UNK N   1      28.203  16.309   3.567  0.00  0.00     0.148 A 
ATOM     10  HN  UNK N   1      26.486  16.605   2.364  1.00  0.00     0.187 HD
HETATM   11  C   UNK N   1      28.525  16.783   4.846  0.00  0.00     0.067 A 
HETATM   12  C   UNK N   1      29.721  16.692   5.705  0.00  0.00     0.164 C 
HETATM   13  C   UNK N   1      27.460  17.558   5.216  0.00  0.00     0.051 A 
HETATM   14  C   UNK N   1      29.755  17.466   7.006  0.00  0.00     0.093 C 
HETATM   15  O   UNK N   1      30.704  16.063   5.362  0.00  0.00    -0.292 OA
HETATM   16  C   UNK N   1      28.390  17.988   7.511  0.00  0.00    -0.036 C 
HETATM   17  C   UNK N   1      27.669  16.917   8.307  0.00  0.00     0.015 C 
HETATM   18  C   UNK N   1      27.461  18.462   6.405  0.00  0.00     0.069 C 
HETATM   19  C   UNK N   1      28.643  19.172   8.422  0.00  0.00     0.015 C 
BRANCH   9  20
HETATM   20  C   UNK N   1      29.034  15.525   2.582  0.00  0.00     0.434 C 
HETATM   21  F   UNK N   1      30.113  16.282   2.167  0.00  0.00    -0.165 F 
HETATM   22  F   UNK N   1      29.509  14.387   3.214  0.00  0.00    -0.165 F 
HETATM   23  F   UNK N   1      28.320  15.125   1.473  0.00  0.00    -0.165 F 
ENDBRANCH   9  20
ENDBRANCH   1   7
BRANCH   3  24
HETATM   24  N   UNK N   1      21.839  17.696   3.587  0.00  0.00    -0.384 N 
HETATM   25  H   UNK N   1      21.780  16.994   2.900  0.00  0.00     0.160 HD
BRANCH  24  26
HETATM   26  C   UNK N   1      20.702  17.928   4.479  0.00  0.00     0.082 C 
HETATM   27  C   UNK N   1      19.630  16.831   4.450  0.00  0.00     0.028 C 
HETATM   28  C   UNK N   1      20.203  15.536   5.026  0.00  0.00     0.034 C 
HETATM   29  C   UNK N   1      20.488  15.756   6.501  0.00  0.00     0.132 C 
HETATM   30  C   UNK N   1      21.516  16.891   6.661  0.00  0.00     0.034 C 
HETATM   31  C   UNK N   1      21.128  18.185   5.925  0.00  0.00     0.028 C 
BRANCH  29  32
HETATM   32  O   UNK N   1      19.290  16.038   7.128  0.00  0.00    -0.315 OA
BRANCH  32  33
HETATM   33  C   UNK N   1      19.220  16.263   8.467  0.00  0.00     0.276 C 
HETATM   34  O   UNK N   1      19.274  15.321   9.238  0.00  0.00    -0.263 OA
BRANCH  33  35
HETATM   35  C   UNK N   1      19.077  17.653   9.015  0.00  0.00     0.223 C 
BRANCH  35  36
HETATM   36  N   UNK N   1      17.734  17.830   9.541  0.00  0.00    -0.422 N 
HETATM   37  H   UNK N   1      17.063  17.063   9.496  0.00  0.00     0.150 HD
HETATM   38  H   UNK N   1      17.462  18.721   9.955  0.00  0.00     0.150 HD
ENDBRANCH  35  36
ENDBRANCH  33  35
ENDBRANCH  32  33
ENDBRANCH  29  32
ENDBRANCH  24  26
ENDBRANCH   3  24
BRANCH   4  39
HETATM   39  C   UNK N   1      22.036  20.459   2.439  0.00  0.00     0.251 C 
HETATM   40  O   UNK N   1      21.989  20.435   1.217  0.00  0.00    -0.268 OA
HETATM   41  N   UNK N   1      21.034  21.048   3.121  0.00  0.00    -0.366 N 
HETATM   42  H   UNK N   1      20.345  21.592   2.676  0.00  0.00     0.159 HD
HETATM   43  H   UNK N   1      20.991  20.932   4.097  0.00  0.00     0.159 HD
ENDBRANCH   4  39
TORSDOF 9
ENDMDL
MODEL 4
REMARK VINA RESULT:      -7.6      8.503     12.235
REMARK  9 active torsions:
REMARK  status: ('A' for Active; 'I' for Inactive)
REMARK    1  A    between atoms: C_7  and  C_34 
REMARK    2  A    between atoms: N_10  and  C_13 
REMARK    3  A    between atoms: C_15  and  N_22 
REMARK    4  A    between atoms: C_16  and  C_19 
REMARK       I    between atoms: C_19  and  N_21 
REMARK    5  A    between atoms: C_23  and  N_22 
REMARK    6  A    between atoms: C_26  and  O_29 
REMARK    7  A    between atoms: O_29  and  C_30 
REMARK    8  A    between atoms: C_30  and  C_32 
REMARK    9  A    between atoms: C_32  and  N_33 
ROOT
HETATM    1  C   UNK N   1      25.377  14.583   6.819  0.00  0.00     0.058 A 
HETATM    2  C   UNK N   1      24.321  14.741   5.955  0.00  0.00     0.061 A 
HETATM    3  C   UNK N   1      23.062  14.216   6.212  0.00  0.00     0.046 A 
HETATM    4  C   UNK N   1      22.868  13.436   7.380  0.00  0.00     0.058 A 
HETATM    5  C   UNK N   1      23.974  13.184   8.212  0.00  0.00     0.022 A 
HETATM    6  C   UNK N   1      25.209  13.778   7.951  0.00  0.00     0.032 A 
ENDROOT
BRANCH   1   7
HETATM    7  N   UNK N   1      26.453  15.528   6.710  0.00  0.00    -0.259 N 
HETATM    8  N   UNK N   1      26.726  16.448   7.623  0.00  0.00    -0.288 N 
HETATM    9  C   UNK N   1      27.945  16.971   7.356  0.00  0.00     0.148 A 
ATOM     10  HN  UNK N   1      26.119  16.716   8.398  1.00  0.00     0.187 HD
HETATM   11  C   UNK N   1      28.445  16.344   6.207  0.00  0.00     0.067 A 
HETATM   12  C   UNK N   1      29.726  16.405   5.477  0.00  0.00     0.164 C 
HETATM   13  C   UNK N   1      27.481  15.443   5.846  0.00  0.00     0.051 A 
HETATM   14  C   UNK N   1      29.961  15.457   4.321  0.00  0.00     0.093 C 
HETATM   15  O   UNK N   1      30.620  17.153   5.825  0.00  0.00    -0.292 OA
HETATM   16  C   UNK N   1      28.700  14.762   3.756  0.00  0.00    -0.036 C 
HETATM   17  C   UNK N   1      28.014  15.647   2.734  0.00  0.00     0.015 C 
HETATM   18  C   UNK N   1      27.679  14.380   4.815  0.00  0.00     0.069 C 
HETATM   19  C   UNK N   1      29.132  13.483   3.069  0.00  0.00     0.015 C 
BRANCH   9  20
HETATM   20  C   UNK N   1      28.603  17.952   8.295  0.00  0.00     0.434 C 
HETATM   21  F   UNK N   1      28.809  19.156   7.651  0.00  0.00    -0.165 F 
HETATM   22  F   UNK N   1      27.758  18.165   9.371  0.00  0.00    -0.165 F 
HETATM   23  F   UNK N   1      29.808  17.500   8.787  0.00  0.00    -0.165 F 
ENDBRANCH   9  20
ENDBRANCH   1   7
BRANCH   3  24
HETATM   24  N   UNK N   1      21.982  14.636   5.384  0.00  0.00    -0.384 N 
HETATM   25  H   UNK N   1      21.738  14.094   4.598  0.00  0.00     0.160 HD
BRANCH  24  26
HETATM   26  C   UNK N   1      21.228  15.857   5.677  0.00  0.00     0.082 C 
HETATM   27  C   UNK N   1      21.998  17.160   5.431  0.00  0.00     0.028 C 
HETATM   28  C   UNK N   1      22.266  17.326   3.936  0.00  0.00     0.034 C 
HETATM   29  C   UNK N   1      20.935  17.528   3.233  0.00  0.00     0.132 C 
HETATM   30  C   UNK N   1      20.042  16.295   3.464  0.00  0.00     0.034 C 
HETATM   31  C   UNK N   1      19.887  15.912   4.945  0.00  0.00     0.028 C 
BRANCH  29  32
HETATM   32  O   UNK N   1      20.368  18.688   3.722  0.00  0.00    -0.315 OA
BRANCH  32  33
HETATM   33  C   UNK N   1      20.554  19.888   3.111  0.00  0.00     0.276 C 
HETATM   34  O   UNK N   1      20.295  20.916   3.713  0.00  0.00    -0.263 OA
BRANCH  33  35
HETATM   35  C   UNK N   1      21.074  19.972   1.706  0.00  0.00     0.223 C 
BRANCH  35  36
HETATM   36  N   UNK N   1      20.226  20.860   0.928  0.00  0.00    -0.422 N 
HETATM   37  H   UNK N   1      20.644  21.593   0.355  0.00  0.00     0.150 HD
HETATM   38  H   UNK N   1      19.212  20.750   0.955  0.00  0.00     0.150 HD
ENDBRANCH  35  36
ENDBRANCH  33  35
ENDBRANCH  32  33
ENDBRANCH  29  32
ENDBRANCH  24  26
ENDBRANCH   3  24
BRANCH   4  39
HETATM   39  C   UNK N   1      21.534  12.965   7.832  0.00  0.00     0.251 C 
HETATM   40  O   UNK N   1      20.752  12.491   7.020  0.00  0.00    -0.268 OA
HETATM   41  N   UNK N   1      21.194  12.982   9.136  0.00  0.00    -0.366 N 
HETATM   42  H   UNK N   1      20.283  12.768   9.444  0.00  0.00     0.159 HD
HETATM   43  H   UNK N   1      21.878  13.215   9.803  0.00  0.00     0.159 HD
ENDBRANCH   4  39
TORSDOF 9
ENDMDL
MODEL 5
REMARK VINA RESULT:      -7.6      7.483     11.527
REMARK  9 active torsions:
REMARK  status: ('A' for Active; 'I' for Inactive)
REMARK    1  A    between atoms: C_7  and  C_34 
REMARK    2  A    between atoms: N_10  and  C_13 
REMARK    3  A    between atoms: C_15  and  N_22 
REMARK    4  A    between atoms: C_16  and  C_19 
REMARK       I    between atoms: C_19  and  N_21 
REMARK    5  A    between atoms: C_23  and  N_22 
REMARK    6  A    between atoms: C_26  and  O_29 
REMARK    7  A    between atoms: O_29  and  C_30 
REMARK    8  A    between atoms: C_30  and  C_32 
REMARK    9  A    between atoms: C_32  and  N_33 
ROOT
HETATM    1  C   UNK N   1      27.819  18.584   4.892  0.00  0.00     0.058 A 
HETATM    2  C   UNK N   1      26.746  17.788   4.570  0.00  0.00     0.061 A 
HETATM    3  C   UNK N   1      25.621  18.278   3.922  0.00  0.00     0.046 A 
HETATM    4  C   UNK N   1      25.546  19.664   3.631  0.00  0.00     0.058 A 
HETATM    5  C   UNK N   1      26.596  20.499   4.053  0.00  0.00     0.022 A 
HETATM    6  C   UNK N   1      27.736  19.959   4.650  0.00  0.00     0.032 A 
ENDROOT
BRANCH   1   7
HETATM    7  N   UNK N   1      29.076  17.923   5.109  0.00  0.00    -0.259 N 
HETATM    8  N   UNK N   1      29.885  17.534   4.135  0.00  0.00    -0.288 N 
HETATM    9  C   UNK N   1      31.084  17.214   4.675  0.00  0.00     0.148 A 
ATOM     10  HN  UNK N   1      29.645  17.484   3.145  1.00  0.00     0.187 HD
HETATM   11  C   UNK N   1      31.003  17.407   6.060  0.00  0.00     0.067 A 
HETATM   12  C   UNK N   1      31.973  17.323   7.169  0.00  0.00     0.164 C 
HETATM   13  C   UNK N   1      29.731  17.861   6.281  0.00  0.00     0.051 A 
HETATM   14  C   UNK N   1      31.543  17.744   8.558  0.00  0.00     0.093 C 
HETATM   15  O   UNK N   1      33.127  16.986   6.979  0.00  0.00    -0.292 OA
HETATM   16  C   UNK N   1      30.018  17.869   8.779  0.00  0.00    -0.036 C 
HETATM   17  C   UNK N   1      29.417  16.523   9.131  0.00  0.00     0.015 C 
HETATM   18  C   UNK N   1      29.264  18.427   7.583  0.00  0.00     0.069 C 
HETATM   19  C   UNK N   1      29.784  18.816   9.938  0.00  0.00     0.015 C 
BRANCH   9  20
HETATM   20  C   UNK N   1      32.268  16.862   3.808  0.00  0.00     0.434 C 
HETATM   21  F   UNK N   1      33.297  17.756   4.030  0.00  0.00    -0.165 F 
HETATM   22  F   UNK N   1      32.703  15.593   4.152  0.00  0.00    -0.165 F 
HETATM   23  F   UNK N   1      31.968  16.856   2.463  0.00  0.00    -0.165 F 
ENDBRANCH   9  20
ENDBRANCH   1   7
BRANCH   3  24
HETATM   24  N   UNK N   1      24.676  17.338   3.420  0.00  0.00    -0.384 N 
HETATM   25  H   UNK N   1      24.383  17.403   2.482  0.00  0.00     0.160 HD
BRANCH  24  26
HETATM   26  C   UNK N   1      24.131  16.278   4.271  0.00  0.00     0.082 C 
HETATM   27  C   UNK N   1      23.519  16.766   5.590  0.00  0.00     0.028 C 
HETATM   28  C   UNK N   1      22.266  17.592   5.302  0.00  0.00     0.034 C 
HETATM   29  C   UNK N   1      21.215  16.671   4.708  0.00  0.00     0.132 C 
HETATM   30  C   UNK N   1      21.747  16.066   3.396  0.00  0.00     0.034 C 
HETATM   31  C   UNK N   1      23.123  15.393   3.538  0.00  0.00     0.028 C 
BRANCH  29  32
HETATM   32  O   UNK N   1      20.914  15.707   5.649  0.00  0.00    -0.315 OA
BRANCH  32  33
HETATM   33  C   UNK N   1      19.886  15.859   6.527  0.00  0.00     0.276 C 
HETATM   34  O   UNK N   1      18.738  15.817   6.120  0.00  0.00    -0.263 OA
BRANCH  33  35
HETATM   35  C   UNK N   1      20.139  16.079   7.989  0.00  0.00     0.223 C 
BRANCH  35  36
HETATM   36  N   UNK N   1      19.953  17.485   8.307  0.00  0.00    -0.422 N 
HETATM   37  H   UNK N   1      20.266  17.850   9.207  0.00  0.00     0.150 HD
HETATM   38  H   UNK N   1      19.508  18.106   7.631  0.00  0.00     0.150 HD
ENDBRANCH  35  36
ENDBRANCH  33  35
ENDBRANCH  32  33
ENDBRANCH  29  32
ENDBRANCH  24  26
ENDBRANCH   3  24
BRANCH   4  39
HETATM   39  C   UNK N   1      24.468  20.264   2.803  0.00  0.00     0.251 C 
HETATM   40  O   UNK N   1      24.737  20.737   1.709  0.00  0.00    -0.268 OA
HETATM   41  N   UNK N   1      23.182  20.233   3.205  0.00  0.00    -0.366 N 
HETATM   42  H   UNK N   1      22.469  20.710   2.721  0.00  0.00     0.159 HD
HETATM   43  H   UNK N   1      22.946  19.715   4.007  0.00  0.00     0.159 HD
ENDBRANCH   4  39
TORSDOF 9
ENDMDL
MODEL 6
REMARK VINA RESULT:      -7.6      7.066     11.480
REMARK  9 active torsions:
REMARK  status: ('A' for Active; 'I' for Inactive)
REMARK    1  A    between atoms: C_7  and  C_34 
REMARK    2  A    between atoms: N_10  and  C_13 
REMARK    3  A    between atoms: C_15  and  N_22 
REMARK    4  A    between atoms: C_16  and  C_19 
REMARK       I    between atoms: C_19  and  N_21 
REMARK    5  A    between atoms: C_23  and  N_22 
REMARK    6  A    between atoms: C_26  and  O_29 
REMARK    7  A    between atoms: O_29  and  C_30 
REMARK    8  A    between atoms: C_30  and  C_32 
REMARK    9  A    between atoms: C_32  and  N_33 
ROOT
HETATM    1  C   UNK N   1      28.056  16.497   3.942  0.00  0.00     0.058 A 
HETATM    2  C   UNK N   1      29.036  16.741   4.874  0.00  0.00     0.061 A 
HETATM    3  C   UNK N   1      30.352  16.336   4.696  0.00  0.00     0.046 A 
HETATM    4  C   UNK N   1      30.691  15.592   3.537  0.00  0.00     0.058 A 
HETATM    5  C   UNK N   1      29.668  15.250   2.634  0.00  0.00     0.022 A 
HETATM    6  C   UNK N   1      28.369  15.725   2.819  0.00  0.00     0.032 A 
ENDROOT
BRANCH   1   7
HETATM    7  N   UNK N   1      26.894  17.340   3.988  0.00  0.00    -0.259 N 
HETATM    8  N   UNK N   1      26.885  18.610   3.614  0.00  0.00    -0.288 N 
HETATM    9  C   UNK N   1      25.599  19.020   3.513  0.00  0.00     0.148 A 
ATOM     10  HN  UNK N   1      27.709  19.183   3.433  1.00  0.00     0.187 HD
HETATM   11  C   UNK N   1      24.771  17.943   3.855  0.00  0.00     0.067 A 
HETATM   12  C   UNK N   1      23.312  17.727   3.854  0.00  0.00     0.164 C 
HETATM   13  C   UNK N   1      25.627  16.912   4.134  0.00  0.00     0.051 A 
HETATM   14  C   UNK N   1      22.770  16.349   4.168  0.00  0.00     0.093 C 
HETATM   15  O   UNK N   1      22.539  18.614   3.543  0.00  0.00    -0.292 OA
HETATM   16  C   UNK N   1      23.767  15.372   4.834  0.00  0.00    -0.036 C 
HETATM   17  C   UNK N   1      23.791  15.573   6.336  0.00  0.00     0.015 C 
HETATM   18  C   UNK N   1      25.191  15.494   4.316  0.00  0.00     0.069 C 
HETATM   19  C   UNK N   1      23.307  13.958   4.548  0.00  0.00     0.015 C 
BRANCH   9  20
HETATM   20  C   UNK N   1      25.249  20.385   2.974  0.00  0.00     0.434 C 
HETATM   21  F   UNK N   1      24.540  20.259   1.795  0.00  0.00    -0.165 F 
HETATM   22  F   UNK N   1      24.450  21.033   3.902  0.00  0.00    -0.165 F 
HETATM   23  F   UNK N   1      26.355  21.174   2.745  0.00  0.00    -0.165 F 
ENDBRANCH   9  20
ENDBRANCH   1   7
BRANCH   3  24
HETATM   24  N   UNK N   1      31.335  16.842   5.595  0.00  0.00    -0.384 N 
HETATM   25  H   UNK N   1      31.636  17.775   5.504  0.00  0.00     0.160 HD
BRANCH  24  26
HETATM   26  C   UNK N   1      31.904  16.002   6.650  0.00  0.00     0.082 C 
HETATM   27  C   UNK N   1      33.364  15.588   6.422  0.00  0.00     0.028 C 
HETATM   28  C   UNK N   1      34.266  16.818   6.499  0.00  0.00     0.034 C 
HETATM   29  C   UNK N   1      34.234  17.344   7.924  0.00  0.00     0.132 C 
HETATM   30  C   UNK N   1      32.791  17.738   8.292  0.00  0.00     0.034 C 
HETATM   31  C   UNK N   1      31.762  16.624   8.040  0.00  0.00     0.028 C 
BRANCH  29  32
HETATM   32  O   UNK N   1      34.739  16.360   8.752  0.00  0.00    -0.315 OA
BRANCH  32  33
HETATM   33  C   UNK N   1      35.107  16.624  10.033  0.00  0.00     0.276 C 
HETATM   34  O   UNK N   1      35.660  17.680  10.294  0.00  0.00    -0.263 OA
BRANCH  33  35
HETATM   35  C   UNK N   1      34.845  15.641  11.136  0.00  0.00     0.223 C 
BRANCH  35  36
HETATM   36  N   UNK N   1      33.580  14.968  10.894  0.00  0.00    -0.422 N 
HETATM   37  H   UNK N   1      33.224  14.877   9.942  0.00  0.00     0.150 HD
HETATM   38  H   UNK N   1      33.047  14.588  11.676  0.00  0.00     0.150 HD
ENDBRANCH  35  36
ENDBRANCH  33  35
ENDBRANCH  32  33
ENDBRANCH  29  32
ENDBRANCH  24  26
ENDBRANCH   3  24
BRANCH   4  39
HETATM   39  C   UNK N   1      32.089  15.249   3.170  0.00  0.00     0.251 C 
HETATM   40  O   UNK N   1      32.476  14.094   3.270  0.00  0.00    -0.268 OA
HETATM   41  N   UNK N   1      32.921  16.177   2.656  0.00  0.00    -0.366 N 
HETATM   42  H   UNK N   1      33.877  15.995   2.500  0.00  0.00     0.159 HD
HETATM   43  H   UNK N   1      32.563  17.064   2.429  0.00  0.00     0.159 HD
ENDBRANCH   4  39
TORSDOF 9
ENDMDL
MODEL 7
REMARK VINA RESULT:      -7.6     10.782     14.735
REMARK  9 active torsions:
REMARK  status: ('A' for Active; 'I' for Inactive)
REMARK    1  A    between atoms: C_7  and  C_34 
REMARK    2  A    between atoms: N_10  and  C_13 
REMARK    3  A    between atoms: C_15  and  N_22 
REMARK    4  A    between atoms: C_16  and  C_19 
REMARK       I    between atoms: C_19  and  N_21 
REMARK    5  A    between atoms: C_23  and  N_22 
REMARK    6  A    between atoms: C_26  and  O_29 
REMARK    7  A    between atoms: O_29  and  C_30 
REMARK    8  A    between atoms: C_30  and  C_32 
REMARK    9  A    between atoms: C_32  and  N_33 
ROOT
HETATM    1  C   UNK N   1      21.815  16.693   3.720  0.00  0.00     0.058 A 
HETATM    2  C   UNK N   1      21.439  16.383   5.004  0.00  0.00     0.061 A 
HETATM    3  C   UNK N   1      20.479  15.421   5.289  0.00  0.00     0.046 A 
HETATM    4  C   UNK N   1      19.818  14.772   4.215  0.00  0.00     0.058 A 
HETATM    5  C   UNK N   1      20.126  15.163   2.900  0.00  0.00     0.022 A 
HETATM    6  C   UNK N   1      21.137  16.092   2.654  0.00  0.00     0.032 A 
ENDROOT
BRANCH   1   7
HETATM    7  N   UNK N   1      23.098  17.318   3.552  0.00  0.00    -0.259 N 
HETATM    8  N   UNK N   1      23.276  18.626   3.450  0.00  0.00    -0.288 N 
HETATM    9  C   UNK N   1      24.595  18.893   3.589  0.00  0.00     0.148 A 
ATOM     10  HN  UNK N   1      22.542  19.317   3.292  1.00  0.00     0.187 HD
HETATM   11  C   UNK N   1      25.267  17.678   3.777  0.00  0.00     0.067 A 
HETATM   12  C   UNK N   1      26.665  17.310   4.071  0.00  0.00     0.164 C 
HETATM   13  C   UNK N   1      24.286  16.723   3.757  0.00  0.00     0.051 A 
HETATM   14  C   UNK N   1      27.004  15.861   4.349  0.00  0.00     0.093 C 
HETATM   15  O   UNK N   1      27.538  18.153   4.160  0.00  0.00    -0.292 OA
HETATM   16  C   UNK N   1      25.931  14.830   3.931  0.00  0.00    -0.036 C 
HETATM   17  C   UNK N   1      26.084  14.460   2.469  0.00  0.00     0.015 C 
HETATM   18  C   UNK N   1      24.502  15.299   4.155  0.00  0.00     0.069 C 
HETATM   19  C   UNK N   1      26.127  13.579   4.764  0.00  0.00     0.015 C 
BRANCH   9  20
HETATM   20  C   UNK N   1      25.108  20.310   3.657  0.00  0.00     0.434 C 
HETATM   21  F   UNK N   1      24.092  21.195   3.355  0.00  0.00    -0.165 F 
HETATM   22  F   UNK N   1      25.542  20.559   4.949  0.00  0.00    -0.165 F 
HETATM   23  F   UNK N   1      26.166  20.540   2.804  0.00  0.00    -0.165 F 
ENDBRANCH   9  20
ENDBRANCH   1   7
BRANCH   3  24
HETATM   24  N   UNK N   1      20.334  15.002   6.643  0.00  0.00    -0.384 N 
HETATM   25  H   UNK N   1      19.461  14.669   6.953  0.00  0.00     0.160 HD
BRANCH  24  26
HETATM   26  C   UNK N   1      21.457  15.059   7.581  0.00  0.00     0.082 C 
HETATM   27  C   UNK N   1      21.057  15.238   9.051  0.00  0.00     0.028 C 
HETATM   28  C   UNK N   1      20.321  13.990   9.539  0.00  0.00     0.034 C 
HETATM   29  C   UNK N   1      21.302  12.831   9.547  0.00  0.00     0.132 C 
HETATM   30  C   UNK N   1      21.826  12.594   8.118  0.00  0.00     0.034 C 
HETATM   31  C   UNK N   1      22.394  13.857   7.451  0.00  0.00     0.028 C 
BRANCH  29  32
HETATM   32  O   UNK N   1      22.314  13.136  10.435  0.00  0.00    -0.315 OA
BRANCH  32  33
HETATM   33  C   UNK N   1      22.641  12.304  11.459  0.00  0.00     0.276 C 
HETATM   34  O   UNK N   1      21.760  11.844  12.165  0.00  0.00    -0.263 OA
BRANCH  33  35
HETATM   35  C   UNK N   1      24.069  11.938  11.737  0.00  0.00     0.223 C 
BRANCH  35  36
HETATM   36  N   UNK N   1      24.941  12.670  10.834  0.00  0.00    -0.422 N 
HETATM   37  H   UNK N   1      25.948  12.507  10.853  0.00  0.00     0.150 HD
HETATM   38  H   UNK N   1      24.547  13.348  10.182  0.00  0.00     0.150 HD
ENDBRANCH  35  36
ENDBRANCH  33  35
ENDBRANCH  32  33
ENDBRANCH  29  32
ENDBRANCH  24  26
ENDBRANCH   3  24
BRANCH   4  39
HETATM   39  C   UNK N   1      18.897  13.621   4.403  0.00  0.00     0.251 C 
HETATM   40  O   UNK N   1      17.826  13.788   4.968  0.00  0.00    -0.268 OA
HETATM   41  N   UNK N   1      19.189  12.406   3.897  0.00  0.00    -0.366 N 
HETATM   42  H   UNK N   1      18.643  11.611   4.095  0.00  0.00     0.159 HD
HETATM   43  H   UNK N   1      19.972  12.310   3.310  0.00  0.00     0.159 HD
ENDBRANCH   4  39
TORSDOF 9
ENDMDL
MODEL 8
REMARK VINA RESULT:      -7.5      6.536     10.483
REMARK  9 active torsions:
REMARK  status: ('A' for Active; 'I' for Inactive)
REMARK    1  A    between atoms: C_7  and  C_34 
REMARK    2  A    between atoms: N_10  and  C_13 
REMARK    3  A    between atoms: C_15  and  N_22 
REMARK    4  A    between atoms: C_16  and  C_19 
REMARK       I    between atoms: C_19  and  N_21 
REMARK    5  A    between atoms: C_23  and  N_22 
REMARK    6  A    between atoms: C_26  and  O_29 
REMARK    7  A    between atoms: O_29  and  C_30 
REMARK    8  A    between atoms: C_30  and  C_32 
REMARK    9  A    between atoms: C_32  and  N_33 
ROOT
HETATM    1  C   UNK N   1      29.176  17.094   6.124  0.00  0.00     0.058 A 
HETATM    2  C   UNK N   1      28.463  17.678   5.106  0.00  0.00     0.061 A 
HETATM    3  C   UNK N   1      27.704  18.826   5.289  0.00  0.00     0.046 A 
HETATM    4  C   UNK N   1      27.611  19.388   6.588  0.00  0.00     0.058 A 
HETATM    5  C   UNK N   1      28.255  18.732   7.652  0.00  0.00     0.022 A 
HETATM    6  C   UNK N   1      29.056  17.614   7.417  0.00  0.00     0.032 A 
ENDROOT
BRANCH   1   7
HETATM    7  N   UNK N   1      30.265  16.238   5.745  0.00  0.00    -0.259 N 
HETATM    8  N   UNK N   1      30.209  15.366   4.750  0.00  0.00    -0.288 N 
HETATM    9  C   UNK N   1      31.465  14.938   4.481  0.00  0.00     0.148 A 
ATOM     10  HN  UNK N   1      29.362  15.067   4.267  1.00  0.00     0.187 HD
HETATM   11  C   UNK N   1      32.341  15.576   5.370  0.00  0.00     0.067 A 
HETATM   12  C   UNK N   1      33.808  15.604   5.526  0.00  0.00     0.164 C 
HETATM   13  C   UNK N   1      31.545  16.387   6.133  0.00  0.00     0.051 A 
HETATM   14  C   UNK N   1      34.423  16.539   6.544  0.00  0.00     0.093 C 
HETATM   15  O   UNK N   1      34.535  14.940   4.811  0.00  0.00    -0.292 OA
HETATM   16  C   UNK N   1      33.452  17.115   7.600  0.00  0.00    -0.036 C 
HETATM   17  C   UNK N   1      33.292  16.152   8.760  0.00  0.00     0.015 C 
HETATM   18  C   UNK N   1      32.069  17.437   7.057  0.00  0.00     0.069 C 
HETATM   19  C   UNK N   1      34.038  18.408   8.128  0.00  0.00     0.015 C 
BRANCH   9  20
HETATM   20  C   UNK N   1      31.755  14.038   3.306  0.00  0.00     0.434 C 
HETATM   21  F   UNK N   1      30.582  13.737   2.642  0.00  0.00    -0.165 F 
HETATM   22  F   UNK N   1      32.596  14.711   2.434  0.00  0.00    -0.165 F 
HETATM   23  F   UNK N   1      32.375  12.863   3.668  0.00  0.00    -0.165 F 
ENDBRANCH   9  20
ENDBRANCH   1   7
BRANCH   3  24
HETATM   24  N   UNK N   1      27.201  19.487   4.132  0.00  0.00    -0.384 N 
HETATM   25  H   UNK N   1      27.552  20.376   3.894  0.00  0.00     0.160 HD
BRANCH  24  26
HETATM   26  C   UNK N   1      26.173  18.871   3.290  0.00  0.00     0.082 C 
HETATM   27  C   UNK N   1      25.195  17.957   4.039  0.00  0.00     0.028 C 
HETATM   28  C   UNK N   1      24.340  18.790   4.994  0.00  0.00     0.034 C 
HETATM   29  C   UNK N   1      23.455  19.705   4.166  0.00  0.00     0.132 C 
HETATM   30  C   UNK N   1      24.336  20.638   3.315  0.00  0.00     0.034 C 
HETATM   31  C   UNK N   1      25.388  19.897   2.473  0.00  0.00     0.028 C 
BRANCH  29  32
HETATM   32  O   UNK N   1      22.628  18.913   3.394  0.00  0.00    -0.315 OA
BRANCH  32  33
HETATM   33  C   UNK N   1      21.286  19.124   3.335  0.00  0.00     0.276 C 
HETATM   34  O   UNK N   1      20.766  19.906   4.113  0.00  0.00    -0.263 OA
BRANCH  33  35
HETATM   35  C   UNK N   1      20.432  18.414   2.327  0.00  0.00     0.223 C 
BRANCH  35  36
HETATM   36  N   UNK N   1      19.360  17.710   3.012  0.00  0.00    -0.422 N 
HETATM   37  H   UNK N   1      18.473  17.544   2.537  0.00  0.00     0.150 HD
HETATM   38  H   UNK N   1      19.495  17.382   3.969  0.00  0.00     0.150 HD
ENDBRANCH  35  36
ENDBRANCH  33  35
ENDBRANCH  32  33
ENDBRANCH  29  32
ENDBRANCH  24  26
ENDBRANCH   3  24
BRANCH   4  39
HETATM   39  C   UNK N   1      26.963  20.696   6.865  0.00  0.00     0.251 C 
HETATM   40  O   UNK N   1      27.155  21.638   6.110  0.00  0.00    -0.268 OA
HETATM   41  N   UNK N   1      26.106  20.845   7.894  0.00  0.00    -0.366 N 
HETATM   42  H   UNK N   1      25.745  21.724   8.153  0.00  0.00     0.159 HD
HETATM   43  H   UNK N   1      25.832  20.049   8.404  0.00  0.00     0.159 HD
ENDBRANCH   4  39
TORSDOF 9
ENDMDL
MODEL 9
REMARK VINA RESULT:      -7.5      2.932      4.202
REMARK  9 active torsions:
REMARK  status: ('A' for Active; 'I' for Inactive)
REMARK    1  A    between atoms: C_7  and  C_34 
REMARK    2  A    between atoms: N_10  and  C_13 
REMARK    3  A    between atoms: C_15  and  N_22 
REMARK    4  A    between atoms: C_16  and  C_19 
REMARK       I    between atoms: C_19  and  N_21 
REMARK    5  A    between atoms: C_23  and  N_22 
REMARK    6  A    between atoms: C_26  and  O_29 
REMARK    7  A    between atoms: O_29  and  C_30 
REMARK    8  A    between atoms: C_30  and  C_32 
REMARK    9  A    between atoms: C_32  and  N_33 
ROOT
HETATM    1  C   UNK N   1      34.685  14.542  10.968  0.00  0.00     0.058 A 
HETATM    2  C   UNK N   1      33.875  14.528   9.859  0.00  0.00     0.061 A 
HETATM    3  C   UNK N   1      33.818  15.587   8.963  0.00  0.00     0.046 A 
HETATM    4  C   UNK N   1      34.578  16.754   9.231  0.00  0.00     0.058 A 
HETATM    5  C   UNK N   1      35.326  16.812  10.420  0.00  0.00     0.022 A 
HETATM    6  C   UNK N   1      35.403  15.705  11.265  0.00  0.00     0.032 A 
ENDROOT
BRANCH   1   7
HETATM    7  N   UNK N   1      35.026  13.269  11.538  0.00  0.00    -0.259 N 
HETATM    8  N   UNK N   1      35.032  12.131  10.860  0.00  0.00    -0.288 N 
HETATM    9  C   UNK N   1      35.663  11.191  11.601  0.00  0.00     0.148 A 
ATOM     10  HN  UNK N   1      34.629  11.989   9.933  1.00  0.00     0.187 HD
HETATM   11  C   UNK N   1      36.057  11.782  12.809  0.00  0.00     0.067 A 
HETATM   12  C   UNK N   1      36.844  11.323  13.969  0.00  0.00     0.164 C 
HETATM   13  C   UNK N   1      35.646  13.084  12.718  0.00  0.00     0.051 A 
HETATM   14  C   UNK N   1      37.190  12.311  15.062  0.00  0.00     0.093 C 
HETATM   15  O   UNK N   1      37.275  10.187  14.035  0.00  0.00    -0.292 OA
HETATM   16  C   UNK N   1      36.375  13.624  15.062  0.00  0.00    -0.036 C 
HETATM   17  C   UNK N   1      35.067  13.442  15.808  0.00  0.00     0.015 C 
HETATM   18  C   UNK N   1      36.059  14.156  13.673  0.00  0.00     0.069 C 
HETATM   19  C   UNK N   1      37.187  14.686  15.774  0.00  0.00     0.015 C 
BRANCH   9  20
HETATM   20  C   UNK N   1      35.954   9.818  11.048  0.00  0.00     0.434 C 
HETATM   21  F   UNK N   1      35.401   9.690   9.789  0.00  0.00    -0.165 F 
HETATM   22  F   UNK N   1      37.328   9.669  10.944  0.00  0.00    -0.165 F 
HETATM   23  F   UNK N   1      35.478   8.803  11.848  0.00  0.00    -0.165 F 
ENDBRANCH   9  20
ENDBRANCH   1   7
BRANCH   3  24
HETATM   24  N   UNK N   1      33.140  15.382   7.727  0.00  0.00    -0.384 N 
HETATM   25  H   UNK N   1      33.656  15.380   6.889  0.00  0.00     0.160 HD
BRANCH  24  26
HETATM   26  C   UNK N   1      31.691  15.174   7.680  0.00  0.00     0.082 C 
HETATM   27  C   UNK N   1      30.875  16.152   8.536  0.00  0.00     0.028 C 
HETATM   28  C   UNK N   1      30.994  17.563   7.961  0.00  0.00     0.034 C 
HETATM   29  C   UNK N   1      30.315  17.582   6.602  0.00  0.00     0.132 C 
HETATM   30  C   UNK N   1      31.017  16.582   5.665  0.00  0.00     0.034 C 
HETATM   31  C   UNK N   1      31.143  15.167   6.253  0.00  0.00     0.028 C 
BRANCH  29  32
HETATM   32  O   UNK N   1      28.981  17.281   6.789  0.00  0.00    -0.315 OA
BRANCH  32  33
HETATM   33  C   UNK N   1      27.993  18.096   6.331  0.00  0.00     0.276 C 
HETATM   34  O   UNK N   1      27.241  17.697   5.459  0.00  0.00    -0.263 OA
BRANCH  33  35
HETATM   35  C   UNK N   1      27.810  19.479   6.882  0.00  0.00     0.223 C 
BRANCH  35  36
HETATM   36  N   UNK N   1      27.438  19.397   8.284  0.00  0.00    -0.422 N 
HETATM   37  H   UNK N   1      27.302  18.486   8.723  0.00  0.00     0.150 HD
HETATM   38  H   UNK N   1      27.311  20.250   8.830  0.00  0.00     0.150 HD
ENDBRANCH  35  36
ENDBRANCH  33  35
ENDBRANCH  32  33
ENDBRANCH  29  32
ENDBRANCH  24  26
ENDBRANCH   3  24
BRANCH   4  39
HETATM   39  C   UNK N   1      34.715  17.875   8.265  0.00  0.00     0.251 C 
HETATM   40  O   UNK N   1      34.560  17.667   7.070  0.00  0.00    -0.268 OA
HETATM   41  N   UNK N   1      34.937  19.136   8.688  0.00  0.00    -0.366 N 
HETATM   42  H   UNK N   1      35.129  19.872   8.063  0.00  0.00     0.159 HD
HETATM   43  H   UNK N   1      34.905  19.327   9.652  0.00  0.00     0.159 HD
ENDBRANCH   4  39
TORSDOF 9
ENDMDL
