MODEL 1
REMARK VINA RESULT:      -6.2      0.000      0.000
REMARK  6 active torsions:
REMARK  status: ('A' for Active; 'I' for Inactive)
REMARK    1  A    between atoms: C_6  and  C_2 
REMARK    2  A    between atoms: C_9  and  C_6 
REMARK    3  A    between atoms: O_11  and  C_6 
REMARK    4  A    between atoms: N_7  and  C_9 
REMARK    5  A    between atoms: C_10  and  N_7 
REMARK    6  A    between atoms: C_15  and  C_8 
ROOT
HETATM    1  O   UNK N   1      30.049  17.577   6.897  0.00  0.00    -0.311 OA
HETATM    2  C   UNK N   1      29.731  17.929   8.124  0.00  0.00     0.085 A 
HETATM    3  C   UNK N   1      31.347  17.487   6.818  0.00  0.00     0.092 A 
HETATM    4  C   UNK N   1      30.884  18.082   8.901  0.00  0.00     0.049 A 
HETATM    5  C   UNK N   1      31.909  17.787   8.026  0.00  0.00     0.001 A 
HETATM    6  C   UNK N   1      32.104  17.145   5.704  0.00  0.00    -0.024 A 
HETATM    7  C   UNK N   1      33.289  17.768   8.213  0.00  0.00     0.014 A 
HETATM    8  C   UNK N   1      34.095  17.426   7.108  0.00  0.00     0.002 A 
HETATM    9  C   UNK N   1      33.508  17.115   5.859  0.00  0.00     0.010 A 
ENDROOT
BRANCH   2  10
HETATM   10  C   UNK N   1      28.312  18.151   8.557  0.00  0.00     0.192 C 
BRANCH  10  11
HETATM   11  C   UNK N   1      27.663  19.325   7.825  0.00  0.00     0.153 C 
BRANCH  11  12
HETATM   12  N   UNK N   1      27.089  18.963   6.520  0.00  0.00    -0.411 N 
HETATM   13  H   UNK N   1      26.744  18.024   6.322  0.00  0.00     0.154 HD
BRANCH  12  14
HETATM   14  C   UNK N   1      27.042  20.042   5.517  0.00  0.00     0.014 C 
HETATM   15  C   UNK N   1      27.302  21.383   6.177  0.00  0.00     0.037 C 
HETATM   16  C   UNK N   1      28.156  19.802   4.520  0.00  0.00     0.037 C 
HETATM   17  C   UNK N   1      25.731  20.111   4.744  0.00  0.00     0.037 C 
ENDBRANCH  12  14
ENDBRANCH  11  12
ENDBRANCH  10  11
BRANCH  10  18
HETATM   18  O   UNK N   1      27.545  17.004   8.342  0.00  0.00    -0.387 OA
HETATM   19  H   UNK N   1      26.578  17.055   8.370  0.00  0.00     0.210 HD
ENDBRANCH  10  18
ENDBRANCH   2  10
BRANCH   6  20
HETATM   20  C   UNK N   1      31.416  16.827   4.405  0.00  0.00     0.037 C 
HETATM   21  C   UNK N   1      32.244  17.148   3.173  0.00  0.00     0.010 C 
ENDBRANCH   6  20
TORSDOF 6
ENDMDL
MODEL 2
REMARK VINA RESULT:      -6.1      1.698      3.629
REMARK  6 active torsions:
REMARK  status: ('A' for Active; 'I' for Inactive)
REMARK    1  A    between atoms: C_6  and  C_2 
REMARK    2  A    between atoms: C_9  and  C_6 
REMARK    3  A    between atoms: O_11  and  C_6 
REMARK    4  A    between atoms: N_7  and  C_9 
REMARK    5  A    between atoms: C_10  and  N_7 
REMARK    6  A    between atoms: C_15  and  C_8 
ROOT
HETATM    1  O   UNK N   1      30.345  16.995   5.926  0.00  0.00    -0.311 OA
HETATM    2  C   UNK N   1      30.674  16.870   4.658  0.00  0.00     0.085 A 
HETATM    3  C   UNK N   1      31.423  17.271   6.605  0.00  0.00     0.092 A 
HETATM    4  C   UNK N   1      32.047  17.072   4.490  0.00  0.00     0.049 A 
HETATM    5  C   UNK N   1      32.499  17.330   5.767  0.00  0.00     0.001 A 
HETATM    6  C   UNK N   1      31.527  17.481   7.975  0.00  0.00    -0.024 A 
HETATM    7  C   UNK N   1      33.778  17.608   6.242  0.00  0.00     0.014 A 
HETATM    8  C   UNK N   1      33.929  17.828   7.626  0.00  0.00     0.002 A 
HETATM    9  C   UNK N   1      32.811  17.766   8.490  0.00  0.00     0.010 A 
ENDROOT
BRANCH   2  10
HETATM   10  C   UNK N   1      29.673  16.523   3.596  0.00  0.00     0.192 C 
BRANCH  10  11
HETATM   11  C   UNK N   1      28.354  17.274   3.777  0.00  0.00     0.153 C 
BRANCH  11  12
HETATM   12  N   UNK N   1      28.523  18.662   4.234  0.00  0.00    -0.411 N 
HETATM   13  H   UNK N   1      29.346  19.214   3.995  0.00  0.00     0.154 HD
BRANCH  12  14
HETATM   14  C   UNK N   1      27.427  19.206   5.056  0.00  0.00     0.014 C 
HETATM   15  C   UNK N   1      26.879  20.473   4.427  0.00  0.00     0.037 C 
HETATM   16  C   UNK N   1      26.308  18.186   5.076  0.00  0.00     0.037 C 
HETATM   17  C   UNK N   1      27.822  19.494   6.499  0.00  0.00     0.037 C 
ENDBRANCH  12  14
ENDBRANCH  11  12
ENDBRANCH  10  11
BRANCH  10  18
HETATM   18  O   UNK N   1      30.183  16.806   2.327  0.00  0.00    -0.387 OA
HETATM   19  H   UNK N   1      29.580  16.952   1.582  0.00  0.00     0.210 HD
ENDBRANCH  10  18
ENDBRANCH   2  10
BRANCH   6  20
HETATM   20  C   UNK N   1      30.297  17.398   8.837  0.00  0.00     0.037 C 
HETATM   21  C   UNK N   1      29.928  18.709   9.512  0.00  0.00     0.010 C 
ENDBRANCH   6  20
TORSDOF 6
ENDMDL
MODEL 3
REMARK VINA RESULT:      -6.1      7.243      9.424
REMARK  6 active torsions:
REMARK  status: ('A' for Active; 'I' for Inactive)
REMARK    1  A    between atoms: C_6  and  C_2 
REMARK    2  A    between atoms: C_9  and  C_6 
REMARK    3  A    between atoms: O_11  and  C_6 
REMARK    4  A    between atoms: N_7  and  C_9 
REMARK    5  A    between atoms: C_10  and  N_7 
REMARK    6  A    between atoms: C_15  and  C_8 
ROOT
HETATM    1  O   UNK N   1      35.076  13.127  12.520  0.00  0.00    -0.311 OA
HETATM    2  C   UNK N   1      35.716  14.267  12.371  0.00  0.00     0.085 A 
HETATM    3  C   UNK N   1      35.183  12.755  13.765  0.00  0.00     0.092 A 
HETATM    4  C   UNK N   1      36.279  14.671  13.586  0.00  0.00     0.049 A 
HETATM    5  C   UNK N   1      35.914  13.672  14.464  0.00  0.00     0.001 A 
HETATM    6  C   UNK N   1      34.658  11.610  14.353  0.00  0.00    -0.024 A 
HETATM    7  C   UNK N   1      36.179  13.511  15.822  0.00  0.00     0.014 A 
HETATM    8  C   UNK N   1      35.665  12.363  16.458  0.00  0.00     0.002 A 
HETATM    9  C   UNK N   1      34.907  11.416  15.729  0.00  0.00     0.010 A 
ENDROOT
BRANCH   2  10
HETATM   10  C   UNK N   1      35.819  14.967  11.049  0.00  0.00     0.192 C 
BRANCH  10  11
HETATM   11  C   UNK N   1      34.491  15.592  10.621  0.00  0.00     0.153 C 
BRANCH  11  12
HETATM   12  N   UNK N   1      34.628  16.941  10.051  0.00  0.00    -0.411 N 
HETATM   13  H   UNK N   1      35.030  17.714  10.581  0.00  0.00     0.154 HD
BRANCH  12  14
HETATM   14  C   UNK N   1      34.148  17.105   8.667  0.00  0.00     0.014 C 
HETATM   15  C   UNK N   1      32.632  17.074   8.631  0.00  0.00     0.037 C 
HETATM   16  C   UNK N   1      34.588  18.469   8.179  0.00  0.00     0.037 C 
HETATM   17  C   UNK N   1      34.692  16.064   7.697  0.00  0.00     0.037 C 
ENDBRANCH  12  14
ENDBRANCH  11  12
ENDBRANCH  10  11
BRANCH  10  18
HETATM   18  O   UNK N   1      36.793  15.967  11.095  0.00  0.00    -0.387 OA
HETATM   19  H   UNK N   1      36.605  16.845  10.731  0.00  0.00     0.210 HD
ENDBRANCH  10  18
ENDBRANCH   2  10
BRANCH   6  20
HETATM   20  C   UNK N   1      33.862  10.643  13.519  0.00  0.00     0.037 C 
HETATM   21  C   UNK N   1      34.702   9.564  12.856  0.00  0.00     0.010 C 
ENDBRANCH   6  20
TORSDOF 6
ENDMDL
MODEL 4
REMARK VINA RESULT:      -5.8      6.682      9.069
REMARK  6 active torsions:
REMARK  status: ('A' for Active; 'I' for Inactive)
REMARK    1  A    between atoms: C_6  and  C_2 
REMARK    2  A    between atoms: C_9  and  C_6 
REMARK    3  A    between atoms: O_11  and  C_6 
REMARK    4  A    between atoms: N_7  and  C_9 
REMARK    5  A    between atoms: C_10  and  N_7 
REMARK    6  A    between atoms: C_15  and  C_8 
ROOT
HETATM    1  O   UNK N   1      36.133  14.905  12.714  0.00  0.00    -0.311 OA
HETATM    2  C   UNK N   1      36.157  14.914  11.399  0.00  0.00     0.085 A 
HETATM    3  C   UNK N   1      36.608  13.764  13.127  0.00  0.00     0.092 A 
HETATM    4  C   UNK N   1      36.676  13.708  10.915  0.00  0.00     0.049 A 
HETATM    5  C   UNK N   1      36.958  12.990  12.058  0.00  0.00     0.001 A 
HETATM    6  C   UNK N   1      36.760  13.338  14.442  0.00  0.00    -0.024 A 
HETATM    7  C   UNK N   1      37.492  11.715  12.224  0.00  0.00     0.014 A 
HETATM    8  C   UNK N   1      37.663  11.244  13.541  0.00  0.00     0.002 A 
HETATM    9  C   UNK N   1      37.300  12.049  14.646  0.00  0.00     0.010 A 
ENDROOT
BRANCH   2  10
HETATM   10  C   UNK N   1      35.651  16.071  10.590  0.00  0.00     0.192 C 
BRANCH  10  11
HETATM   11  C   UNK N   1      34.641  15.637   9.529  0.00  0.00     0.153 C 
BRANCH  11  12
HETATM   12  N   UNK N   1      33.407  16.438   9.525  0.00  0.00    -0.411 N 
HETATM   13  H   UNK N   1      32.768  16.451  10.319  0.00  0.00     0.154 HD
BRANCH  12  14
HETATM   14  C   UNK N   1      33.153  17.220   8.302  0.00  0.00     0.014 C 
HETATM   15  C   UNK N   1      33.093  16.302   7.096  0.00  0.00     0.037 C 
HETATM   16  C   UNK N   1      31.797  17.879   8.441  0.00  0.00     0.037 C 
HETATM   17  C   UNK N   1      34.180  18.316   8.045  0.00  0.00     0.037 C 
ENDBRANCH  12  14
ENDBRANCH  11  12
ENDBRANCH  10  11
BRANCH  10  18
HETATM   18  O   UNK N   1      35.056  17.027  11.416  0.00  0.00    -0.387 OA
HETATM   19  H   UNK N   1      34.433  17.670  11.044  0.00  0.00     0.210 HD
ENDBRANCH  10  18
ENDBRANCH   2  10
BRANCH   6  20
HETATM   20  C   UNK N   1      36.351  14.245  15.570  0.00  0.00     0.037 C 
HETATM   21  C   UNK N   1      37.392  15.293  15.926  0.00  0.00     0.010 C 
ENDBRANCH   6  20
TORSDOF 6
ENDMDL
MODEL 5
REMARK VINA RESULT:      -5.8      2.014      5.364
REMARK  6 active torsions:
REMARK  status: ('A' for Active; 'I' for Inactive)
REMARK    1  A    between atoms: C_6  and  C_2 
REMARK    2  A    between atoms: C_9  and  C_6 
REMARK    3  A    between atoms: O_11  and  C_6 
REMARK    4  A    between atoms: N_7  and  C_9 
REMARK    5  A    between atoms: C_10  and  N_7 
REMARK    6  A    between atoms: C_15  and  C_8 
ROOT
HETATM    1  O   UNK N   1      29.002  17.657   6.669  0.00  0.00    -0.311 OA
HETATM    2  C   UNK N   1      28.970  18.086   7.912  0.00  0.00     0.085 A 
HETATM    3  C   UNK N   1      28.326  18.490   5.928  0.00  0.00     0.092 A 
HETATM    4  C   UNK N   1      28.229  19.270   7.998  0.00  0.00     0.049 A 
HETATM    5  C   UNK N   1      27.830  19.502   6.699  0.00  0.00     0.001 A 
HETATM    6  C   UNK N   1      28.104  18.414   4.558  0.00  0.00    -0.024 A 
HETATM    7  C   UNK N   1      27.065  20.528   6.151  0.00  0.00     0.014 A 
HETATM    8  C   UNK N   1      26.816  20.490   4.764  0.00  0.00     0.002 A 
HETATM    9  C   UNK N   1      27.332  19.439   3.969  0.00  0.00     0.010 A 
ENDROOT
BRANCH   2  10
HETATM   10  C   UNK N   1      29.628  17.346   9.038  0.00  0.00     0.192 C 
BRANCH  10  11
HETATM   11  C   UNK N   1      31.025  16.852   8.666  0.00  0.00     0.153 C 
BRANCH  11  12
HETATM   12  N   UNK N   1      31.879  17.888   8.065  0.00  0.00    -0.411 N 
HETATM   13  H   UNK N   1      31.580  18.861   7.994  0.00  0.00     0.154 HD
BRANCH  12  14
HETATM   14  C   UNK N   1      33.192  17.434   7.573  0.00  0.00     0.014 C 
HETATM   15  C   UNK N   1      34.295  18.304   8.145  0.00  0.00     0.037 C 
HETATM   16  C   UNK N   1      33.417  16.024   8.075  0.00  0.00     0.037 C 
HETATM   17  C   UNK N   1      33.308  17.413   6.054  0.00  0.00     0.037 C 
ENDBRANCH  12  14
ENDBRANCH  11  12
ENDBRANCH  10  11
BRANCH  10  18
HETATM   18  O   UNK N   1      29.722  18.156  10.172  0.00  0.00    -0.387 OA
HETATM   19  H   UNK N   1      28.929  18.580  10.533  0.00  0.00     0.210 HD
ENDBRANCH  10  18
ENDBRANCH   2  10
BRANCH   6  20
HETATM   20  C   UNK N   1      28.682  17.268   3.772  0.00  0.00     0.037 C 
HETATM   21  C   UNK N   1      27.653  16.236   3.340  0.00  0.00     0.010 C 
ENDBRANCH   6  20
TORSDOF 6
ENDMDL
MODEL 6
REMARK VINA RESULT:      -5.8      3.013      6.395
REMARK  6 active torsions:
REMARK  status: ('A' for Active; 'I' for Inactive)
REMARK    1  A    between atoms: C_6  and  C_2 
REMARK    2  A    between atoms: C_9  and  C_6 
REMARK    3  A    between atoms: O_11  and  C_6 
REMARK    4  A    between atoms: N_7  and  C_9 
REMARK    5  A    between atoms: C_10  and  N_7 
REMARK    6  A    between atoms: C_15  and  C_8 
ROOT
HETATM    1  O   UNK N   1      32.058  17.607   7.580  0.00  0.00    -0.311 OA
HETATM    2  C   UNK N   1      33.353  17.805   7.463  0.00  0.00     0.085 A 
HETATM    3  C   UNK N   1      31.578  17.314   6.403  0.00  0.00     0.092 A 
HETATM    4  C   UNK N   1      33.753  17.637   6.133  0.00  0.00     0.049 A 
HETATM    5  C   UNK N   1      32.582  17.319   5.477  0.00  0.00     0.001 A 
HETATM    6  C   UNK N   1      30.257  17.034   6.075  0.00  0.00    -0.024 A 
HETATM    7  C   UNK N   1      32.337  17.040   4.135  0.00  0.00     0.014 A 
HETATM    8  C   UNK N   1      31.010  16.749   3.759  0.00  0.00     0.002 A 
HETATM    9  C   UNK N   1      29.974  16.745   4.722  0.00  0.00     0.010 A 
ENDROOT
BRANCH   2  10
HETATM   10  C   UNK N   1      34.218  18.190   8.626  0.00  0.00     0.192 C 
BRANCH  10  11
HETATM   11  C   UNK N   1      34.797  16.971   9.344  0.00  0.00     0.153 C 
BRANCH  11  12
HETATM   12  N   UNK N   1      33.789  15.960   9.697  0.00  0.00    -0.411 N 
HETATM   13  H   UNK N   1      32.994  16.175  10.298  0.00  0.00     0.154 HD
BRANCH  12  14
HETATM   14  C   UNK N   1      34.000  14.616   9.128  0.00  0.00     0.014 C 
HETATM   15  C   UNK N   1      32.762  14.166   8.376  0.00  0.00     0.037 C 
HETATM   16  C   UNK N   1      35.133  14.704   8.129  0.00  0.00     0.037 C 
HETATM   17  C   UNK N   1      34.369  13.559  10.161  0.00  0.00     0.037 C 
ENDBRANCH  12  14
ENDBRANCH  11  12
ENDBRANCH  10  11
BRANCH  10  18
HETATM   18  O   UNK N   1      35.270  19.009   8.209  0.00  0.00    -0.387 OA
HETATM   19  H   UNK N   1      35.089  19.908   7.893  0.00  0.00     0.210 HD
ENDBRANCH  10  18
ENDBRANCH   2  10
BRANCH   6  20
HETATM   20  C   UNK N   1      29.204  17.048   7.149  0.00  0.00     0.037 C 
HETATM   21  C   UNK N   1      28.552  18.405   7.355  0.00  0.00     0.010 C 
ENDBRANCH   6  20
TORSDOF 6
ENDMDL
MODEL 7
REMARK VINA RESULT:      -5.8      2.884      5.605
REMARK  6 active torsions:
REMARK  status: ('A' for Active; 'I' for Inactive)
REMARK    1  A    between atoms: C_6  and  C_2 
REMARK    2  A    between atoms: C_9  and  C_6 
REMARK    3  A    between atoms: O_11  and  C_6 
REMARK    4  A    between atoms: N_7  and  C_9 
REMARK    5  A    between atoms: C_10  and  N_7 
REMARK    6  A    between atoms: C_15  and  C_8 
ROOT
HETATM    1  O   UNK N   1      31.391  16.972   6.770  0.00  0.00    -0.311 OA
HETATM    2  C   UNK N   1      32.449  17.419   7.411  0.00  0.00     0.085 A 
HETATM    3  C   UNK N   1      30.329  17.291   7.455  0.00  0.00     0.092 A 
HETATM    4  C   UNK N   1      32.065  18.069   8.588  0.00  0.00     0.049 A 
HETATM    5  C   UNK N   1      30.690  17.969   8.584  0.00  0.00     0.001 A 
HETATM    6  C   UNK N   1      29.004  17.010   7.141  0.00  0.00    -0.024 A 
HETATM    7  C   UNK N   1      29.741  18.423   9.496  0.00  0.00     0.014 A 
HETATM    8  C   UNK N   1      28.385  18.160   9.215  0.00  0.00     0.002 A 
HETATM    9  C   UNK N   1      28.016  17.458   8.044  0.00  0.00     0.010 A 
ENDROOT
BRANCH   2  10
HETATM   10  C   UNK N   1      33.847  17.200   6.912  0.00  0.00     0.192 C 
BRANCH  10  11
HETATM   11  C   UNK N   1      33.887  16.926   5.409  0.00  0.00     0.153 C 
BRANCH  11  12
HETATM   12  N   UNK N   1      33.308  15.629   5.029  0.00  0.00    -0.411 N 
HETATM   13  H   UNK N   1      33.272  14.841   5.676  0.00  0.00     0.154 HD
BRANCH  12  14
HETATM   14  C   UNK N   1      32.781  15.538   3.655  0.00  0.00     0.014 C 
HETATM   15  C   UNK N   1      31.462  14.790   3.648  0.00  0.00     0.037 C 
HETATM   16  C   UNK N   1      32.511  16.944   3.164  0.00  0.00     0.037 C 
HETATM   17  C   UNK N   1      33.737  14.875   2.670  0.00  0.00     0.037 C 
ENDBRANCH  12  14
ENDBRANCH  11  12
ENDBRANCH  10  11
BRANCH  10  18
HETATM   18  O   UNK N   1      34.649  18.309   7.191  0.00  0.00    -0.387 OA
HETATM   19  H   UNK N   1      34.298  19.204   7.071  0.00  0.00     0.210 HD
ENDBRANCH  10  18
ENDBRANCH   2  10
BRANCH   6  20
HETATM   20  C   UNK N   1      28.682  16.257   5.879  0.00  0.00     0.037 C 
HETATM   21  C   UNK N   1      27.325  15.575   5.897  0.00  0.00     0.010 C 
ENDBRANCH   6  20
TORSDOF 6
ENDMDL
MODEL 8
REMARK VINA RESULT:      -5.7     10.998     12.640
REMARK  6 active torsions:
REMARK  status: ('A' for Active; 'I' for Inactive)
REMARK    1  A    between atoms: C_6  and  C_2 
REMARK    2  A    between atoms: C_9  and  C_6 
REMARK    3  A    between atoms: O_11  and  C_6 
REMARK    4  A    between atoms: N_7  and  C_9 
REMARK    5  A    between atoms: C_10  and  N_7 
REMARK    6  A    between atoms: C_15  and  C_8 
ROOT
HETATM    1  O   UNK N   1      28.978  22.800  -4.808  0.00  0.00    -0.311 OA
HETATM    2  C   UNK N   1      28.931  23.530  -3.714  0.00  0.00     0.085 A 
HETATM    3  C   UNK N   1      29.994  21.989  -4.718  0.00  0.00     0.092 A 
HETATM    4  C   UNK N   1      29.977  23.183  -2.853  0.00  0.00     0.049 A 
HETATM    5  C   UNK N   1      30.643  22.184  -3.532  0.00  0.00     0.001 A 
HETATM    6  C   UNK N   1      30.409  21.048  -5.653  0.00  0.00    -0.024 A 
HETATM    7  C   UNK N   1      31.770  21.443  -3.187  0.00  0.00     0.014 A 
HETATM    8  C   UNK N   1      32.225  20.476  -4.107  0.00  0.00     0.002 A 
HETATM    9  C   UNK N   1      31.549  20.278  -5.334  0.00  0.00     0.010 A 
ENDROOT
BRANCH   2  10
HETATM   10  C   UNK N   1      27.896  24.593  -3.498  0.00  0.00     0.192 C 
BRANCH  10  11
HETATM   11  C   UNK N   1      27.486  25.275  -4.803  0.00  0.00     0.153 C 
BRANCH  11  12
HETATM   12  N   UNK N   1      26.067  25.658  -4.850  0.00  0.00    -0.411 N 
HETATM   13  H   UNK N   1      25.319  24.966  -4.823  0.00  0.00     0.154 HD
BRANCH  12  14
HETATM   14  C   UNK N   1      25.795  27.104  -4.939  0.00  0.00     0.014 C 
HETATM   15  C   UNK N   1      26.862  27.789  -5.772  0.00  0.00     0.037 C 
HETATM   16  C   UNK N   1      24.472  27.288  -5.652  0.00  0.00     0.037 C 
HETATM   17  C   UNK N   1      25.696  27.798  -3.586  0.00  0.00     0.037 C 
ENDBRANCH  12  14
ENDBRANCH  11  12
ENDBRANCH  10  11
BRANCH  10  18
HETATM   18  O   UNK N   1      26.757  24.056  -2.893  0.00  0.00    -0.387 OA
HETATM   19  H   UNK N   1      26.738  23.121  -2.638  0.00  0.00     0.210 HD
ENDBRANCH  10  18
ENDBRANCH   2  10
BRANCH   6  20
HETATM   20  C   UNK N   1      29.646  20.889  -6.939  0.00  0.00     0.037 C 
HETATM   21  C   UNK N   1      29.534  19.451  -7.417  0.00  0.00     0.010 C 
ENDBRANCH   6  20
TORSDOF 6
ENDMDL
MODEL 9
REMARK VINA RESULT:      -5.6     11.037     13.352
REMARK  6 active torsions:
REMARK  status: ('A' for Active; 'I' for Inactive)
REMARK    1  A    between atoms: C_6  and  C_2 
REMARK    2  A    between atoms: C_9  and  C_6 
REMARK    3  A    between atoms: O_11  and  C_6 
REMARK    4  A    between atoms: N_7  and  C_9 
REMARK    5  A    between atoms: C_10  and  N_7 
REMARK    6  A    between atoms: C_15  and  C_8 
ROOT
HETATM    1  O   UNK N   1      36.291  11.644  15.562  0.00  0.00    -0.311 OA
HETATM    2  C   UNK N   1      36.374  12.711  14.797  0.00  0.00     0.085 A 
HETATM    3  C   UNK N   1      35.905  12.018  16.750  0.00  0.00     0.092 A 
HETATM    4  C   UNK N   1      36.025  13.856  15.521  0.00  0.00     0.049 A 
HETATM    5  C   UNK N   1      35.727  13.372  16.777  0.00  0.00     0.001 A 
HETATM    6  C   UNK N   1      35.692  11.212  17.862  0.00  0.00    -0.024 A 
HETATM    7  C   UNK N   1      35.317  14.030  17.934  0.00  0.00     0.014 A 
HETATM    8  C   UNK N   1      35.089  13.250  19.085  0.00  0.00     0.002 A 
HETATM    9  C   UNK N   1      35.275  11.848  19.052  0.00  0.00     0.010 A 
ENDROOT
BRANCH   2  10
HETATM   10  C   UNK N   1      36.820  12.645  13.367  0.00  0.00     0.192 C 
BRANCH  10  11
HETATM   11  C   UNK N   1      35.829  11.882  12.488  0.00  0.00     0.153 C 
BRANCH  11  12
HETATM   12  N   UNK N   1      36.089  10.437  12.421  0.00  0.00    -0.411 N 
HETATM   13  H   UNK N   1      36.946  10.059  12.017  0.00  0.00     0.154 HD
BRANCH  12  14
HETATM   14  C   UNK N   1      35.035   9.568  12.975  0.00  0.00     0.014 C 
HETATM   15  C   UNK N   1      33.861  10.404  13.447  0.00  0.00     0.037 C 
HETATM   16  C   UNK N   1      34.537   8.671  11.862  0.00  0.00     0.037 C 
HETATM   17  C   UNK N   1      35.506   8.677  14.118  0.00  0.00     0.037 C 
ENDBRANCH  12  14
ENDBRANCH  11  12
ENDBRANCH  10  11
BRANCH  10  18
HETATM   18  O   UNK N   1      36.991  13.929  12.844  0.00  0.00    -0.387 OA
HETATM   19  H   UNK N   1      37.712  14.492  13.166  0.00  0.00     0.210 HD
ENDBRANCH  10  18
ENDBRANCH   2  10
BRANCH   6  20
HETATM   20  C   UNK N   1      35.910   9.727  17.758  0.00  0.00     0.037 C 
HETATM   21  C   UNK N   1      34.662   8.901  18.018  0.00  0.00     0.010 C 
ENDBRANCH   6  20
TORSDOF 6
ENDMDL
