MODEL 1
REMARK VINA RESULT:      -7.1      0.000      0.000
REMARK  3 active torsions:
REMARK  status: ('A' for Active; 'I' for Inactive)
REMARK    1  A    between atoms: O_16  and  C_7 
REMARK    2  A    between atoms: O_17  and  C_10 
REMARK    3  A    between atoms: O_18  and  C_11 
ROOT
HETATM    1  C   UNK N   1      25.999  20.538   2.995  0.00  0.00     0.048 C 
HETATM    2  C   UNK N   1      27.703  19.131   4.133  0.00  0.00     0.023 A 
HETATM    3  C   UNK N   1      26.269  20.521   5.481  0.00  0.00     0.044 A 
HETATM    4  C   UNK N   1      31.173  16.242   6.165  0.00  0.00     0.053 A 
HETATM    5  C   UNK N   1      31.507  16.159   8.550  0.00  0.00     0.074 A 
HETATM    6  C   UNK N   1      26.670  20.054   4.230  0.00  0.00    -0.058 A 
HETATM    7  C   UNK N   1      31.853  15.739   7.267  0.00  0.00     0.069 A 
HETATM    8  C   UNK N   1      28.350  18.661   5.281  0.00  0.00     0.032 A 
HETATM    9  C   UNK N   1      30.140  17.171   6.329  0.00  0.00     0.035 A 
HETATM   10  C   UNK N   1      26.901  20.065   6.644  0.00  0.00     0.081 A 
HETATM   11  C   UNK N   1      30.477  17.088   8.739  0.00  0.00     0.083 A 
HETATM   12  C   UNK N   1      27.957  19.123   6.558  0.00  0.00     0.062 A 
HETATM   13  C   UNK N   1      29.775  17.609   7.622  0.00  0.00     0.062 A 
HETATM   14  C   UNK N   1      29.441  17.683   5.138  0.00  0.00     0.194 A 
HETATM   15  C   UNK N   1      28.666  18.604   7.770  0.00  0.00     0.199 A 
HETATM   16  O   UNK N   1      29.769  17.294   4.024  0.00  0.00    -0.287 OA
HETATM   17  O   UNK N   1      28.338  18.993   8.883  0.00  0.00    -0.286 OA
ENDROOT
BRANCH   7  18
HETATM   18  O   UNK N   1      32.842  14.848   7.091  0.00  0.00    -0.361 OA
HETATM   19  H   UNK N   1      33.253  14.765   6.253  0.00  0.00     0.217 HD
ENDBRANCH   7  18
BRANCH  11  20
HETATM   20  O   UNK N   1      30.172  17.469   9.992  0.00  0.00    -0.360 OA
HETATM   21  H   UNK N   1      30.821  17.427  10.666  0.00  0.00     0.217 HD
ENDBRANCH  11  20
BRANCH  10  22
HETATM   22  O   UNK N   1      26.487  20.538   7.833  0.00  0.00    -0.360 OA
HETATM   23  H   UNK N   1      25.913  20.025   8.367  0.00  0.00     0.217 HD
ENDBRANCH  10  22
TORSDOF 3
ENDMDL
MODEL 2
REMARK VINA RESULT:      -6.8     10.556     13.424
REMARK  3 active torsions:
REMARK  status: ('A' for Active; 'I' for Inactive)
REMARK    1  A    between atoms: O_16  and  C_7 
REMARK    2  A    between atoms: O_17  and  C_10 
REMARK    3  A    between atoms: O_18  and  C_11 
ROOT
HETATM    1  C   UNK N   1      33.298  20.071  -4.443  0.00  0.00     0.048 C 
HETATM    2  C   UNK N   1      31.222  21.184  -5.233  0.00  0.00     0.023 A 
HETATM    3  C   UNK N   1      31.937  21.557  -2.963  0.00  0.00     0.044 A 
HETATM    4  C   UNK N   1      27.121  23.289  -7.041  0.00  0.00     0.053 A 
HETATM    5  C   UNK N   1      25.746  24.736  -5.690  0.00  0.00     0.074 A 
HETATM    6  C   UNK N   1      32.129  20.956  -4.207  0.00  0.00    -0.058 A 
HETATM    7  C   UNK N   1      26.003  24.102  -6.905  0.00  0.00     0.069 A 
HETATM    8  C   UNK N   1      30.113  22.014  -5.035  0.00  0.00     0.032 A 
HETATM    9  C   UNK N   1      27.998  23.099  -5.968  0.00  0.00     0.035 A 
HETATM   10  C   UNK N   1      30.835  22.391  -2.740  0.00  0.00     0.081 A 
HETATM   11  C   UNK N   1      26.609  24.561  -4.602  0.00  0.00     0.083 A 
HETATM   12  C   UNK N   1      29.903  22.631  -3.781  0.00  0.00     0.062 A 
HETATM   13  C   UNK N   1      27.754  23.734  -4.728  0.00  0.00     0.062 A 
HETATM   14  C   UNK N   1      29.174  22.231  -6.147  0.00  0.00     0.194 A 
HETATM   15  C   UNK N   1      28.708  23.514  -3.595  0.00  0.00     0.199 A 
HETATM   16  O   UNK N   1      29.371  21.688  -7.228  0.00  0.00    -0.287 OA
HETATM   17  O   UNK N   1      28.511  24.057  -2.516  0.00  0.00    -0.286 OA
ENDROOT
BRANCH   7  18
HETATM   18  O   UNK N   1      25.172  24.273  -7.946  0.00  0.00    -0.361 OA
HETATM   19  H   UNK N   1      25.342  23.835  -8.757  0.00  0.00     0.217 HD
ENDBRANCH   7  18
BRANCH  11  20
HETATM   20  O   UNK N   1      26.328  25.189  -3.447  0.00  0.00    -0.360 OA
HETATM   21  H   UNK N   1      26.428  24.738  -2.631  0.00  0.00     0.217 HD
ENDBRANCH  11  20
BRANCH  10  22
HETATM   22  O   UNK N   1      30.684  22.953  -1.528  0.00  0.00    -0.360 OA
HETATM   23  H   UNK N   1      29.931  22.750  -1.008  0.00  0.00     0.217 HD
ENDBRANCH  10  22
TORSDOF 3
ENDMDL
MODEL 3
REMARK VINA RESULT:      -6.8      1.140      5.459
REMARK  3 active torsions:
REMARK  status: ('A' for Active; 'I' for Inactive)
REMARK    1  A    between atoms: O_16  and  C_7 
REMARK    2  A    between atoms: O_17  and  C_10 
REMARK    3  A    between atoms: O_18  and  C_11 
ROOT
HETATM    1  C   UNK N   1      32.914  14.753   7.230  0.00  0.00     0.048 C 
HETATM    2  C   UNK N   1      31.180  16.259   6.280  0.00  0.00     0.023 A 
HETATM    3  C   UNK N   1      31.430  16.156   8.674  0.00  0.00     0.044 A 
HETATM    4  C   UNK N   1      27.799  19.182   4.149  0.00  0.00     0.053 A 
HETATM    5  C   UNK N   1      26.325  20.569   5.459  0.00  0.00     0.074 A 
HETATM    6  C   UNK N   1      31.819  15.743   7.400  0.00  0.00    -0.058 A 
HETATM    7  C   UNK N   1      26.767  20.110   4.218  0.00  0.00     0.069 A 
HETATM    8  C   UNK N   1      30.146  17.193   6.415  0.00  0.00     0.032 A 
HETATM    9  C   UNK N   1      28.402  18.700   5.315  0.00  0.00     0.035 A 
HETATM   10  C   UNK N   1      30.399  17.088   8.834  0.00  0.00     0.081 A 
HETATM   11  C   UNK N   1      26.914  20.101   6.639  0.00  0.00     0.083 A 
HETATM   12  C   UNK N   1      29.739  17.622   7.698  0.00  0.00     0.062 A 
HETATM   13  C   UNK N   1      27.968  19.153   6.582  0.00  0.00     0.062 A 
HETATM   14  C   UNK N   1      29.493  17.717   5.204  0.00  0.00     0.194 A 
HETATM   15  C   UNK N   1      28.631  18.621   7.814  0.00  0.00     0.199 A 
HETATM   16  O   UNK N   1      29.859  17.334   4.099  0.00  0.00    -0.287 OA
HETATM   17  O   UNK N   1      28.266  19.004   8.918  0.00  0.00    -0.286 OA
ENDROOT
BRANCH   7  18
HETATM   18  O   UNK N   1      26.200  20.562   3.089  0.00  0.00    -0.361 OA
HETATM   19  H   UNK N   1      26.674  20.530   2.281  0.00  0.00     0.217 HD
ENDBRANCH   7  18
BRANCH  11  20
HETATM   20  O   UNK N   1      26.461  20.566   7.816  0.00  0.00    -0.360 OA
HETATM   21  H   UNK N   1      27.047  20.995   8.408  0.00  0.00     0.217 HD
ENDBRANCH  11  20
BRANCH  10  22
HETATM   22  O   UNK N   1      30.052  17.462  10.079  0.00  0.00    -0.360 OA
HETATM   23  H   UNK N   1      30.631  17.295  10.796  0.00  0.00     0.217 HD
ENDBRANCH  10  22
TORSDOF 3
ENDMDL
MODEL 4
REMARK VINA RESULT:      -6.8      5.137      8.657
REMARK  3 active torsions:
REMARK  status: ('A' for Active; 'I' for Inactive)
REMARK    1  A    between atoms: O_16  and  C_7 
REMARK    2  A    between atoms: O_17  and  C_10 
REMARK    3  A    between atoms: O_18  and  C_11 
ROOT
HETATM    1  C   UNK N   1      26.741  15.035   5.905  0.00  0.00     0.048 C 
HETATM    2  C   UNK N   1      24.653  16.033   4.998  0.00  0.00     0.023 A 
HETATM    3  C   UNK N   1      26.599  17.436   5.221  0.00  0.00     0.044 A 
HETATM    4  C   UNK N   1      20.379  17.787   3.218  0.00  0.00     0.053 A 
HETATM    5  C   UNK N   1      20.147  20.086   2.533  0.00  0.00     0.074 A 
HETATM    6  C   UNK N   1      25.983  16.193   5.363  0.00  0.00    -0.058 A 
HETATM    7  C   UNK N   1      19.599  18.815   2.704  0.00  0.00     0.069 A 
HETATM    8  C   UNK N   1      23.919  17.108   4.486  0.00  0.00     0.032 A 
HETATM    9  C   UNK N   1      21.714  18.012   3.567  0.00  0.00     0.035 A 
HETATM   10  C   UNK N   1      25.886  18.526   4.710  0.00  0.00     0.081 A 
HETATM   11  C   UNK N   1      21.481  20.336   2.876  0.00  0.00     0.083 A 
HETATM   12  C   UNK N   1      24.527  18.375   4.334  0.00  0.00     0.062 A 
HETATM   13  C   UNK N   1      22.287  19.294   3.401  0.00  0.00     0.062 A 
HETATM   14  C   UNK N   1      22.512  16.899   4.109  0.00  0.00     0.194 A 
HETATM   15  C   UNK N   1      23.719  19.509   3.783  0.00  0.00     0.199 A 
HETATM   16  O   UNK N   1      22.000  15.794   4.247  0.00  0.00    -0.287 OA
HETATM   17  O   UNK N   1      24.230  20.612   3.645  0.00  0.00    -0.286 OA
ENDROOT
BRANCH   7  18
HETATM   18  O   UNK N   1      18.319  18.581   2.374  0.00  0.00    -0.361 OA
HETATM   19  H   UNK N   1      17.633  19.065   2.789  0.00  0.00     0.217 HD
ENDBRANCH   7  18
BRANCH  11  20
HETATM   20  O   UNK N   1      21.974  21.574   2.696  0.00  0.00    -0.360 OA
HETATM   21  H   UNK N   1      22.400  22.016   3.404  0.00  0.00     0.217 HD
ENDBRANCH  11  20
BRANCH  10  22
HETATM   22  O   UNK N   1      26.513  19.709   4.587  0.00  0.00    -0.360 OA
HETATM   23  H   UNK N   1      26.560  20.293   5.319  0.00  0.00     0.217 HD
ENDBRANCH  10  22
TORSDOF 3
ENDMDL
MODEL 5
REMARK VINA RESULT:      -6.7      5.077      6.007
REMARK  3 active torsions:
REMARK  status: ('A' for Active; 'I' for Inactive)
REMARK    1  A    between atoms: O_16  and  C_7 
REMARK    2  A    between atoms: O_17  and  C_10 
REMARK    3  A    between atoms: O_18  and  C_11 
ROOT
HETATM    1  C   UNK N   1      30.840  14.604   3.368  0.00  0.00     0.048 C 
HETATM    2  C   UNK N   1      31.870  14.609   5.630  0.00  0.00     0.023 A 
HETATM    3  C   UNK N   1      32.248  16.502   4.188  0.00  0.00     0.044 A 
HETATM    4  C   UNK N   1      33.814  14.383  10.178  0.00  0.00     0.053 A 
HETATM    5  C   UNK N   1      35.182  16.163  11.054  0.00  0.00     0.074 A 
HETATM    6  C   UNK N   1      31.670  15.253   4.416  0.00  0.00    -0.058 A 
HETATM    7  C   UNK N   1      34.574  14.918  11.210  0.00  0.00     0.069 A 
HETATM    8  C   UNK N   1      32.648  15.199   6.632  0.00  0.00     0.032 A 
HETATM    9  C   UNK N   1      33.650  15.082   8.978  0.00  0.00     0.035 A 
HETATM   10  C   UNK N   1      33.029  17.113   5.175  0.00  0.00     0.081 A 
HETATM   11  C   UNK N   1      35.033  16.881   9.863  0.00  0.00     0.083 A 
HETATM   12  C   UNK N   1      33.241  16.464   6.418  0.00  0.00     0.062 A 
HETATM   13  C   UNK N   1      34.259  16.346   8.801  0.00  0.00     0.062 A 
HETATM   14  C   UNK N   1      32.837  14.485   7.905  0.00  0.00     0.194 A 
HETATM   15  C   UNK N   1      34.068  17.074   7.507  0.00  0.00     0.199 A 
HETATM   16  O   UNK N   1      32.315  13.389   8.074  0.00  0.00    -0.287 OA
HETATM   17  O   UNK N   1      34.588  18.169   7.339  0.00  0.00    -0.286 OA
ENDROOT
BRANCH   7  18
HETATM   18  O   UNK N   1      34.720  14.232  12.355  0.00  0.00    -0.361 OA
HETATM   19  H   UNK N   1      35.487  13.713  12.495  0.00  0.00     0.217 HD
ENDBRANCH   7  18
BRANCH  11  20
HETATM   20  O   UNK N   1      35.634  18.079   9.749  0.00  0.00    -0.360 OA
HETATM   21  H   UNK N   1      36.034  18.476  10.498  0.00  0.00     0.217 HD
ENDBRANCH  11  20
BRANCH  10  22
HETATM   22  O   UNK N   1      33.570  18.317   4.918  0.00  0.00    -0.360 OA
HETATM   23  H   UNK N   1      33.133  18.914   4.343  0.00  0.00     0.217 HD
ENDBRANCH  10  22
TORSDOF 3
ENDMDL
MODEL 6
REMARK VINA RESULT:      -6.7      4.857      8.271
REMARK  3 active torsions:
REMARK  status: ('A' for Active; 'I' for Inactive)
REMARK    1  A    between atoms: O_16  and  C_7 
REMARK    2  A    between atoms: O_17  and  C_10 
REMARK    3  A    between atoms: O_18  and  C_11 
ROOT
HETATM    1  C   UNK N   1      28.560  18.231   5.233  0.00  0.00     0.048 C 
HETATM    2  C   UNK N   1      26.113  17.959   4.894  0.00  0.00     0.023 A 
HETATM    3  C   UNK N   1      27.222  19.824   3.845  0.00  0.00     0.044 A 
HETATM    4  C   UNK N   1      21.248  17.204   4.366  0.00  0.00     0.053 A 
HETATM    5  C   UNK N   1      19.877  18.685   3.048  0.00  0.00     0.074 A 
HETATM    6  C   UNK N   1      27.272  18.682   4.645  0.00  0.00    -0.058 A 
HETATM    7  C   UNK N   1      20.005  17.555   3.856  0.00  0.00     0.069 A 
HETATM    8  C   UNK N   1      24.889  18.364   4.350  0.00  0.00     0.032 A 
HETATM    9  C   UNK N   1      22.380  17.974   4.079  0.00  0.00     0.035 A 
HETATM   10  C   UNK N   1      26.010  20.249   3.291  0.00  0.00     0.081 A 
HETATM   11  C   UNK N   1      20.995  19.471   2.747  0.00  0.00     0.083 A 
HETATM   12  C   UNK N   1      24.819  19.519   3.538  0.00  0.00     0.062 A 
HETATM   13  C   UNK N   1      22.270  19.123   3.262  0.00  0.00     0.062 A 
HETATM   14  C   UNK N   1      23.682  17.572   4.637  0.00  0.00     0.194 A 
HETATM   15  C   UNK N   1      23.497  19.930   2.969  0.00  0.00     0.199 A 
HETATM   16  O   UNK N   1      23.760  16.574   5.343  0.00  0.00    -0.287 OA
HETATM   17  O   UNK N   1      23.419  20.927   2.264  0.00  0.00    -0.286 OA
ENDROOT
BRANCH   7  18
HETATM   18  O   UNK N   1      18.930  16.804   4.143  0.00  0.00    -0.361 OA
HETATM   19  H   UNK N   1      18.952  16.215   4.871  0.00  0.00     0.217 HD
ENDBRANCH   7  18
BRANCH  11  20
HETATM   20  O   UNK N   1      20.833  20.553   1.965  0.00  0.00    -0.360 OA
HETATM   21  H   UNK N   1      20.574  20.450   1.070  0.00  0.00     0.217 HD
ENDBRANCH  11  20
BRANCH  10  22
HETATM   22  O   UNK N   1      26.001  21.354   2.525  0.00  0.00    -0.360 OA
HETATM   23  H   UNK N   1      25.528  22.114   2.804  0.00  0.00     0.217 HD
ENDBRANCH  10  22
TORSDOF 3
ENDMDL
MODEL 7
REMARK VINA RESULT:      -6.7      2.631      2.825
REMARK  3 active torsions:
REMARK  status: ('A' for Active; 'I' for Inactive)
REMARK    1  A    between atoms: O_16  and  C_7 
REMARK    2  A    between atoms: O_17  and  C_10 
REMARK    3  A    between atoms: O_18  and  C_11 
ROOT
HETATM    1  C   UNK N   1      26.435  15.671   2.018  0.00  0.00     0.048 C 
HETATM    2  C   UNK N   1      28.457  16.245   3.344  0.00  0.00     0.023 A 
HETATM    3  C   UNK N   1      26.337  16.098   4.480  0.00  0.00     0.044 A 
HETATM    4  C   UNK N   1      32.626  17.373   5.765  0.00  0.00     0.053 A 
HETATM    5  C   UNK N   1      32.631  17.801   8.137  0.00  0.00     0.074 A 
HETATM    6  C   UNK N   1      27.089  16.012   3.308  0.00  0.00    -0.058 A 
HETATM    7  C   UNK N   1      33.316  17.696   6.927  0.00  0.00     0.069 A 
HETATM    8  C   UNK N   1      29.095  16.568   4.546  0.00  0.00     0.032 A 
HETATM    9  C   UNK N   1      31.246  17.149   5.795  0.00  0.00     0.035 A 
HETATM   10  C   UNK N   1      26.953  16.420   5.695  0.00  0.00     0.081 A 
HETATM   11  C   UNK N   1      31.250  17.582   8.191  0.00  0.00     0.083 A 
HETATM   12  C   UNK N   1      28.350  16.660   5.743  0.00  0.00     0.062 A 
HETATM   13  C   UNK N   1      30.534  17.251   7.012  0.00  0.00     0.062 A 
HETATM   14  C   UNK N   1      30.548  16.808   4.544  0.00  0.00     0.194 A 
HETATM   15  C   UNK N   1      29.057  17.007   7.016  0.00  0.00     0.199 A 
HETATM   16  O   UNK N   1      31.178  16.724   3.497  0.00  0.00    -0.287 OA
HETATM   17  O   UNK N   1      28.427  17.091   8.062  0.00  0.00    -0.286 OA
ENDROOT
BRANCH   7  18
HETATM   18  O   UNK N   1      34.641  17.907   6.879  0.00  0.00    -0.361 OA
HETATM   19  H   UNK N   1      35.050  18.134   6.067  0.00  0.00     0.217 HD
ENDBRANCH   7  18
BRANCH  11  20
HETATM   20  O   UNK N   1      30.624  17.692   9.376  0.00  0.00    -0.360 OA
HETATM   21  H   UNK N   1      30.509  16.936   9.918  0.00  0.00     0.217 HD
ENDBRANCH  11  20
BRANCH  10  22
HETATM   22  O   UNK N   1      26.196  16.494   6.804  0.00  0.00    -0.360 OA
HETATM   23  H   UNK N   1      25.318  16.817   6.751  0.00  0.00     0.217 HD
ENDBRANCH  10  22
TORSDOF 3
ENDMDL
MODEL 8
REMARK VINA RESULT:      -6.6     11.043     13.837
REMARK  3 active torsions:
REMARK  status: ('A' for Active; 'I' for Inactive)
REMARK    1  A    between atoms: O_16  and  C_7 
REMARK    2  A    between atoms: O_17  and  C_10 
REMARK    3  A    between atoms: O_18  and  C_11 
ROOT
HETATM    1  C   UNK N   1      34.637   8.576  11.692  0.00  0.00     0.048 C 
HETATM    2  C   UNK N   1      34.923   9.212  14.077  0.00  0.00     0.023 A 
HETATM    3  C   UNK N   1      34.531  10.953  12.458  0.00  0.00     0.044 A 
HETATM    4  C   UNK N   1      35.526  10.227  18.886  0.00  0.00     0.053 A 
HETATM    5  C   UNK N   1      35.440  12.488  19.718  0.00  0.00     0.074 A 
HETATM    6  C   UNK N   1      34.698   9.603  12.764  0.00  0.00    -0.058 A 
HETATM    7  C   UNK N   1      35.598  11.121  19.946  0.00  0.00     0.069 A 
HETATM    8  C   UNK N   1      34.985  10.161  15.103  0.00  0.00     0.032 A 
HETATM    9  C   UNK N   1      35.296  10.684  17.584  0.00  0.00     0.035 A 
HETATM   10  C   UNK N   1      34.589  11.921  13.468  0.00  0.00     0.081 A 
HETATM   11  C   UNK N   1      35.210  12.968  18.424  0.00  0.00     0.083 A 
HETATM   12  C   UNK N   1      34.819  11.534  14.813  0.00  0.00     0.062 A 
HETATM   13  C   UNK N   1      35.134  12.066  17.332  0.00  0.00     0.062 A 
HETATM   14  C   UNK N   1      35.226   9.708  16.483  0.00  0.00     0.194 A 
HETATM   15  C   UNK N   1      34.890  12.528  15.929  0.00  0.00     0.199 A 
HETATM   16  O   UNK N   1      35.368   8.514  16.718  0.00  0.00    -0.287 OA
HETATM   17  O   UNK N   1      34.747  13.721  15.695  0.00  0.00    -0.286 OA
ENDROOT
BRANCH   7  18
HETATM   18  O   UNK N   1      35.819  10.665  21.189  0.00  0.00    -0.361 OA
HETATM   19  H   UNK N   1      35.161  10.161  21.627  0.00  0.00     0.217 HD
ENDBRANCH   7  18
BRANCH  11  20
HETATM   20  O   UNK N   1      35.063  14.293  18.242  0.00  0.00    -0.360 OA
HETATM   21  H   UNK N   1      34.373  14.752  18.679  0.00  0.00     0.217 HD
ENDBRANCH  11  20
BRANCH  10  22
HETATM   22  O   UNK N   1      34.424  13.213  13.135  0.00  0.00    -0.360 OA
HETATM   23  H   UNK N   1      35.151  13.803  13.171  0.00  0.00     0.217 HD
ENDBRANCH  10  22
TORSDOF 3
ENDMDL
MODEL 9
REMARK VINA RESULT:      -6.6      9.077     10.705
REMARK  3 active torsions:
REMARK  status: ('A' for Active; 'I' for Inactive)
REMARK    1  A    between atoms: O_16  and  C_7 
REMARK    2  A    between atoms: O_17  and  C_10 
REMARK    3  A    between atoms: O_18  and  C_11 
ROOT
HETATM    1  C   UNK N   1      19.915  12.205   0.590  0.00  0.00     0.048 C 
HETATM    2  C   UNK N   1      20.123  14.672   0.803  0.00  0.00     0.023 A 
HETATM    3  C   UNK N   1      20.233  13.330   2.801  0.00  0.00     0.044 A 
HETATM    4  C   UNK N   1      20.512  19.605   0.967  0.00  0.00     0.053 A 
HETATM    5  C   UNK N   1      20.821  20.778   3.050  0.00  0.00     0.074 A 
HETATM    6  C   UNK N   1      20.094  13.427   1.416  0.00  0.00    -0.058 A 
HETATM    7  C   UNK N   1      20.675  20.796   1.663  0.00  0.00     0.069 A 
HETATM    8  C   UNK N   1      20.291  15.837   1.559  0.00  0.00     0.032 A 
HETATM    9  C   UNK N   1      20.491  18.382   1.643  0.00  0.00     0.035 A 
HETATM   10  C   UNK N   1      20.402  14.481   3.579  0.00  0.00     0.081 A 
HETATM   11  C   UNK N   1      20.803  19.565   3.749  0.00  0.00     0.083 A 
HETATM   12  C   UNK N   1      20.433  15.758   2.963  0.00  0.00     0.062 A 
HETATM   13  C   UNK N   1      20.637  18.343   3.049  0.00  0.00     0.062 A 
HETATM   14  C   UNK N   1      20.316  17.139   0.873  0.00  0.00     0.194 A 
HETATM   15  C   UNK N   1      20.611  17.019   3.749  0.00  0.00     0.199 A 
HETATM   16  O   UNK N   1      20.191  17.189  -0.345  0.00  0.00    -0.287 OA
HETATM   17  O   UNK N   1      20.736  16.969   4.966  0.00  0.00    -0.286 OA
ENDROOT
BRANCH   7  18
HETATM   18  O   UNK N   1      20.693  21.961   0.997  0.00  0.00    -0.361 OA
HETATM   19  H   UNK N   1      20.086  22.110   0.299  0.00  0.00     0.217 HD
ENDBRANCH   7  18
BRANCH  11  20
HETATM   20  O   UNK N   1      20.946  19.587   5.086  0.00  0.00    -0.360 OA
HETATM   21  H   UNK N   1      21.749  19.304   5.476  0.00  0.00     0.217 HD
ENDBRANCH  11  20
BRANCH  10  22
HETATM   22  O   UNK N   1      20.533  14.348   4.911  0.00  0.00    -0.360 OA
HETATM   23  H   UNK N   1      19.924  14.768   5.485  0.00  0.00     0.217 HD
ENDBRANCH  10  22
TORSDOF 3
ENDMDL
