REMARK  12 active torsions:
REMARK  status: ('A' for Active; 'I' for Inactive)
REMARK    1  A    between atoms: C_2  and  C_4 
REMARK    2  A    between atoms: C_4  and  O_5 
REMARK    3  A    between atoms: C_4  and  O_11 
REMARK    4  A    between atoms: O_5  and  C_6 
REMARK    5  A    between atoms: C_6  and  C_8 
REMARK    6  A    between atoms: O_11  and  C_12 
REMARK       I    between atoms: C_12  and  N_14 
REMARK    7  A    between atoms: N_14  and  C_15 
REMARK    8  A    between atoms: C_16  and  C_15 
REMARK    9  A    between atoms: C_16  and  C_17 
REMARK   10  A    between atoms: C_16  and  C_21 
REMARK   11  A    between atoms: C_17  and  C_18 
REMARK   12  A    between atoms: C_18  and  O_20 
ROOT
HETATM    1  C   UNK N   1       6.734  -7.313  -0.268  0.00  0.00     0.362 C 
HETATM    2  O   UNK N   1       6.686  -8.347   0.392  0.00  0.00    -0.238 OA
HETATM    3  N   UNK N   1       7.695  -6.401  -0.028  0.00  0.00    -0.336 N 
HETATM    4  H   UNK N   1       7.707  -5.571  -0.558  0.00  0.00     0.164 HD
ENDROOT
BRANCH   3   5
HETATM    5  C   UNK N   1       8.704  -6.599   0.976  0.00  0.00     0.135 C 
BRANCH   5   6
HETATM    6  C   UNK N   1      10.041  -6.543   0.271  0.00  0.00     0.046 C 
BRANCH   6   7
HETATM    7  C   UNK N   1      10.840  -5.263   0.532  0.00  0.00     0.120 C 
BRANCH   7   8
HETATM    8  C   UNK N   1      10.040  -4.038   0.191  0.00  0.00     0.140 C 
HETATM    9  O   UNK N   1       9.108  -3.691   0.900  0.00  0.00    -0.650 OA
BRANCH   8  10
HETATM   10  O   UNK N   1      10.351  -3.318  -0.902  0.00  0.00    -0.776 OA
HETATM   11  H   UNK N   1      10.893  -3.254  -1.663  0.00  0.00     0.167 HD
ENDBRANCH   8  10
ENDBRANCH   7   8
ENDBRANCH   6   7
BRANCH   6  12
HETATM   12  C   UNK N   1      10.791  -7.849   0.286  0.00  0.00    -0.052 A 
HETATM   13  C   UNK N   1      12.193  -7.883   0.276  0.00  0.00     0.009 A 
HETATM   14  C   UNK N   1      12.866  -9.107   0.204  0.00  0.00     0.024 A 
HETATM   15  C   UNK N   1      12.143 -10.303   0.141  0.00  0.00     0.034 A 
HETATM   16  C   UNK N   1      10.748 -10.277   0.153  0.00  0.00     0.024 A 
HETATM   17 Cl   UNK N   1      12.983 -11.833   0.029  0.00  0.00    -0.084 Cl
HETATM   18  C   UNK N   1      10.076  -9.056   0.214  0.00  0.00     0.009 A 
ENDBRANCH   6  12
ENDBRANCH   5   6
ENDBRANCH   3   5
BRANCH   1  19
HETATM   19  O   UNK N   1       5.786  -7.042  -1.198  0.00  0.00    -0.272 OA
BRANCH  19  20
HETATM   20  C   UNK N   1       4.477  -7.481  -1.116  0.00  0.00     0.284 C 
BRANCH  20  21
HETATM   21  C   UNK N   1       4.207  -8.792  -1.858  0.00  0.00     0.034 C 
HETATM   22  C   UNK N   1       4.926  -9.977  -1.240  0.00  0.00     0.014 C 
HETATM   23  C   UNK N   1       2.716  -9.071  -1.881  0.00  0.00     0.014 C 
ENDBRANCH  20  21
BRANCH  20  24
HETATM   24  O   UNK N   1       4.053  -7.498   0.199  0.00  0.00    -0.288 OA
BRANCH  24  25
HETATM   25  C   UNK N   1       3.186  -6.583   0.691  0.00  0.00     0.264 C 
HETATM   26  O   UNK N   1       2.931  -6.588   1.886  0.00  0.00    -0.265 OA
BRANCH  25  27
HETATM   27  C   UNK N   1       2.542  -5.563  -0.207  0.00  0.00     0.077 C 
HETATM   28  C   UNK N   1       1.036  -5.727  -0.197  0.00  0.00     0.020 C 
HETATM   29  C   UNK N   1       2.914  -4.154   0.216  0.00  0.00     0.020 C 
ENDBRANCH  25  27
ENDBRANCH  24  25
ENDBRANCH  20  24
ENDBRANCH  19  20
ENDBRANCH   1  19
TORSDOF 12
