MODEL 1
REMARK VINA RESULT:      -7.8      0.000      0.000
REMARK  10 active torsions:
REMARK  status: ('A' for Active; 'I' for Inactive)
REMARK    1  A    between atoms: C_2  and  O_22 
REMARK    2  A    between atoms: C_8  and  O_19 
REMARK    3  A    between atoms: C_17  and  C_21 
REMARK    4  A    between atoms: C_21  and  C_24 
REMARK    5  A    between atoms: C_24  and  C_25 
REMARK    6  A    between atoms: C_25  and  C_26 
REMARK       I    between atoms: C_26  and  N_27 
REMARK    7  A    between atoms: N_27  and  C_28 
REMARK    8  A    between atoms: C_28  and  C_29 
REMARK    9  A    between atoms: C_29  and  S_30 
REMARK   10  A    between atoms: S_30  and  O_32 
ROOT
HETATM    1  C   UNK N   1      27.412  28.134  -4.993  0.00  0.00     0.032 C 
HETATM    2  C   UNK N   1      25.908  28.322  -4.783  0.00  0.00     0.118 C 
HETATM    3  C   UNK N   1      25.047  27.282  -5.516  0.00  0.00     0.037 C 
HETATM    4  C   UNK N   1      25.516  25.812  -5.435  0.00  0.00    -0.001 C 
HETATM    5  C   UNK N   1      26.837  25.634  -4.625  0.00  0.00    -0.036 C 
HETATM    6  C   UNK N   1      27.866  26.677  -5.099  0.00  0.00     0.012 C 
HETATM    7  C   UNK N   1      25.659  25.326  -6.888  0.00  0.00     0.037 C 
HETATM    8  C   UNK N   1      26.184  23.889  -6.985  0.00  0.00     0.123 C 
HETATM    9  C   UNK N   1      27.552  23.823  -6.298  0.00  0.00     0.024 C 
HETATM   10  C   UNK N   1      27.439  24.221  -4.800  0.00  0.00     0.001 C 
HETATM   11  C   UNK N   1      28.214  22.434  -6.331  0.00  0.00     0.001 C 
HETATM   12  C   UNK N   1      29.659  22.544  -5.854  0.00  0.00    -0.036 C 
HETATM   13  C   UNK N   1      29.677  22.954  -4.384  0.00  0.00     0.010 C 
HETATM   14  C   UNK N   1      28.836  24.199  -4.116  0.00  0.00     0.007 C 
HETATM   15  C   UNK N   1      28.340  21.694  -7.647  0.00  0.00     0.006 C 
HETATM   16  C   UNK N   1      29.455  20.676  -7.362  0.00  0.00     0.006 C 
HETATM   17  C   UNK N   1      30.106  21.113  -6.043  0.00  0.00    -0.002 C 
HETATM   18  C   UNK N   1      26.565  25.815  -3.127  0.00  0.00     0.016 C 
HETATM   19  C   UNK N   1      30.493  23.497  -6.738  0.00  0.00     0.016 C 
ENDROOT
BRANCH  17  20
HETATM   20  C   UNK N   1      31.594  20.753  -5.811  0.00  0.00    -0.013 C 
HETATM   21  C   UNK N   1      32.234  20.111  -7.030  0.00  0.00     0.010 C 
BRANCH  20  22
HETATM   22  C   UNK N   1      31.915  19.926  -4.559  0.00  0.00     0.014 C 
BRANCH  22  23
HETATM   23  C   UNK N   1      33.131  20.454  -3.795  0.00  0.00     0.103 C 
BRANCH  23  24
HETATM   24  C   UNK N   1      34.372  19.712  -4.179  0.00  0.00     0.217 C 
HETATM   25  N   UNK N   1      34.287  18.393  -4.459  0.00  0.00    -0.360 N 
HETATM   26  H   UNK N   1      33.396  17.979  -4.526  0.00  0.00     0.162 HD
HETATM   27  O   UNK N   1      35.460  20.275  -4.145  0.00  0.00    -0.274 OA
BRANCH  25  28
HETATM   28  C   UNK N   1      35.449  17.571  -4.661  0.00  0.00     0.139 C 
BRANCH  28  29
HETATM   29  C   UNK N   1      35.057  16.103  -4.729  0.00  0.00     0.175 C 
BRANCH  29  30
HETATM   30  S   UNK N   1      35.866  15.139  -3.411  0.00  0.00     0.095 S 
HETATM   31  O   UNK N   1      36.627  16.467  -3.552  0.00  0.00    -0.601 OA
HETATM   32  O   UNK N   1      34.524  15.658  -2.872  0.00  0.00    -0.601 OA
BRANCH  30  33
HETATM   33  O   UNK N   1      36.271  15.543  -1.794  0.00  0.00    -0.296 OA
HETATM   34  H   UNK N   1      35.580  15.814  -1.169  0.00  0.00     0.232 HD
ENDBRANCH  30  33
ENDBRANCH  29  30
ENDBRANCH  28  29
ENDBRANCH  25  28
ENDBRANCH  23  24
ENDBRANCH  22  23
ENDBRANCH  20  22
ENDBRANCH  17  20
BRANCH   8  35
HETATM   35  O   UNK N   1      25.269  22.988  -6.433  0.00  0.00    -0.395 OA
HETATM   36  H   UNK N   1      24.849  22.115  -6.400  0.00  0.00     0.210 HD
ENDBRANCH   8  35
BRANCH   2  37
HETATM   37  O   UNK N   1      25.597  28.364  -3.424  0.00  0.00    -0.396 OA
HETATM   38  H   UNK N   1      24.894  28.283  -2.761  0.00  0.00     0.210 HD
ENDBRANCH   2  37
TORSDOF 10
ENDMDL
MODEL 2
REMARK VINA RESULT:      -7.8      3.364      4.418
REMARK  10 active torsions:
REMARK  status: ('A' for Active; 'I' for Inactive)
REMARK    1  A    between atoms: C_2  and  O_22 
REMARK    2  A    between atoms: C_8  and  O_19 
REMARK    3  A    between atoms: C_17  and  C_21 
REMARK    4  A    between atoms: C_21  and  C_24 
REMARK    5  A    between atoms: C_24  and  C_25 
REMARK    6  A    between atoms: C_25  and  C_26 
REMARK       I    between atoms: C_26  and  N_27 
REMARK    7  A    between atoms: N_27  and  C_28 
REMARK    8  A    between atoms: C_28  and  C_29 
REMARK    9  A    between atoms: C_29  and  S_30 
REMARK   10  A    between atoms: S_30  and  O_32 
ROOT
HETATM    1  C   UNK N   1      27.816  29.219  -6.062  0.00  0.00     0.032 C 
HETATM    2  C   UNK N   1      27.306  29.618  -4.676  0.00  0.00     0.118 C 
HETATM    3  C   UNK N   1      26.274  28.641  -4.091  0.00  0.00     0.037 C 
HETATM    4  C   UNK N   1      26.586  27.135  -4.238  0.00  0.00    -0.001 C 
HETATM    5  C   UNK N   1      27.916  26.856  -5.003  0.00  0.00    -0.036 C 
HETATM    6  C   UNK N   1      27.954  27.712  -6.283  0.00  0.00     0.012 C 
HETATM    7  C   UNK N   1      25.370  26.512  -4.947  0.00  0.00     0.037 C 
HETATM    8  C   UNK N   1      25.548  25.017  -5.230  0.00  0.00     0.123 C 
HETATM    9  C   UNK N   1      26.790  24.831  -6.108  0.00  0.00     0.024 C 
HETATM   10  C   UNK N   1      28.060  25.366  -5.391  0.00  0.00     0.001 C 
HETATM   11  C   UNK N   1      27.087  23.370  -6.489  0.00  0.00     0.001 C 
HETATM   12  C   UNK N   1      28.176  23.331  -7.558  0.00  0.00    -0.036 C 
HETATM   13  C   UNK N   1      29.481  23.859  -6.971  0.00  0.00     0.010 C 
HETATM   14  C   UNK N   1      29.312  25.221  -6.304  0.00  0.00     0.007 C 
HETATM   15  C   UNK N   1      25.989  22.510  -7.082  0.00  0.00     0.006 C 
HETATM   16  C   UNK N   1      26.772  21.384  -7.773  0.00  0.00     0.006 C 
HETATM   17  C   UNK N   1      28.236  21.843  -7.814  0.00  0.00    -0.002 C 
HETATM   18  C   UNK N   1      29.117  27.197  -4.112  0.00  0.00     0.016 C 
HETATM   19  C   UNK N   1      27.761  24.088  -8.838  0.00  0.00     0.016 C 
ENDROOT
BRANCH  17  20
HETATM   20  C   UNK N   1      29.133  21.313  -8.959  0.00  0.00    -0.013 C 
HETATM   21  C   UNK N   1      28.328  20.770 -10.127  0.00  0.00     0.010 C 
BRANCH  20  22
HETATM   22  C   UNK N   1      30.225  20.308  -8.569  0.00  0.00     0.014 C 
BRANCH  22  23
HETATM   23  C   UNK N   1      30.128  19.863  -7.108  0.00  0.00     0.103 C 
BRANCH  23  24
HETATM   24  C   UNK N   1      31.327  20.306  -6.330  0.00  0.00     0.217 C 
HETATM   25  N   UNK N   1      31.180  21.262  -5.387  0.00  0.00    -0.360 N 
HETATM   26  H   UNK N   1      30.272  21.555  -5.147  0.00  0.00     0.162 HD
HETATM   27  O   UNK N   1      32.438  19.873  -6.615  0.00  0.00    -0.274 OA
BRANCH  25  28
HETATM   28  C   UNK N   1      32.301  21.868  -4.723  0.00  0.00     0.139 C 
BRANCH  28  29
HETATM   29  C   UNK N   1      31.863  23.113  -3.968  0.00  0.00     0.175 C 
BRANCH  29  30
HETATM   30  S   UNK N   1      30.422  22.771  -2.905  0.00  0.00     0.095 S 
HETATM   31  O   UNK N   1      31.656  22.146  -2.234  0.00  0.00    -0.601 OA
HETATM   32  O   UNK N   1      30.774  24.261  -2.774  0.00  0.00    -0.601 OA
BRANCH  30  33
HETATM   33  O   UNK N   1      30.152  23.048  -1.234  0.00  0.00    -0.296 OA
HETATM   34  H   UNK N   1      30.043  22.301  -0.625  0.00  0.00     0.232 HD
ENDBRANCH  30  33
ENDBRANCH  29  30
ENDBRANCH  28  29
ENDBRANCH  25  28
ENDBRANCH  23  24
ENDBRANCH  22  23
ENDBRANCH  20  22
ENDBRANCH  17  20
BRANCH   8  35
HETATM   35  O   UNK N   1      25.630  24.293  -4.037  0.00  0.00    -0.395 OA
HETATM   36  H   UNK N   1      25.571  24.235  -3.071  0.00  0.00     0.210 HD
ENDBRANCH   8  35
BRANCH   2  37
HETATM   37  O   UNK N   1      28.368  29.816  -3.792  0.00  0.00    -0.396 OA
HETATM   38  H   UNK N   1      29.297  30.078  -3.704  0.00  0.00     0.210 HD
ENDBRANCH   2  37
TORSDOF 10
ENDMDL
MODEL 3
REMARK VINA RESULT:      -7.6     13.108     16.076
REMARK  10 active torsions:
REMARK  status: ('A' for Active; 'I' for Inactive)
REMARK    1  A    between atoms: C_2  and  O_22 
REMARK    2  A    between atoms: C_8  and  O_19 
REMARK    3  A    between atoms: C_17  and  C_21 
REMARK    4  A    between atoms: C_21  and  C_24 
REMARK    5  A    between atoms: C_24  and  C_25 
REMARK    6  A    between atoms: C_25  and  C_26 
REMARK       I    between atoms: C_26  and  N_27 
REMARK    7  A    between atoms: N_27  and  C_28 
REMARK    8  A    between atoms: C_28  and  C_29 
REMARK    9  A    between atoms: C_29  and  S_30 
REMARK   10  A    between atoms: S_30  and  O_32 
ROOT
HETATM    1  C   UNK N   1      32.799  15.353   8.924  0.00  0.00     0.032 C 
HETATM    2  C   UNK N   1      34.103  16.131   8.735  0.00  0.00     0.118 C 
HETATM    3  C   UNK N   1      34.356  16.571   7.285  0.00  0.00     0.037 C 
HETATM    4  C   UNK N   1      33.151  17.165   6.521  0.00  0.00    -0.001 C 
HETATM    5  C   UNK N   1      31.841  17.189   7.366  0.00  0.00    -0.036 C 
HETATM    6  C   UNK N   1      31.644  15.815   8.034  0.00  0.00     0.012 C 
HETATM    7  C   UNK N   1      32.998  16.324   5.241  0.00  0.00     0.037 C 
HETATM    8  C   UNK N   1      31.794  16.748   4.392  0.00  0.00     0.123 C 
HETATM    9  C   UNK N   1      30.526  16.605   5.240  0.00  0.00     0.024 C 
HETATM   10  C   UNK N   1      30.599  17.508   6.501  0.00  0.00     0.001 C 
HETATM   11  C   UNK N   1      29.226  16.983   4.509  0.00  0.00     0.001 C 
HETATM   12  C   UNK N   1      28.024  16.563   5.351  0.00  0.00    -0.036 C 
HETATM   13  C   UNK N   1      28.001  17.377   6.641  0.00  0.00     0.010 C 
HETATM   14  C   UNK N   1      29.332  17.327   7.386  0.00  0.00     0.007 C 
HETATM   15  C   UNK N   1      28.925  16.379   3.152  0.00  0.00     0.006 C 
HETATM   16  C   UNK N   1      27.406  16.569   3.021  0.00  0.00     0.006 C 
HETATM   17  C   UNK N   1      26.902  16.957   4.418  0.00  0.00    -0.002 C 
HETATM   18  C   UNK N   1      31.926  18.283   8.437  0.00  0.00     0.016 C 
HETATM   19  C   UNK N   1      28.003  15.042   5.617  0.00  0.00     0.016 C 
ENDROOT
BRANCH  17  20
HETATM   20  C   UNK N   1      25.446  16.588   4.795  0.00  0.00    -0.013 C 
HETATM   21  C   UNK N   1      24.770  15.732   3.738  0.00  0.00     0.010 C 
BRANCH  20  22
HETATM   22  C   UNK N   1      24.524  17.747   5.193  0.00  0.00     0.014 C 
BRANCH  22  23
HETATM   23  C   UNK N   1      23.060  17.494   4.827  0.00  0.00     0.103 C 
BRANCH  23  24
HETATM   24  C   UNK N   1      22.202  17.429   6.050  0.00  0.00     0.217 C 
HETATM   25  N   UNK N   1      21.904  16.222   6.578  0.00  0.00    -0.360 N 
HETATM   26  H   UNK N   1      22.358  15.424   6.223  0.00  0.00     0.162 HD
HETATM   27  O   UNK N   1      21.701  18.451   6.505  0.00  0.00    -0.274 OA
BRANCH  25  28
HETATM   28  C   UNK N   1      20.948  16.059   7.639  0.00  0.00     0.139 C 
BRANCH  28  29
HETATM   29  C   UNK N   1      20.640  14.586   7.856  0.00  0.00     0.175 C 
BRANCH  29  30
HETATM   30  S   UNK N   1      20.834  14.118   9.607  0.00  0.00     0.095 S 
HETATM   31  O   UNK N   1      19.366  14.520   9.390  0.00  0.00    -0.601 OA
HETATM   32  O   UNK N   1      20.887  12.838   8.759  0.00  0.00    -0.601 OA
BRANCH  30  33
HETATM   33  O   UNK N   1      19.967  13.012  10.589  0.00  0.00    -0.296 OA
HETATM   34  H   UNK N   1      19.856  13.182  11.538  0.00  0.00     0.232 HD
ENDBRANCH  30  33
ENDBRANCH  29  30
ENDBRANCH  28  29
ENDBRANCH  25  28
ENDBRANCH  23  24
ENDBRANCH  22  23
ENDBRANCH  20  22
ENDBRANCH  17  20
BRANCH   8  35
HETATM   35  O   UNK N   1      31.963  18.047   3.905  0.00  0.00    -0.395 OA
HETATM   36  H   UNK N   1      32.001  19.007   4.037  0.00  0.00     0.210 HD
ENDBRANCH   8  35
BRANCH   2  37
HETATM   37  O   UNK N   1      34.166  17.217   9.608  0.00  0.00    -0.396 OA
HETATM   38  H   UNK N   1      33.980  17.535  10.505  0.00  0.00     0.210 HD
ENDBRANCH   2  37
TORSDOF 10
ENDMDL
MODEL 4
REMARK VINA RESULT:      -7.5     11.501     15.295
REMARK  10 active torsions:
REMARK  status: ('A' for Active; 'I' for Inactive)
REMARK    1  A    between atoms: C_2  and  O_22 
REMARK    2  A    between atoms: C_8  and  O_19 
REMARK    3  A    between atoms: C_17  and  C_21 
REMARK    4  A    between atoms: C_21  and  C_24 
REMARK    5  A    between atoms: C_24  and  C_25 
REMARK    6  A    between atoms: C_25  and  C_26 
REMARK       I    between atoms: C_26  and  N_27 
REMARK    7  A    between atoms: N_27  and  C_28 
REMARK    8  A    between atoms: C_28  and  C_29 
REMARK    9  A    between atoms: C_29  and  S_30 
REMARK   10  A    between atoms: S_30  and  O_32 
ROOT
HETATM    1  C   UNK N   1      33.006  15.174   9.129  0.00  0.00     0.032 C 
HETATM    2  C   UNK N   1      34.241  16.077   9.133  0.00  0.00     0.118 C 
HETATM    3  C   UNK N   1      34.699  16.506   7.731  0.00  0.00     0.037 C 
HETATM    4  C   UNK N   1      33.594  16.955   6.748  0.00  0.00    -0.001 C 
HETATM    5  C   UNK N   1      32.160  16.864   7.355  0.00  0.00    -0.036 C 
HETATM    6  C   UNK N   1      31.984  15.493   8.036  0.00  0.00     0.012 C 
HETATM    7  C   UNK N   1      33.749  16.072   5.497  0.00  0.00     0.037 C 
HETATM    8  C   UNK N   1      32.677  16.350   4.438  0.00  0.00     0.123 C 
HETATM    9  C   UNK N   1      31.300  16.097   5.061  0.00  0.00     0.024 C 
HETATM   10  C   UNK N   1      31.063  17.033   6.278  0.00  0.00     0.001 C 
HETATM   11  C   UNK N   1      30.117  16.321   4.103  0.00  0.00     0.001 C 
HETATM   12  C   UNK N   1      28.833  15.800   4.743  0.00  0.00    -0.036 C 
HETATM   13  C   UNK N   1      28.506  16.638   5.976  0.00  0.00     0.010 C 
HETATM   14  C   UNK N   1      29.685  16.742   6.939  0.00  0.00     0.007 C 
HETATM   15  C   UNK N   1      30.118  15.658   2.741  0.00  0.00     0.006 C 
HETATM   16  C   UNK N   1      28.634  15.687   2.344  0.00  0.00     0.006 C 
HETATM   17  C   UNK N   1      27.858  16.054   3.617  0.00  0.00    -0.002 C 
HETATM   18  C   UNK N   1      31.950  17.985   8.379  0.00  0.00     0.016 C 
HETATM   19  C   UNK N   1      28.914  14.292   5.064  0.00  0.00     0.016 C 
ENDROOT
BRANCH  17  20
HETATM   20  C   UNK N   1      26.402  15.546   3.754  0.00  0.00    -0.013 C 
HETATM   21  C   UNK N   1      26.099  14.389   2.817  0.00  0.00     0.010 C 
BRANCH  20  22
HETATM   22  C   UNK N   1      25.293  16.601   3.653  0.00  0.00     0.014 C 
BRANCH  22  23
HETATM   23  C   UNK N   1      24.397  16.640   4.892  0.00  0.00     0.103 C 
BRANCH  23  24
HETATM   24  C   UNK N   1      23.563  17.882   4.915  0.00  0.00     0.217 C 
HETATM   25  N   UNK N   1      22.219  17.771   4.835  0.00  0.00    -0.360 N 
HETATM   26  H   UNK N   1      21.813  16.875   4.889  0.00  0.00     0.162 HD
HETATM   27  O   UNK N   1      24.101  18.983   4.909  0.00  0.00    -0.274 OA
BRANCH  25  28
HETATM   28  C   UNK N   1      21.360  18.911   4.671  0.00  0.00     0.139 C 
BRANCH  28  29
HETATM   29  C   UNK N   1      20.550  18.788   3.390  0.00  0.00     0.175 C 
BRANCH  29  30
HETATM   30  S   UNK N   1      20.623  20.322   2.408  0.00  0.00     0.095 S 
HETATM   31  O   UNK N   1      20.283  20.709   3.856  0.00  0.00    -0.601 OA
HETATM   32  O   UNK N   1      22.058  19.806   2.601  0.00  0.00    -0.601 OA
BRANCH  30  33
HETATM   33  O   UNK N   1      21.491  21.782   2.646  0.00  0.00    -0.296 OA
HETATM   34  H   UNK N   1      22.392  21.763   3.006  0.00  0.00     0.232 HD
ENDBRANCH  30  33
ENDBRANCH  29  30
ENDBRANCH  28  29
ENDBRANCH  25  28
ENDBRANCH  23  24
ENDBRANCH  22  23
ENDBRANCH  20  22
ENDBRANCH  17  20
BRANCH   8  35
HETATM   35  O   UNK N   1      32.800  17.648   3.934  0.00  0.00    -0.395 OA
HETATM   36  H   UNK N   1      32.599  18.325   3.270  0.00  0.00     0.210 HD
ENDBRANCH   8  35
BRANCH   2  37
HETATM   37  O   UNK N   1      34.044  17.185   9.959  0.00  0.00    -0.396 OA
HETATM   38  H   UNK N   1      34.462  17.814  10.566  0.00  0.00     0.210 HD
ENDBRANCH   2  37
TORSDOF 10
ENDMDL
MODEL 5
REMARK VINA RESULT:      -7.4      1.966      2.520
REMARK  10 active torsions:
REMARK  status: ('A' for Active; 'I' for Inactive)
REMARK    1  A    between atoms: C_2  and  O_22 
REMARK    2  A    between atoms: C_8  and  O_19 
REMARK    3  A    between atoms: C_17  and  C_21 
REMARK    4  A    between atoms: C_21  and  C_24 
REMARK    5  A    between atoms: C_24  and  C_25 
REMARK    6  A    between atoms: C_25  and  C_26 
REMARK       I    between atoms: C_26  and  N_27 
REMARK    7  A    between atoms: N_27  and  C_28 
REMARK    8  A    between atoms: C_28  and  C_29 
REMARK    9  A    between atoms: C_29  and  S_30 
REMARK   10  A    between atoms: S_30  and  O_32 
ROOT
HETATM    1  C   UNK N   1      27.403  28.143  -4.957  0.00  0.00     0.032 C 
HETATM    2  C   UNK N   1      25.898  28.328  -4.757  0.00  0.00     0.118 C 
HETATM    3  C   UNK N   1      25.042  27.296  -5.508  0.00  0.00     0.037 C 
HETATM    4  C   UNK N   1      25.511  25.825  -5.438  0.00  0.00    -0.001 C 
HETATM    5  C   UNK N   1      26.826  25.639  -4.619  0.00  0.00    -0.036 C 
HETATM    6  C   UNK N   1      27.859  26.687  -5.075  0.00  0.00     0.012 C 
HETATM    7  C   UNK N   1      25.666  25.354  -6.895  0.00  0.00     0.037 C 
HETATM    8  C   UNK N   1      26.192  23.919  -7.003  0.00  0.00     0.123 C 
HETATM    9  C   UNK N   1      27.554  23.845  -6.305  0.00  0.00     0.024 C 
HETATM   10  C   UNK N   1      27.429  24.227  -4.805  0.00  0.00     0.001 C 
HETATM   11  C   UNK N   1      28.217  22.457  -6.348  0.00  0.00     0.001 C 
HETATM   12  C   UNK N   1      29.658  22.563  -5.858  0.00  0.00    -0.036 C 
HETATM   13  C   UNK N   1      29.664  22.957  -4.384  0.00  0.00     0.010 C 
HETATM   14  C   UNK N   1      28.821  24.199  -4.109  0.00  0.00     0.007 C 
HETATM   15  C   UNK N   1      28.353  21.731  -7.671  0.00  0.00     0.006 C 
HETATM   16  C   UNK N   1      29.465  20.710  -7.388  0.00  0.00     0.006 C 
HETATM   17  C   UNK N   1      30.106  21.134  -6.059  0.00  0.00    -0.002 C 
HETATM   18  C   UNK N   1      26.541  25.804  -3.122  0.00  0.00     0.016 C 
HETATM   19  C   UNK N   1      30.499  23.524  -6.725  0.00  0.00     0.016 C 
ENDROOT
BRANCH  17  20
HETATM   20  C   UNK N   1      31.592  20.771  -5.819  0.00  0.00    -0.013 C 
HETATM   21  C   UNK N   1      32.193  19.985  -6.971  0.00  0.00     0.010 C 
BRANCH  20  22
HETATM   22  C   UNK N   1      31.927  20.082  -4.490  0.00  0.00     0.014 C 
BRANCH  22  23
HETATM   23  C   UNK N   1      33.029  20.800  -3.709  0.00  0.00     0.103 C 
BRANCH  23  24
HETATM   24  C   UNK N   1      34.372  20.211  -4.008  0.00  0.00     0.217 C 
HETATM   25  N   UNK N   1      35.387  21.034  -4.352  0.00  0.00    -0.360 N 
HETATM   26  H   UNK N   1      35.255  22.007  -4.277  0.00  0.00     0.162 HD
HETATM   27  O   UNK N   1      34.517  18.994  -4.033  0.00  0.00    -0.274 OA
BRANCH  25  28
HETATM   28  C   UNK N   1      36.652  20.542  -4.825  0.00  0.00     0.139 C 
BRANCH  28  29
HETATM   29  C   UNK N   1      37.653  21.680  -4.947  0.00  0.00     0.175 C 
BRANCH  29  30
HETATM   30  S   UNK N   1      39.056  21.454  -3.806  0.00  0.00     0.095 S 
HETATM   31  O   UNK N   1      37.942  22.183  -3.037  0.00  0.00    -0.601 OA
HETATM   32  O   UNK N   1      38.384  20.089  -4.018  0.00  0.00    -0.601 OA
BRANCH  30  33
HETATM   33  O   UNK N   1      39.144  20.774  -2.234  0.00  0.00    -0.296 OA
HETATM   34  H   UNK N   1      39.731  20.022  -2.058  0.00  0.00     0.232 HD
ENDBRANCH  30  33
ENDBRANCH  29  30
ENDBRANCH  28  29
ENDBRANCH  25  28
ENDBRANCH  23  24
ENDBRANCH  22  23
ENDBRANCH  20  22
ENDBRANCH  17  20
BRANCH   8  35
HETATM   35  O   UNK N   1      25.273  23.012  -6.467  0.00  0.00    -0.395 OA
HETATM   36  H   UNK N   1      24.364  22.736  -6.274  0.00  0.00     0.210 HD
ENDBRANCH   8  35
BRANCH   2  37
HETATM   37  O   UNK N   1      25.576  28.356  -3.400  0.00  0.00    -0.396 OA
HETATM   38  H   UNK N   1      25.378  27.825  -2.613  0.00  0.00     0.210 HD
ENDBRANCH   2  37
TORSDOF 10
ENDMDL
MODEL 6
REMARK VINA RESULT:      -7.2     12.118     15.594
REMARK  10 active torsions:
REMARK  status: ('A' for Active; 'I' for Inactive)
REMARK    1  A    between atoms: C_2  and  O_22 
REMARK    2  A    between atoms: C_8  and  O_19 
REMARK    3  A    between atoms: C_17  and  C_21 
REMARK    4  A    between atoms: C_21  and  C_24 
REMARK    5  A    between atoms: C_24  and  C_25 
REMARK    6  A    between atoms: C_25  and  C_26 
REMARK       I    between atoms: C_26  and  N_27 
REMARK    7  A    between atoms: N_27  and  C_28 
REMARK    8  A    between atoms: C_28  and  C_29 
REMARK    9  A    between atoms: C_29  and  S_30 
REMARK   10  A    between atoms: S_30  and  O_32 
ROOT
HETATM    1  C   UNK N   1      32.893  15.257   9.409  0.00  0.00     0.032 C 
HETATM    2  C   UNK N   1      34.293  15.873   9.362  0.00  0.00     0.118 C 
HETATM    3  C   UNK N   1      34.878  15.973   7.945  0.00  0.00     0.037 C 
HETATM    4  C   UNK N   1      33.927  16.481   6.837  0.00  0.00    -0.001 C 
HETATM    5  C   UNK N   1      32.489  16.787   7.356  0.00  0.00    -0.036 C 
HETATM    6  C   UNK N   1      32.000  15.606   8.217  0.00  0.00     0.012 C 
HETATM    7  C   UNK N   1      33.929  15.401   5.741  0.00  0.00     0.037 C 
HETATM    8  C   UNK N   1      32.977  15.725   4.585  0.00  0.00     0.123 C 
HETATM    9  C   UNK N   1      31.558  15.865   5.148  0.00  0.00     0.024 C 
HETATM   10  C   UNK N   1      31.490  17.009   6.197  0.00  0.00     0.001 C 
HETATM   11  C   UNK N   1      30.483  16.177   4.092  0.00  0.00     0.001 C 
HETATM   12  C   UNK N   1      29.097  16.041   4.717  0.00  0.00    -0.036 C 
HETATM   13  C   UNK N   1      28.918  17.111   5.790  0.00  0.00     0.010 C 
HETATM   14  C   UNK N   1      30.060  17.118   6.802  0.00  0.00     0.007 C 
HETATM   15  C   UNK N   1      30.385  15.323   2.845  0.00  0.00     0.006 C 
HETATM   16  C   UNK N   1      28.956  15.597   2.352  0.00  0.00     0.006 C 
HETATM   17  C   UNK N   1      28.237  16.312   3.505  0.00  0.00    -0.002 C 
HETATM   18  C   UNK N   1      32.492  18.074   8.189  0.00  0.00     0.016 C 
HETATM   19  C   UNK N   1      28.841  14.619   5.260  0.00  0.00     0.016 C 
ENDROOT
BRANCH  17  20
HETATM   20  C   UNK N   1      26.702  16.146   3.619  0.00  0.00    -0.013 C 
HETATM   21  C   UNK N   1      26.151  15.132   2.631  0.00  0.00     0.010 C 
BRANCH  20  22
HETATM   22  C   UNK N   1      25.864  17.430   3.568  0.00  0.00     0.014 C 
BRANCH  22  23
HETATM   23  C   UNK N   1      25.389  17.885   4.949  0.00  0.00     0.103 C 
BRANCH  23  24
HETATM   24  C   UNK N   1      23.998  18.432   4.886  0.00  0.00     0.217 C 
HETATM   25  N   UNK N   1      23.075  17.977   5.762  0.00  0.00    -0.360 N 
HETATM   26  H   UNK N   1      23.367  17.392   6.498  0.00  0.00     0.162 HD
HETATM   27  O   UNK N   1      23.683  19.208   3.992  0.00  0.00    -0.274 OA
BRANCH  25  28
HETATM   28  C   UNK N   1      21.682  18.315   5.658  0.00  0.00     0.139 C 
BRANCH  28  29
HETATM   29  C   UNK N   1      20.833  17.055   5.585  0.00  0.00     0.175 C 
BRANCH  29  30
HETATM   30  S   UNK N   1      20.149  16.621   7.218  0.00  0.00     0.095 S 
HETATM   31  O   UNK N   1      21.450  15.825   7.031  0.00  0.00    -0.601 OA
HETATM   32  O   UNK N   1      20.718  18.046   7.298  0.00  0.00    -0.601 OA
BRANCH  30  33
HETATM   33  O   UNK N   1      20.851  16.629   8.782  0.00  0.00    -0.296 OA
HETATM   34  H   UNK N   1      20.570  15.982   9.448  0.00  0.00     0.232 HD
ENDBRANCH  30  33
ENDBRANCH  29  30
ENDBRANCH  28  29
ENDBRANCH  25  28
ENDBRANCH  23  24
ENDBRANCH  22  23
ENDBRANCH  20  22
ENDBRANCH  17  20
BRANCH   8  35
HETATM   35  O   UNK N   1      33.393  16.874   3.906  0.00  0.00    -0.395 OA
HETATM   36  H   UNK N   1      33.520  17.834   3.856  0.00  0.00     0.210 HD
ENDBRANCH   8  35
BRANCH   2  37
HETATM   37  O   UNK N   1      34.312  17.113  10.001  0.00  0.00    -0.396 OA
HETATM   38  H   UNK N   1      33.993  17.628  10.758  0.00  0.00     0.210 HD
ENDBRANCH   2  37
TORSDOF 10
ENDMDL
MODEL 7
REMARK VINA RESULT:      -7.1     12.066     14.117
REMARK  10 active torsions:
REMARK  status: ('A' for Active; 'I' for Inactive)
REMARK    1  A    between atoms: C_2  and  O_22 
REMARK    2  A    between atoms: C_8  and  O_19 
REMARK    3  A    between atoms: C_17  and  C_21 
REMARK    4  A    between atoms: C_21  and  C_24 
REMARK    5  A    between atoms: C_24  and  C_25 
REMARK    6  A    between atoms: C_25  and  C_26 
REMARK       I    between atoms: C_26  and  N_27 
REMARK    7  A    between atoms: N_27  and  C_28 
REMARK    8  A    between atoms: C_28  and  C_29 
REMARK    9  A    between atoms: C_29  and  S_30 
REMARK   10  A    between atoms: S_30  and  O_32 
ROOT
HETATM    1  C   UNK N   1      27.678  19.816   4.590  0.00  0.00     0.032 C 
HETATM    2  C   UNK N   1      26.262  19.266   4.409  0.00  0.00     0.118 C 
HETATM    3  C   UNK N   1      26.216  17.877   3.755  0.00  0.00     0.037 C 
HETATM    4  C   UNK N   1      27.235  16.835   4.268  0.00  0.00    -0.001 C 
HETATM    5  C   UNK N   1      28.183  17.397   5.373  0.00  0.00    -0.036 C 
HETATM    6  C   UNK N   1      28.736  18.761   4.919  0.00  0.00     0.012 C 
HETATM    7  C   UNK N   1      28.013  16.350   3.032  0.00  0.00     0.037 C 
HETATM    8  C   UNK N   1      29.119  15.348   3.381  0.00  0.00     0.123 C 
HETATM    9  C   UNK N   1      30.094  16.018   4.355  0.00  0.00     0.024 C 
HETATM   10  C   UNK N   1      29.367  16.445   5.659  0.00  0.00     0.001 C 
HETATM   11  C   UNK N   1      31.275  15.131   4.784  0.00  0.00     0.001 C 
HETATM   12  C   UNK N   1      32.302  15.973   5.536  0.00  0.00    -0.036 C 
HETATM   13  C   UNK N   1      31.688  16.472   6.841  0.00  0.00     0.010 C 
HETATM   14  C   UNK N   1      30.348  17.168   6.627  0.00  0.00     0.007 C 
HETATM   15  C   UNK N   1      32.109  14.429   3.731  0.00  0.00     0.006 C 
HETATM   16  C   UNK N   1      33.412  14.113   4.480  0.00  0.00     0.006 C 
HETATM   17  C   UNK N   1      33.367  14.930   5.779  0.00  0.00    -0.002 C 
HETATM   18  C   UNK N   1      27.417  17.557   6.691  0.00  0.00     0.016 C 
HETATM   19  C   UNK N   1      32.855  17.126   4.671  0.00  0.00     0.016 C 
ENDROOT
BRANCH  17  20
HETATM   20  C   UNK N   1      34.712  15.361   6.414  0.00  0.00    -0.013 C 
HETATM   21  C   UNK N   1      35.912  14.759   5.703  0.00  0.00     0.010 C 
BRANCH  20  22
HETATM   22  C   UNK N   1      34.853  15.165   7.929  0.00  0.00     0.014 C 
BRANCH  22  23
HETATM   23  C   UNK N   1      34.527  16.430   8.724  0.00  0.00     0.103 C 
BRANCH  23  24
HETATM   24  C   UNK N   1      35.265  16.454  10.025  0.00  0.00     0.217 C 
HETATM   25  N   UNK N   1      35.433  15.299  10.705  0.00  0.00    -0.360 N 
HETATM   26  H   UNK N   1      35.177  14.453  10.272  0.00  0.00     0.162 HD
HETATM   27  O   UNK N   1      35.626  17.522  10.507  0.00  0.00    -0.274 OA
BRANCH  25  28
HETATM   28  C   UNK N   1      35.970  15.259  12.038  0.00  0.00     0.139 C 
BRANCH  28  29
HETATM   29  C   UNK N   1      36.471  13.863  12.367  0.00  0.00     0.175 C 
BRANCH  29  30
HETATM   30  S   UNK N   1      35.217  12.598  11.982  0.00  0.00     0.095 S 
HETATM   31  O   UNK N   1      36.234  11.968  12.946  0.00  0.00    -0.601 OA
HETATM   32  O   UNK N   1      34.578  13.641  12.912  0.00  0.00    -0.601 OA
BRANCH  30  33
HETATM   33  O   UNK N   1      34.247  11.614  12.997  0.00  0.00    -0.296 OA
HETATM   34  H   UNK N   1      34.380  10.653  13.020  0.00  0.00     0.232 HD
ENDBRANCH  30  33
ENDBRANCH  29  30
ENDBRANCH  28  29
ENDBRANCH  25  28
ENDBRANCH  23  24
ENDBRANCH  22  23
ENDBRANCH  20  22
ENDBRANCH  17  20
BRANCH   8  35
HETATM   35  O   UNK N   1      28.576  14.170   3.902  0.00  0.00    -0.395 OA
HETATM   36  H   UNK N   1      28.635  13.381   4.463  0.00  0.00     0.210 HD
ENDBRANCH   8  35
BRANCH   2  37
HETATM   37  O   UNK N   1      25.566  19.275   5.619  0.00  0.00    -0.396 OA
HETATM   38  H   UNK N   1      25.179  19.827   6.316  0.00  0.00     0.210 HD
ENDBRANCH   2  37
TORSDOF 10
ENDMDL
MODEL 8
REMARK VINA RESULT:      -6.9     11.351     15.199
REMARK  10 active torsions:
REMARK  status: ('A' for Active; 'I' for Inactive)
REMARK    1  A    between atoms: C_2  and  O_22 
REMARK    2  A    between atoms: C_8  and  O_19 
REMARK    3  A    between atoms: C_17  and  C_21 
REMARK    4  A    between atoms: C_21  and  C_24 
REMARK    5  A    between atoms: C_24  and  C_25 
REMARK    6  A    between atoms: C_25  and  C_26 
REMARK       I    between atoms: C_26  and  N_27 
REMARK    7  A    between atoms: N_27  and  C_28 
REMARK    8  A    between atoms: C_28  and  C_29 
REMARK    9  A    between atoms: C_29  and  S_30 
REMARK   10  A    between atoms: S_30  and  O_32 
ROOT
HETATM    1  C   UNK N   1      32.741  15.356   9.459  0.00  0.00     0.032 C 
HETATM    2  C   UNK N   1      34.193  15.837   9.393  0.00  0.00     0.118 C 
HETATM    3  C   UNK N   1      34.789  15.814   7.978  0.00  0.00     0.037 C 
HETATM    4  C   UNK N   1      33.894  16.355   6.840  0.00  0.00    -0.001 C 
HETATM    5  C   UNK N   1      32.488  16.817   7.333  0.00  0.00    -0.036 C 
HETATM    6  C   UNK N   1      31.889  15.730   8.245  0.00  0.00     0.012 C 
HETATM    7  C   UNK N   1      33.799  15.228   5.796  0.00  0.00     0.037 C 
HETATM    8  C   UNK N   1      32.885  15.585   4.619  0.00  0.00     0.123 C 
HETATM    9  C   UNK N   1      31.484  15.883   5.163  0.00  0.00     0.024 C 
HETATM   10  C   UNK N   1      31.518  17.076   6.157  0.00  0.00     0.001 C 
HETATM   11  C   UNK N   1      30.446  16.243   4.086  0.00  0.00     0.001 C 
HETATM   12  C   UNK N   1      29.051  16.266   4.706  0.00  0.00    -0.036 C 
HETATM   13  C   UNK N   1      28.969  17.398   5.726  0.00  0.00     0.010 C 
HETATM   14  C   UNK N   1      30.103  17.347   6.745  0.00  0.00     0.007 C 
HETATM   15  C   UNK N   1      30.273  15.342   2.879  0.00  0.00     0.006 C 
HETATM   16  C   UNK N   1      28.878  15.725   2.363  0.00  0.00     0.006 C 
HETATM   17  C   UNK N   1      28.224  16.557   3.475  0.00  0.00    -0.002 C 
HETATM   18  C   UNK N   1      32.609  18.137   8.104  0.00  0.00     0.016 C 
HETATM   19  C   UNK N   1      28.662  14.900   5.313  0.00  0.00     0.016 C 
ENDROOT
BRANCH  17  20
HETATM   20  C   UNK N   1      26.680  16.540   3.585  0.00  0.00    -0.013 C 
HETATM   21  C   UNK N   1      26.054  15.386   2.822  0.00  0.00     0.010 C 
BRANCH  20  22
HETATM   22  C   UNK N   1      25.951  17.845   3.243  0.00  0.00     0.014 C 
BRANCH  22  23
HETATM   23  C   UNK N   1      25.282  18.489   4.460  0.00  0.00     0.103 C 
BRANCH  23  24
HETATM   24  C   UNK N   1      24.065  19.261   4.060  0.00  0.00     0.217 C 
HETATM   25  N   UNK N   1      22.845  18.755   4.343  0.00  0.00    -0.360 N 
HETATM   26  H   UNK N   1      22.785  17.955   4.915  0.00  0.00     0.162 HD
HETATM   27  O   UNK N   1      24.178  20.288   3.400  0.00  0.00    -0.274 OA
BRANCH  25  28
HETATM   28  C   UNK N   1      21.631  19.339   3.841  0.00  0.00     0.139 C 
BRANCH  28  29
HETATM   29  C   UNK N   1      21.118  18.552   2.646  0.00  0.00     0.175 C 
BRANCH  29  30
HETATM   30  S   UNK N   1      19.920  17.277   3.155  0.00  0.00     0.095 S 
HETATM   31  O   UNK N   1      19.695  17.558   1.661  0.00  0.00    -0.601 OA
HETATM   32  O   UNK N   1      21.314  16.633   3.099  0.00  0.00    -0.601 OA
BRANCH  30  33
HETATM   33  O   UNK N   1      19.564  15.730   2.507  0.00  0.00    -0.296 OA
HETATM   34  H   UNK N   1      19.986  15.434   1.685  0.00  0.00     0.232 HD
ENDBRANCH  30  33
ENDBRANCH  29  30
ENDBRANCH  28  29
ENDBRANCH  25  28
ENDBRANCH  23  24
ENDBRANCH  22  23
ENDBRANCH  20  22
ENDBRANCH  17  20
BRANCH   8  35
HETATM   35  O   UNK N   1      33.409  16.656   3.890  0.00  0.00    -0.395 OA
HETATM   36  H   UNK N   1      33.518  17.149   3.062  0.00  0.00     0.210 HD
ENDBRANCH   8  35
BRANCH   2  37
HETATM   37  O   UNK N   1      34.326  17.098   9.974  0.00  0.00    -0.396 OA
HETATM   38  H   UNK N   1      34.188  18.051   9.859  0.00  0.00     0.210 HD
ENDBRANCH   2  37
TORSDOF 10
ENDMDL
MODEL 9
REMARK VINA RESULT:      -6.9     12.775     17.507
REMARK  10 active torsions:
REMARK  status: ('A' for Active; 'I' for Inactive)
REMARK    1  A    between atoms: C_2  and  O_22 
REMARK    2  A    between atoms: C_8  and  O_19 
REMARK    3  A    between atoms: C_17  and  C_21 
REMARK    4  A    between atoms: C_21  and  C_24 
REMARK    5  A    between atoms: C_24  and  C_25 
REMARK    6  A    between atoms: C_25  and  C_26 
REMARK       I    between atoms: C_26  and  N_27 
REMARK    7  A    between atoms: N_27  and  C_28 
REMARK    8  A    between atoms: C_28  and  C_29 
REMARK    9  A    between atoms: C_29  and  S_30 
REMARK   10  A    between atoms: S_30  and  O_32 
ROOT
HETATM    1  C   UNK N   1      37.537  11.606  10.015  0.00  0.00     0.032 C 
HETATM    2  C   UNK N   1      37.437  11.718  11.538  0.00  0.00     0.118 C 
HETATM    3  C   UNK N   1      37.041  13.118  12.031  0.00  0.00     0.037 C 
HETATM    4  C   UNK N   1      35.895  13.822  11.270  0.00  0.00    -0.001 C 
HETATM    5  C   UNK N   1      35.340  12.980  10.080  0.00  0.00    -0.036 C 
HETATM    6  C   UNK N   1      36.520  12.448   9.243  0.00  0.00     0.012 C 
HETATM    7  C   UNK N   1      36.456  15.178  10.806  0.00  0.00     0.037 C 
HETATM    8  C   UNK N   1      35.454  15.982   9.971  0.00  0.00     0.123 C 
HETATM    9  C   UNK N   1      35.067  15.153   8.742  0.00  0.00     0.024 C 
HETATM   10  C   UNK N   1      34.411  13.810   9.165  0.00  0.00     0.001 C 
HETATM   11  C   UNK N   1      34.070  15.846   7.796  0.00  0.00     0.001 C 
HETATM   12  C   UNK N   1      33.958  15.050   6.499  0.00  0.00    -0.036 C 
HETATM   13  C   UNK N   1      33.339  13.686   6.794  0.00  0.00     0.010 C 
HETATM   14  C   UNK N   1      34.062  12.949   7.917  0.00  0.00     0.007 C 
HETATM   15  C   UNK N   1      34.348  17.255   7.314  0.00  0.00     0.006 C 
HETATM   16  C   UNK N   1      33.468  17.369   6.060  0.00  0.00     0.006 C 
HETATM   17  C   UNK N   1      33.012  15.941   5.727  0.00  0.00    -0.002 C 
HETATM   18  C   UNK N   1      34.506  11.807  10.609  0.00  0.00     0.016 C 
HETATM   19  C   UNK N   1      35.314  14.932   5.769  0.00  0.00     0.016 C 
ENDROOT
BRANCH  17  20
HETATM   20  C   UNK N   1      32.698  15.603   4.249  0.00  0.00    -0.013 C 
HETATM   21  C   UNK N   1      33.113  16.711   3.298  0.00  0.00     0.010 C 
BRANCH  20  22
HETATM   22  C   UNK N   1      31.264  15.158   3.935  0.00  0.00     0.014 C 
BRANCH  22  23
HETATM   23  C   UNK N   1      30.411  16.279   3.338  0.00  0.00     0.103 C 
BRANCH  23  24
HETATM   24  C   UNK N   1      29.463  16.834   4.354  0.00  0.00     0.217 C 
HETATM   25  N   UNK N   1      29.057  18.117   4.239  0.00  0.00    -0.360 N 
HETATM   26  H   UNK N   1      29.292  18.618   3.425  0.00  0.00     0.162 HD
HETATM   27  O   UNK N   1      29.141  16.160   5.326  0.00  0.00    -0.274 OA
BRANCH  25  28
HETATM   28  C   UNK N   1      28.294  18.778   5.262  0.00  0.00     0.139 C 
BRANCH  28  29
HETATM   29  C   UNK N   1      27.713  20.080   4.734  0.00  0.00     0.175 C 
BRANCH  29  30
HETATM   30  S   UNK N   1      27.113  21.138   6.091  0.00  0.00     0.095 S 
HETATM   31  O   UNK N   1      25.892  20.447   5.464  0.00  0.00    -0.601 OA
HETATM   32  O   UNK N   1      27.821  19.921   6.707  0.00  0.00    -0.601 OA
BRANCH  30  33
HETATM   33  O   UNK N   1      26.111  20.796   7.440  0.00  0.00    -0.296 OA
HETATM   34  H   UNK N   1      25.718  19.916   7.547  0.00  0.00     0.232 HD
ENDBRANCH  30  33
ENDBRANCH  29  30
ENDBRANCH  28  29
ENDBRANCH  25  28
ENDBRANCH  23  24
ENDBRANCH  22  23
ENDBRANCH  20  22
ENDBRANCH  17  20
BRANCH   8  35
HETATM   35  O   UNK N   1      34.343  16.341  10.740  0.00  0.00    -0.395 OA
HETATM   36  H   UNK N   1      33.399  16.277  10.953  0.00  0.00     0.210 HD
ENDBRANCH   8  35
BRANCH   2  37
HETATM   37  O   UNK N   1      36.581  10.744  12.053  0.00  0.00    -0.396 OA
HETATM   38  H   UNK N   1      36.510   9.958  12.617  0.00  0.00     0.210 HD
ENDBRANCH   2  37
TORSDOF 10
ENDMDL
