REMARK  15 active torsions:
REMARK  status: ('A' for Active; 'I' for Inactive)
REMARK    1  A    between atoms: O_1  and  C_7 
REMARK    2  A    between atoms: O_2  and  C_8 
REMARK    3  A    between atoms: N_3  and  C_4 
REMARK    4  A    between atoms: C_4  and  C_5 
REMARK    5  A    between atoms: C_4  and  C_7 
REMARK    6  A    between atoms: C_4  and  C_8 
REMARK    7  A    between atoms: C_5  and  C_6 
REMARK    8  A    between atoms: C_6  and  C_12 
REMARK    9  A    between atoms: C_9  and  C_10 
REMARK   10  A    between atoms: C_9  and  C_11 
REMARK   11  A    between atoms: C_10  and  C_13 
REMARK   12  A    between atoms: C_11  and  C_14 
REMARK   13  A    between atoms: C_13  and  C_15 
REMARK   14  A    between atoms: C_14  and  C_16 
REMARK   15  A    between atoms: C_16  and  C_21 
ROOT
HETATM    1  C   UNK N   1       4.861   2.019  -0.244  0.00  0.00    -0.058 A 
HETATM    2  C   UNK N   1       5.399  -0.682   0.260  0.00  0.00    -0.058 A 
HETATM    3  C   UNK N   1       3.827   1.162   0.139  0.00  0.00     0.007 A 
HETATM    4  C   UNK N   1       6.165   1.528  -0.378  0.00  0.00     0.007 A 
HETATM    5  C   UNK N   1       4.098  -0.183   0.404  0.00  0.00     0.007 A 
HETATM    6  C   UNK N   1       6.433   0.176  -0.130  0.00  0.00     0.007 A 
ENDROOT
BRANCH   1   7
HETATM    7  C   UNK N   1       4.561   3.447  -0.538  0.00  0.00     0.041 C 
BRANCH   7   8
HETATM    8  C   UNK N   1       5.075   4.351   0.578  0.00  0.00     0.039 C 
BRANCH   8   9
HETATM    9  C   UNK N   1       5.539   5.721   0.067  0.00  0.00     0.066 C 
BRANCH   9  10
HETATM   10  N   UNK N   1       5.867   6.561   1.207  0.00  0.00    -0.418 N 
HETATM   11  H   UNK N   1       6.493   6.657   2.007  0.00  0.00     0.150 HD
HETATM   12  H   UNK N   1       5.230   7.358   1.207  0.00  0.00     0.150 HD
ENDBRANCH   9  10
BRANCH   9  13
HETATM   13  C   UNK N   1       4.453   6.408  -0.760  0.00  0.00     0.196 C 
BRANCH  13  14
HETATM   14  O   UNK N   1       3.290   6.593  -0.009  0.00  0.00    -0.398 OA
HETATM   15  H   UNK N   1       2.997   7.356   0.513  0.00  0.00     0.209 HD
ENDBRANCH  13  14
ENDBRANCH   9  13
BRANCH   9  16
HETATM   16  C   UNK N   1       6.781   5.564  -0.807  0.00  0.00     0.196 C 
BRANCH  16  17
HETATM   17  O   UNK N   1       7.827   4.980  -0.087  0.00  0.00    -0.398 OA
HETATM   18  H   UNK N   1       7.839   4.149   0.413  0.00  0.00     0.209 HD
ENDBRANCH  16  17
ENDBRANCH   9  16
ENDBRANCH   8   9
ENDBRANCH   7   8
ENDBRANCH   1   7
BRANCH   2  19
HETATM   19  C   UNK N   1       5.701  -2.121   0.551  0.00  0.00     0.038 C 
BRANCH  19  20
HETATM   20  C   UNK N   1       4.736  -3.055  -0.162  0.00  0.00     0.005 C 
BRANCH  20  21
HETATM   21  C   UNK N   1       3.536  -3.294   0.742  0.00  0.00     0.000 C 
BRANCH  21  22
HETATM   22  C   UNK N   1       2.260  -3.380  -0.074  0.00  0.00     0.000 C 
BRANCH  22  23
HETATM   23  C   UNK N   1       2.080  -4.779  -0.623  0.00  0.00     0.000 C 
BRANCH  23  24
HETATM   24  C   UNK N   1       0.934  -5.461   0.094  0.00  0.00    -0.000 C 
BRANCH  24  25
HETATM   25  C   UNK N   1       0.864  -6.909  -0.342  0.00  0.00    -0.005 C 
HETATM   26  C   UNK N   1      -0.345  -7.568   0.286  0.00  0.00     0.005 C 
ENDBRANCH  24  25
ENDBRANCH  23  24
ENDBRANCH  22  23
ENDBRANCH  21  22
ENDBRANCH  20  21
ENDBRANCH  19  20
ENDBRANCH   2  19
TORSDOF 15
