REMARK  6 active torsions:
REMARK  status: ('A' for Active; 'I' for Inactive)
REMARK    1  A    between atoms: C_1  and  O_6 
REMARK    2  A    between atoms: C_2  and  C_8 
REMARK    3  A    between atoms: C_8  and  C_9 
REMARK    4  A    between atoms: C_9  and  C_10 
REMARK    5  A    between atoms: C_9  and  O_12 
REMARK    6  A    between atoms: C_10  and  N_11 
ROOT
HETATM    1  C   UNK N   1      -6.816   6.945   0.093  0.00  0.00     0.156 C 
HETATM    2  C   UNK N   1      -7.565   5.630   0.003  0.00  0.00     0.153 C 
HETATM    3  O   UNK N   1      -7.501   5.164  -1.325  0.00  0.00    -0.377 OA
HETATM    4  C   UNK N   1      -6.174   5.461  -1.713  0.00  0.00     0.131 C 
HETATM    5  C   UNK N   1      -5.646   6.439  -0.679  0.00  0.00     0.053 C 
HETATM    6  C   UNK N   1      -4.232   7.009  -0.602  0.00  0.00     0.088 C 
HETATM    7  C   UNK N   1      -3.614   6.755   0.758  0.00  0.00     0.129 C 
HETATM    8  C   UNK N   1      -2.201   7.175   1.046  0.00  0.00     0.110 C 
HETATM    9  O   UNK N   1      -4.260   6.206   1.642  0.00  0.00    -0.298 OA
HETATM   10  C   UNK N   1      -1.241   6.290   0.271  0.00  0.00     0.129 C 
HETATM   11  C   UNK N   1       0.134   6.874   0.026  0.00  0.00     0.035 C 
HETATM   12  O   UNK N   1      -1.074   5.043   0.891  0.00  0.00    -0.375 OA
HETATM   13  C   UNK N   1      -0.748   4.131  -0.135  0.00  0.00     0.182 C 
HETATM   14  C   UNK N   1       0.659   4.489  -0.793  0.00  0.00     0.153 C 
HETATM   15  C   UNK N   1       0.768   6.006  -1.066  0.00  0.00     0.037 C 
HETATM   16  C   UNK N   1      -0.753   2.720   0.489  0.00  0.00     0.188 C 
HETATM   17  C   UNK N   1       0.507   2.733   1.332  0.00  0.00     0.185 C 
HETATM   18  C   UNK N   1       1.639   2.653   0.369  0.00  0.00     0.185 C 
HETATM   19  O   UNK N   1       1.820   4.014  -0.051  0.00  0.00    -0.373 OA
HETATM   20  O   UNK N   1      -0.781   1.745  -0.556  0.00  0.00    -0.344 OA
HETATM   21  C   UNK N   1       1.791   1.071   0.353  0.00  0.00     0.185 C 
HETATM   22  C   UNK N   1       1.046   0.612   1.622  0.00  0.00     0.159 C 
HETATM   23  C   UNK N   1      -0.224  -0.040   1.127  0.00  0.00     0.103 C 
HETATM   24  C   UNK N   1      -0.268   0.429  -0.311  0.00  0.00     0.168 C 
HETATM   25  C   UNK N   1      -1.129  -0.506  -1.188  0.00  0.00     0.071 C 
HETATM   26  C   UNK N   1      -1.555  -1.879  -0.643  0.00  0.00     0.037 C 
HETATM   27  O   UNK N   1       0.622   1.740   2.309  0.00  0.00    -0.372 OA
HETATM   28  O   UNK N   1       1.083   0.396  -0.708  0.00  0.00    -0.344 OA
HETATM   29  C   UNK N   1      -2.771  -1.820   0.296  0.00  0.00     0.126 C 
HETATM   30  O   UNK N   1      -3.841  -1.075  -0.256  0.00  0.00    -0.376 OA
HETATM   31  C   UNK N   1      -5.031  -1.585   0.315  0.00  0.00     0.150 C 
HETATM   32  C   UNK N   1      -4.707  -2.989   0.683  0.00  0.00    -0.058 C 
HETATM   33  C   UNK N   1      -3.267  -3.230   0.558  0.00  0.00     0.068 C 
HETATM   34  C   UNK N   1      -5.568  -3.998   0.540  0.00  0.00     0.017 C 
HETATM   35  C   UNK N   1      -6.202  -1.455  -0.685  0.00  0.00     0.039 C 
HETATM   36  C   UNK N   1      -6.887  -0.073  -0.700  0.00  0.00     0.035 C 
HETATM   37  C   UNK N   1      -5.877   1.060  -0.693  0.00  0.00     0.123 C 
HETATM   38  C   UNK N   1      -5.385   3.368  -0.466  0.00  0.00     0.153 C 
HETATM   39  O   UNK N   1      -6.421   2.370  -0.553  0.00  0.00    -0.376 OA
HETATM   40  C   UNK N   1      -4.842   1.010  -1.814  0.00  0.00     0.040 C 
HETATM   41  C   UNK N   1      -3.603   1.737  -1.282  0.00  0.00     0.014 C 
HETATM   42  C   UNK N   1      -4.012   2.786  -0.267  0.00  0.00    -0.057 C 
HETATM   43  C   UNK N   1      -3.582   2.675   0.988  0.00  0.00     0.017 C 
HETATM   44  C   UNK N   1      -2.858   2.346  -2.455  0.00  0.00     0.015 C 
HETATM   45  C   UNK N   1      -5.334   4.195  -1.754  0.00  0.00     0.069 C 
ENDROOT
BRANCH   2  46
HETATM   46  C   UNK N   1      -8.927   5.471   0.664  0.00  0.00     0.068 C 
BRANCH  46  47
HETATM   47  C   UNK N   1      -9.925   6.551   0.312  0.00  0.00     0.137 C 
BRANCH  47  48
HETATM   48  C   UNK N   1     -11.317   6.004   0.550  0.00  0.00     0.142 C 
BRANCH  48  49
HETATM   49  N   UNK N   1     -12.308   6.997   0.176  0.00  0.00    -0.428 N 
HETATM   50  H   UNK N   1     -12.052   7.949  -0.086  0.00  0.00     0.150 HD
HETATM   51  H   UNK N   1     -13.293   6.734   0.176  0.00  0.00     0.150 HD
ENDBRANCH  48  49
ENDBRANCH  47  48
BRANCH  47  52
HETATM   52  O   UNK N   1      -9.713   7.649   1.149  0.00  0.00    -0.394 OA
HETATM   53  H   UNK N   1      -8.980   7.903   1.730  0.00  0.00     0.210 HD
ENDBRANCH  47  52
ENDBRANCH  46  47
ENDBRANCH   2  46
BRANCH   1  54
HETATM   54  O   UNK N   1      -7.475   7.929  -0.661  0.00  0.00    -0.388 OA
HETATM   55  C   UNK N   1      -7.229   9.133   0.001  0.00  0.00     0.202 C 
ENDBRANCH   1  54
TORSDOF 6
