MODEL 1
REMARK VINA RESULT:      -6.8      0.000      0.000
REMARK  12 active torsions:
REMARK  status: ('A' for Active; 'I' for Inactive)
REMARK    1  A    between atoms: C_1  and  C_2 
REMARK    2  A    between atoms: N_7  and  C_12 
REMARK    3  A    between atoms: C_12  and  C_15 
REMARK    4  A    between atoms: C_13  and  N_16 
REMARK    5  A    between atoms: C_15  and  O_17 
REMARK    6  A    between atoms: N_16  and  C_19 
REMARK    7  A    between atoms: C_19  and  C_20 
REMARK    8  A    between atoms: C_19  and  C_21 
REMARK    9  A    between atoms: C_20  and  C_22 
REMARK   10  A    between atoms: C_21  and  O_23 
REMARK   11  A    between atoms: C_22  and  C_25 
REMARK   12  A    between atoms: O_23  and  C_26 
ROOT
HETATM    1  C   UNK N   1      21.580  16.699   3.076  0.00  0.00     0.105 C 
HETATM    2  C   UNK N   1      20.726  17.957   2.968  0.00  0.00     0.146 C 
HETATM    3  S   UNK N   1      21.832  16.307   4.835  0.00  0.00    -0.155 SA
HETATM    4  N   UNK N   1      21.430  19.240   2.977  0.00  0.00    -0.339 N 
HETATM    5  C   UNK N   1      22.882  17.745   5.216  0.00  0.00     0.109 C 
HETATM    6  C   UNK N   1      22.725  19.435   3.417  0.00  0.00     0.243 C 
HETATM    7  C   UNK N   1      23.581  18.322   3.995  0.00  0.00     0.179 C 
HETATM    8  O   UNK N   1      23.201  20.565   3.379  0.00  0.00    -0.271 OA
ENDROOT
BRANCH   7   9
HETATM    9  N   UNK N   1      24.869  18.833   4.450  0.00  0.00    -0.396 N 
HETATM   10  H   UNK N   1      24.976  19.437   5.264  0.00  0.00     0.155 HD
BRANCH   9  11
HETATM   11  C   UNK N   1      25.996  18.389   3.620  0.00  0.00     0.178 C 
BRANCH  11  12
HETATM   12  C   UNK N   1      27.233  19.140   4.112  0.00  0.00     0.039 C 
BRANCH  12  13
HETATM   13  C   UNK N   1      27.098  19.482   5.596  0.00  0.00     0.041 C 
BRANCH  13  14
HETATM   14  C   UNK N   1      28.132  18.815   6.425  0.00  0.00    -0.058 A 
HETATM   15  C   UNK N   1      28.187  19.041   7.805  0.00  0.00     0.007 A 
HETATM   16  C   UNK N   1      29.134  18.372   8.584  0.00  0.00     0.001 A 
HETATM   17  C   UNK N   1      30.022  17.473   7.986  0.00  0.00     0.000 A 
HETATM   18  C   UNK N   1      29.964  17.244   6.608  0.00  0.00     0.001 A 
HETATM   19  C   UNK N   1      29.015  17.910   5.828  0.00  0.00     0.007 A 
ENDBRANCH  13  14
ENDBRANCH  12  13
ENDBRANCH  11  12
BRANCH  11  20
HETATM   20  C   UNK N   1      26.100  16.854   3.501  0.00  0.00     0.281 C 
HETATM   21  O   UNK N   1      25.848  16.355   2.417  0.00  0.00    -0.263 OA
BRANCH  20  22
HETATM   22  O   UNK N   1      26.496  16.007   4.496  0.00  0.00    -0.320 OA
BRANCH  22  23
HETATM   23  C   UNK N   1      25.703  15.364   5.415  0.00  0.00     0.174 C 
HETATM   24  C   UNK N   1      26.224  15.638   6.812  0.00  0.00     0.034 C 
ENDBRANCH  22  23
ENDBRANCH  20  22
ENDBRANCH  11  20
ENDBRANCH   9  11
ENDBRANCH   7   9
BRANCH   4  25
HETATM   25  C   UNK N   1      20.653  20.404   2.588  0.00  0.00     0.235 C 
BRANCH  25  26
HETATM   26  C   UNK N   1      20.707  20.707   1.115  0.00  0.00     0.158 C 
HETATM   27  O   UNK N   1      20.771  21.868   0.749  0.00  0.00    -0.649 OA
BRANCH  26  28
HETATM   28  O   UNK N   1      20.667  19.721   0.197  0.00  0.00    -0.775 OA
HETATM   29  H   UNK N   1      20.324  18.850   0.184  0.00  0.00     0.167 HD
ENDBRANCH  26  28
ENDBRANCH  25  26
ENDBRANCH   4  25
BRANCH   1  30
HETATM   30  C   UNK N   1      20.941  15.523   2.400  0.00  0.00    -0.002 A 
HETATM   31  C   UNK N   1      20.192  15.575   1.224  0.00  0.00     0.016 A 
HETATM   32  C   UNK N   1      19.718  14.296   0.812  0.00  0.00     0.008 A 
HETATM   33  C   UNK N   1      20.088  13.245   1.664  0.00  0.00     0.050 A 
HETATM   34  S   UNK N   1      20.980  13.937   2.879  0.00  0.00    -0.105 SA
ENDBRANCH   1  30
TORSDOF 12
ENDMDL
MODEL 2
REMARK VINA RESULT:      -6.6      4.367      6.716
REMARK  12 active torsions:
REMARK  status: ('A' for Active; 'I' for Inactive)
REMARK    1  A    between atoms: C_1  and  C_2 
REMARK    2  A    between atoms: N_7  and  C_12 
REMARK    3  A    between atoms: C_12  and  C_15 
REMARK    4  A    between atoms: C_13  and  N_16 
REMARK    5  A    between atoms: C_15  and  O_17 
REMARK    6  A    between atoms: N_16  and  C_19 
REMARK    7  A    between atoms: C_19  and  C_20 
REMARK    8  A    between atoms: C_19  and  C_21 
REMARK    9  A    between atoms: C_20  and  C_22 
REMARK   10  A    between atoms: C_21  and  O_23 
REMARK   11  A    between atoms: C_22  and  C_25 
REMARK   12  A    between atoms: O_23  and  C_26 
ROOT
HETATM    1  C   UNK N   1      22.926  16.913   4.158  0.00  0.00     0.105 C 
HETATM    2  C   UNK N   1      21.866  17.626   3.327  0.00  0.00     0.146 C 
HETATM    3  S   UNK N   1      23.173  15.240   3.488  0.00  0.00    -0.155 SA
HETATM    4  N   UNK N   1      20.471  17.443   3.731  0.00  0.00    -0.339 N 
HETATM    5  C   UNK N   1      21.541  14.587   3.962  0.00  0.00     0.109 C 
HETATM    6  C   UNK N   1      20.006  16.434   4.551  0.00  0.00     0.243 C 
HETATM    7  C   UNK N   1      20.900  15.344   5.114  0.00  0.00     0.179 C 
HETATM    8  O   UNK N   1      18.807  16.386   4.812  0.00  0.00    -0.271 OA
ENDROOT
BRANCH   7   9
HETATM    9  N   UNK N   1      20.125  14.371   5.876  0.00  0.00    -0.396 N 
HETATM   10  H   UNK N   1      19.320  13.874   5.496  0.00  0.00     0.155 HD
BRANCH   9  11
HETATM   11  C   UNK N   1      20.620  14.179   7.246  0.00  0.00     0.178 C 
BRANCH  11  12
HETATM   12  C   UNK N   1      22.112  13.862   7.139  0.00  0.00     0.039 C 
BRANCH  12  13
HETATM   13  C   UNK N   1      22.379  12.407   7.524  0.00  0.00     0.041 C 
BRANCH  13  14
HETATM   14  C   UNK N   1      22.845  12.271   8.927  0.00  0.00    -0.058 A 
HETATM   15  C   UNK N   1      24.213  12.271   9.221  0.00  0.00     0.007 A 
HETATM   16  C   UNK N   1      24.641  12.190  10.549  0.00  0.00     0.001 A 
HETATM   17  C   UNK N   1      23.702  12.114  11.582  0.00  0.00     0.000 A 
HETATM   18  C   UNK N   1      22.335  12.119  11.288  0.00  0.00     0.001 A 
HETATM   19  C   UNK N   1      21.906  12.203   9.960  0.00  0.00     0.007 A 
ENDBRANCH  13  14
ENDBRANCH  12  13
ENDBRANCH  11  12
BRANCH  11  20
HETATM   20  C   UNK N   1      20.203  15.310   8.210  0.00  0.00     0.281 C 
HETATM   21  O   UNK N   1      20.950  15.561   9.141  0.00  0.00    -0.263 OA
BRANCH  20  22
HETATM   22  O   UNK N   1      19.089  16.089   8.082  0.00  0.00    -0.320 OA
BRANCH  22  23
HETATM   23  C   UNK N   1      18.839  17.300   8.680  0.00  0.00     0.174 C 
HETATM   24  C   UNK N   1      17.521  17.233   9.427  0.00  0.00     0.034 C 
ENDBRANCH  22  23
ENDBRANCH  20  22
ENDBRANCH  11  20
ENDBRANCH   9  11
ENDBRANCH   7   9
BRANCH   4  25
HETATM   25  C   UNK N   1      19.503  18.341   3.127  0.00  0.00     0.235 C 
BRANCH  25  26
HETATM   26  C   UNK N   1      20.038  19.720   2.854  0.00  0.00     0.158 C 
HETATM   27  O   UNK N   1      20.284  20.460   3.791  0.00  0.00    -0.649 OA
BRANCH  26  28
HETATM   28  O   UNK N   1      20.232  20.157   1.594  0.00  0.00    -0.775 OA
HETATM   29  H   UNK N   1      20.312  19.740   0.759  0.00  0.00     0.167 HD
ENDBRANCH  26  28
ENDBRANCH  25  26
ENDBRANCH   4  25
BRANCH   1  30
HETATM   30  C   UNK N   1      24.236  17.642   4.148  0.00  0.00    -0.002 A 
HETATM   31  C   UNK N   1      24.390  19.028   4.118  0.00  0.00     0.016 A 
HETATM   32  C   UNK N   1      25.756  19.435   4.125  0.00  0.00     0.008 A 
HETATM   33  C   UNK N   1      26.670  18.372   4.157  0.00  0.00     0.050 A 
HETATM   34  S   UNK N   1      25.758  16.987   4.174  0.00  0.00    -0.105 SA
ENDBRANCH   1  30
TORSDOF 12
ENDMDL
MODEL 3
REMARK VINA RESULT:      -6.5      3.808      6.509
REMARK  12 active torsions:
REMARK  status: ('A' for Active; 'I' for Inactive)
REMARK    1  A    between atoms: C_1  and  C_2 
REMARK    2  A    between atoms: N_7  and  C_12 
REMARK    3  A    between atoms: C_12  and  C_15 
REMARK    4  A    between atoms: C_13  and  N_16 
REMARK    5  A    between atoms: C_15  and  O_17 
REMARK    6  A    between atoms: N_16  and  C_19 
REMARK    7  A    between atoms: C_19  and  C_20 
REMARK    8  A    between atoms: C_19  and  C_21 
REMARK    9  A    between atoms: C_20  and  C_22 
REMARK   10  A    between atoms: C_21  and  O_23 
REMARK   11  A    between atoms: C_22  and  C_25 
REMARK   12  A    between atoms: O_23  and  C_26 
ROOT
HETATM    1  C   UNK N   1      24.320  18.146   4.553  0.00  0.00     0.105 C 
HETATM    2  C   UNK N   1      23.515  19.115   3.697  0.00  0.00     0.146 C 
HETATM    3  S   UNK N   1      24.709  16.669   3.564  0.00  0.00    -0.155 SA
HETATM    4  N   UNK N   1      22.061  18.946   3.691  0.00  0.00    -0.339 N 
HETATM    5  C   UNK N   1      23.003  16.046   3.448  0.00  0.00     0.109 C 
HETATM    6  C   UNK N   1      21.390  17.807   4.092  0.00  0.00     0.243 C 
HETATM    7  C   UNK N   1      22.099  16.549   4.563  0.00  0.00     0.179 C 
HETATM    8  O   UNK N   1      20.165  17.788   4.034  0.00  0.00    -0.271 OA
ENDROOT
BRANCH   7   9
HETATM    9  N   UNK N   1      21.145  15.483   4.844  0.00  0.00    -0.396 N 
HETATM   10  H   UNK N   1      20.605  15.009   4.120  0.00  0.00     0.155 HD
BRANCH   9  11
HETATM   11  C   UNK N   1      21.039  15.160   6.272  0.00  0.00     0.178 C 
BRANCH  11  12
HETATM   12  C   UNK N   1      22.446  15.271   6.859  0.00  0.00     0.039 C 
BRANCH  12  13
HETATM   13  C   UNK N   1      23.097  13.891   6.956  0.00  0.00     0.041 C 
BRANCH  13  14
HETATM   14  C   UNK N   1      23.157  13.393   8.353  0.00  0.00    -0.058 A 
HETATM   15  C   UNK N   1      21.983  13.226   9.095  0.00  0.00     0.007 A 
HETATM   16  C   UNK N   1      22.045  12.711  10.393  0.00  0.00     0.001 A 
HETATM   17  C   UNK N   1      23.280  12.361  10.947  0.00  0.00     0.000 A 
HETATM   18  C   UNK N   1      24.453  12.525  10.204  0.00  0.00     0.001 A 
HETATM   19  C   UNK N   1      24.391  13.036   8.904  0.00  0.00     0.007 A 
ENDBRANCH  13  14
ENDBRANCH  12  13
ENDBRANCH  11  12
BRANCH  11  20
HETATM   20  C   UNK N   1      19.910  15.929   6.990  0.00  0.00     0.281 C 
HETATM   21  O   UNK N   1      18.810  15.936   6.464  0.00  0.00    -0.263 OA
BRANCH  20  22
HETATM   22  O   UNK N   1      20.026  16.566   8.192  0.00  0.00    -0.320 OA
BRANCH  22  23
HETATM   23  C   UNK N   1      19.028  17.161   8.926  0.00  0.00     0.174 C 
HETATM   24  C   UNK N   1      19.492  18.525   9.398  0.00  0.00     0.034 C 
ENDBRANCH  22  23
ENDBRANCH  20  22
ENDBRANCH  11  20
ENDBRANCH   9  11
ENDBRANCH   7   9
BRANCH   4  25
HETATM   25  C   UNK N   1      21.288  20.033   3.116  0.00  0.00     0.235 C 
BRANCH  25  26
HETATM   26  C   UNK N   1      21.072  19.909   1.633  0.00  0.00     0.158 C 
HETATM   27  O   UNK N   1      21.654  20.673   0.881  0.00  0.00    -0.649 OA
BRANCH  26  28
HETATM   28  O   UNK N   1      20.234  18.985   1.124  0.00  0.00    -0.775 OA
HETATM   29  H   UNK N   1      20.073  18.078   1.296  0.00  0.00     0.167 HD
ENDBRANCH  26  28
ENDBRANCH  25  26
ENDBRANCH   4  25
BRANCH   1  30
HETATM   30  C   UNK N   1      25.599  18.755   5.046  0.00  0.00    -0.002 A 
HETATM   31  C   UNK N   1      26.764  18.053   5.351  0.00  0.00     0.016 A 
HETATM   32  C   UNK N   1      27.824  18.900   5.788  0.00  0.00     0.008 A 
HETATM   33  C   UNK N   1      27.490  20.261   5.830  0.00  0.00     0.050 A 
HETATM   34  S   UNK N   1      25.912  20.358   5.328  0.00  0.00    -0.105 SA
ENDBRANCH   1  30
TORSDOF 12
ENDMDL
MODEL 4
REMARK VINA RESULT:      -6.5      1.981      4.543
REMARK  12 active torsions:
REMARK  status: ('A' for Active; 'I' for Inactive)
REMARK    1  A    between atoms: C_1  and  C_2 
REMARK    2  A    between atoms: N_7  and  C_12 
REMARK    3  A    between atoms: C_12  and  C_15 
REMARK    4  A    between atoms: C_13  and  N_16 
REMARK    5  A    between atoms: C_15  and  O_17 
REMARK    6  A    between atoms: N_16  and  C_19 
REMARK    7  A    between atoms: C_19  and  C_20 
REMARK    8  A    between atoms: C_19  and  C_21 
REMARK    9  A    between atoms: C_20  and  C_22 
REMARK   10  A    between atoms: C_21  and  O_23 
REMARK   11  A    between atoms: C_22  and  C_25 
REMARK   12  A    between atoms: O_23  and  C_26 
ROOT
HETATM    1  C   UNK N   1      20.852  16.570   3.361  0.00  0.00     0.105 C 
HETATM    2  C   UNK N   1      20.252  17.905   2.938  0.00  0.00     0.146 C 
HETATM    3  S   UNK N   1      20.742  16.422   5.171  0.00  0.00    -0.155 SA
HETATM    4  N   UNK N   1      21.151  19.061   2.917  0.00  0.00    -0.339 N 
HETATM    5  C   UNK N   1      21.941  17.736   5.558  0.00  0.00     0.109 C 
HETATM    6  C   UNK N   1      22.369  19.133   3.563  0.00  0.00     0.243 C 
HETATM    7  C   UNK N   1      22.918  18.012   4.427  0.00  0.00     0.179 C 
HETATM    8  O   UNK N   1      23.029  20.164   3.472  0.00  0.00    -0.271 OA
ENDROOT
BRANCH   7   9
HETATM    9  N   UNK N   1      24.181  18.397   5.047  0.00  0.00    -0.396 N 
HETATM   10  H   UNK N   1      24.320  19.284   5.530  0.00  0.00     0.155 HD
BRANCH   9  11
HETATM   11  C   UNK N   1      25.231  17.380   4.907  0.00  0.00     0.178 C 
BRANCH  11  12
HETATM   12  C   UNK N   1      25.017  16.703   3.553  0.00  0.00     0.039 C 
BRANCH  12  13
HETATM   13  C   UNK N   1      25.233  15.194   3.668  0.00  0.00     0.041 C 
BRANCH  13  14
HETATM   14  C   UNK N   1      24.381  14.430   2.724  0.00  0.00    -0.058 A 
HETATM   15  C   UNK N   1      24.477  14.652   1.346  0.00  0.00     0.007 A 
HETATM   16  C   UNK N   1      23.705  13.894   0.461  0.00  0.00     0.001 A 
HETATM   17  C   UNK N   1      22.840  12.912   0.954  0.00  0.00     0.000 A 
HETATM   18  C   UNK N   1      22.747  12.687   2.331  0.00  0.00     0.001 A 
HETATM   19  C   UNK N   1      23.522  13.442   3.215  0.00  0.00     0.007 A 
ENDBRANCH  13  14
ENDBRANCH  12  13
ENDBRANCH  11  12
BRANCH  11  20
HETATM   20  C   UNK N   1      26.645  17.916   5.216  0.00  0.00     0.281 C 
HETATM   21  O   UNK N   1      27.207  17.486   6.209  0.00  0.00    -0.263 OA
BRANCH  20  22
HETATM   22  O   UNK N   1      27.343  18.800   4.443  0.00  0.00    -0.320 OA
BRANCH  22  23
HETATM   23  C   UNK N   1      27.849  20.022   4.815  0.00  0.00     0.174 C 
HETATM   24  C   UNK N   1      26.747  20.857   5.438  0.00  0.00     0.034 C 
ENDBRANCH  22  23
ENDBRANCH  20  22
ENDBRANCH  11  20
ENDBRANCH   9  11
ENDBRANCH   7   9
BRANCH   4  25
HETATM   25  C   UNK N   1      20.656  20.249   2.245  0.00  0.00     0.235 C 
BRANCH  25  26
HETATM   26  C   UNK N   1      20.825  20.219   0.750  0.00  0.00     0.158 C 
HETATM   27  O   UNK N   1      21.237  21.213   0.178  0.00  0.00    -0.649 OA
BRANCH  26  28
HETATM   28  O   UNK N   1      20.511  19.121   0.034  0.00  0.00    -0.775 OA
HETATM   29  H   UNK N   1      20.146  18.973  -0.816  0.00  0.00     0.167 HD
ENDBRANCH  26  28
ENDBRANCH  25  26
ENDBRANCH   4  25
BRANCH   1  30
HETATM   30  C   UNK N   1      20.145  15.408   2.731  0.00  0.00    -0.002 A 
HETATM   31  C   UNK N   1      19.646  14.298   3.413  0.00  0.00     0.016 A 
HETATM   32  C   UNK N   1      19.014  13.356   2.552  0.00  0.00     0.008 A 
HETATM   33  C   UNK N   1      19.021  13.721   1.199  0.00  0.00     0.050 A 
HETATM   34  S   UNK N   1      19.801  15.182   1.126  0.00  0.00    -0.105 SA
ENDBRANCH   1  30
TORSDOF 12
ENDMDL
MODEL 5
REMARK VINA RESULT:      -6.5     11.683     14.693
REMARK  12 active torsions:
REMARK  status: ('A' for Active; 'I' for Inactive)
REMARK    1  A    between atoms: C_1  and  C_2 
REMARK    2  A    between atoms: N_7  and  C_12 
REMARK    3  A    between atoms: C_12  and  C_15 
REMARK    4  A    between atoms: C_13  and  N_16 
REMARK    5  A    between atoms: C_15  and  O_17 
REMARK    6  A    between atoms: N_16  and  C_19 
REMARK    7  A    between atoms: C_19  and  C_20 
REMARK    8  A    between atoms: C_19  and  C_21 
REMARK    9  A    between atoms: C_20  and  C_22 
REMARK   10  A    between atoms: C_21  and  O_23 
REMARK   11  A    between atoms: C_22  and  C_25 
REMARK   12  A    between atoms: O_23  and  C_26 
ROOT
HETATM    1  C   UNK N   1      35.336  13.882   7.542  0.00  0.00     0.105 C 
HETATM    2  C   UNK N   1      34.418  15.068   7.814  0.00  0.00     0.146 C 
HETATM    3  S   UNK N   1      34.765  12.459   8.521  0.00  0.00    -0.155 SA
HETATM    4  N   UNK N   1      34.763  15.927   8.949  0.00  0.00    -0.339 N 
HETATM    5  C   UNK N   1      35.192  13.147  10.151  0.00  0.00     0.109 C 
HETATM    6  C   UNK N   1      35.610  15.579   9.983  0.00  0.00     0.243 C 
HETATM    7  C   UNK N   1      36.271  14.217  10.090  0.00  0.00     0.179 C 
HETATM    8  O   UNK N   1      35.813  16.390  10.881  0.00  0.00    -0.271 OA
ENDROOT
BRANCH   7   9
HETATM    9  N   UNK N   1      37.043  14.104  11.322  0.00  0.00    -0.396 N 
HETATM   10  H   UNK N   1      37.849  14.692  11.534  0.00  0.00     0.155 HD
BRANCH   9  11
HETATM   11  C   UNK N   1      36.544  13.061  12.227  0.00  0.00     0.178 C 
BRANCH  11  12
HETATM   12  C   UNK N   1      37.681  12.057  12.418  0.00  0.00     0.039 C 
BRANCH  12  13
HETATM   13  C   UNK N   1      37.194  10.635  12.138  0.00  0.00     0.041 C 
BRANCH  13  14
HETATM   14  C   UNK N   1      36.988   9.855  13.384  0.00  0.00    -0.058 A 
HETATM   15  C   UNK N   1      37.600  10.253  14.577  0.00  0.00     0.007 A 
HETATM   16  C   UNK N   1      37.363   9.540  15.755  0.00  0.00     0.001 A 
HETATM   17  C   UNK N   1      36.511   8.431  15.741  0.00  0.00     0.000 A 
HETATM   18  C   UNK N   1      35.897   8.035  14.548  0.00  0.00     0.001 A 
HETATM   19  C   UNK N   1      36.131   8.751  13.371  0.00  0.00     0.007 A 
ENDBRANCH  13  14
ENDBRANCH  12  13
ENDBRANCH  11  12
BRANCH  11  20
HETATM   20  C   UNK N   1      35.876  13.624  13.500  0.00  0.00     0.281 C 
HETATM   21  O   UNK N   1      36.390  14.598  14.022  0.00  0.00    -0.263 OA
BRANCH  20  22
HETATM   22  O   UNK N   1      34.727  13.151  14.066  0.00  0.00    -0.320 OA
BRANCH  22  23
HETATM   23  C   UNK N   1      34.609  12.273  15.117  0.00  0.00     0.174 C 
HETATM   24  C   UNK N   1      33.719  11.115  14.711  0.00  0.00     0.034 C 
ENDBRANCH  22  23
ENDBRANCH  20  22
ENDBRANCH  11  20
ENDBRANCH   9  11
ENDBRANCH   7   9
BRANCH   4  25
HETATM   25  C   UNK N   1      34.067  17.199   9.027  0.00  0.00     0.235 C 
BRANCH  25  26
HETATM   26  C   UNK N   1      34.608  18.248   8.095  0.00  0.00     0.158 C 
HETATM   27  O   UNK N   1      35.277  19.161   8.549  0.00  0.00    -0.649 OA
BRANCH  26  28
HETATM   28  O   UNK N   1      34.350  18.207   6.772  0.00  0.00    -0.775 OA
HETATM   29  H   UNK N   1      33.984  18.809   6.155  0.00  0.00     0.167 HD
ENDBRANCH  26  28
ENDBRANCH  25  26
ENDBRANCH   4  25
BRANCH   1  30
HETATM   30  C   UNK N   1      35.353  13.503   6.091  0.00  0.00    -0.002 A 
HETATM   31  C   UNK N   1      36.306  13.911   5.160  0.00  0.00     0.016 A 
HETATM   32  C   UNK N   1      36.071  13.385   3.857  0.00  0.00     0.008 A 
HETATM   33  C   UNK N   1      34.933  12.570   3.765  0.00  0.00     0.050 A 
HETATM   34  S   UNK N   1      34.274  12.536   5.286  0.00  0.00    -0.105 SA
ENDBRANCH   1  30
TORSDOF 12
ENDMDL
MODEL 6
REMARK VINA RESULT:      -6.4      4.766      8.745
REMARK  12 active torsions:
REMARK  status: ('A' for Active; 'I' for Inactive)
REMARK    1  A    between atoms: C_1  and  C_2 
REMARK    2  A    between atoms: N_7  and  C_12 
REMARK    3  A    between atoms: C_12  and  C_15 
REMARK    4  A    between atoms: C_13  and  N_16 
REMARK    5  A    between atoms: C_15  and  O_17 
REMARK    6  A    between atoms: N_16  and  C_19 
REMARK    7  A    between atoms: C_19  and  C_20 
REMARK    8  A    between atoms: C_19  and  C_21 
REMARK    9  A    between atoms: C_20  and  C_22 
REMARK   10  A    between atoms: C_21  and  O_23 
REMARK   11  A    between atoms: C_22  and  C_25 
REMARK   12  A    between atoms: O_23  and  C_26 
ROOT
HETATM    1  C   UNK N   1      21.807  14.297   8.252  0.00  0.00     0.105 C 
HETATM    2  C   UNK N   1      21.019  15.459   8.843  0.00  0.00     0.146 C 
HETATM    3  S   UNK N   1      23.130  14.961   7.192  0.00  0.00    -0.155 SA
HETATM    4  N   UNK N   1      19.896  15.970   8.053  0.00  0.00    -0.339 N 
HETATM    5  C   UNK N   1      22.039  15.628   5.897  0.00  0.00     0.109 C 
HETATM    6  C   UNK N   1      19.704  15.744   6.704  0.00  0.00     0.243 C 
HETATM    7  C   UNK N   1      20.677  14.953   5.849  0.00  0.00     0.179 C 
HETATM    8  O   UNK N   1      18.723  16.235   6.155  0.00  0.00    -0.271 OA
ENDROOT
BRANCH   7   9
HETATM    9  N   UNK N   1      20.261  14.946   4.451  0.00  0.00    -0.396 N 
HETATM   10  H   UNK N   1      19.430  14.459   4.116  0.00  0.00     0.155 HD
BRANCH   9  11
HETATM   11  C   UNK N   1      21.158  15.711   3.574  0.00  0.00     0.178 C 
BRANCH  11  12
HETATM   12  C   UNK N   1      21.524  14.796   2.406  0.00  0.00     0.039 C 
BRANCH  12  13
HETATM   13  C   UNK N   1      20.682  15.133   1.176  0.00  0.00     0.041 C 
BRANCH  13  14
HETATM   14  C   UNK N   1      19.828  13.996   0.749  0.00  0.00    -0.058 A 
HETATM   15  C   UNK N   1      20.328  12.690   0.768  0.00  0.00     0.007 A 
HETATM   16  C   UNK N   1      19.502  11.621   0.410  0.00  0.00     0.001 A 
HETATM   17  C   UNK N   1      18.176  11.858   0.036  0.00  0.00     0.000 A 
HETATM   18  C   UNK N   1      17.675  13.164   0.020  0.00  0.00     0.001 A 
HETATM   19  C   UNK N   1      18.500  14.233   0.383  0.00  0.00     0.007 A 
ENDBRANCH  13  14
ENDBRANCH  12  13
ENDBRANCH  11  12
BRANCH  11  20
HETATM   20  C   UNK N   1      20.624  17.118   3.232  0.00  0.00     0.281 C 
HETATM   21  O   UNK N   1      19.424  17.306   3.340  0.00  0.00    -0.263 OA
BRANCH  20  22
HETATM   22  O   UNK N   1      21.388  18.186   2.862  0.00  0.00    -0.320 OA
BRANCH  22  23
HETATM   23  C   UNK N   1      21.105  19.520   3.032  0.00  0.00     0.174 C 
HETATM   24  C   UNK N   1      20.897  20.170   1.678  0.00  0.00     0.034 C 
ENDBRANCH  22  23
ENDBRANCH  20  22
ENDBRANCH  11  20
ENDBRANCH   9  11
ENDBRANCH   7   9
BRANCH   4  25
HETATM   25  C   UNK N   1      18.983  16.868   8.738  0.00  0.00     0.235 C 
BRANCH  25  26
HETATM   26  C   UNK N   1      19.535  18.251   8.953  0.00  0.00     0.158 C 
HETATM   27  O   UNK N   1      20.337  18.703   8.153  0.00  0.00    -0.649 OA
BRANCH  26  28
HETATM   28  O   UNK N   1      19.175  18.988  10.023  0.00  0.00    -0.775 OA
HETATM   29  H   UNK N   1      18.589  19.706  10.159  0.00  0.00     0.167 HD
ENDBRANCH  26  28
ENDBRANCH  25  26
ENDBRANCH   4  25
BRANCH   1  30
HETATM   30  C   UNK N   1      22.419  13.432   9.313  0.00  0.00    -0.002 A 
HETATM   31  C   UNK N   1      21.733  12.858  10.383  0.00  0.00     0.016 A 
HETATM   32  C   UNK N   1      22.574  12.076  11.226  0.00  0.00     0.008 A 
HETATM   33  C   UNK N   1      23.916  12.042  10.823  0.00  0.00     0.050 A 
HETATM   34  S   UNK N   1      24.004  12.970   9.452  0.00  0.00    -0.105 SA
ENDBRANCH   1  30
TORSDOF 12
ENDMDL
MODEL 7
REMARK VINA RESULT:      -6.4      1.981      4.234
REMARK  12 active torsions:
REMARK  status: ('A' for Active; 'I' for Inactive)
REMARK    1  A    between atoms: C_1  and  C_2 
REMARK    2  A    between atoms: N_7  and  C_12 
REMARK    3  A    between atoms: C_12  and  C_15 
REMARK    4  A    between atoms: C_13  and  N_16 
REMARK    5  A    between atoms: C_15  and  O_17 
REMARK    6  A    between atoms: N_16  and  C_19 
REMARK    7  A    between atoms: C_19  and  C_20 
REMARK    8  A    between atoms: C_19  and  C_21 
REMARK    9  A    between atoms: C_20  and  C_22 
REMARK   10  A    between atoms: C_21  and  O_23 
REMARK   11  A    between atoms: C_22  and  C_25 
REMARK   12  A    between atoms: O_23  and  C_26 
ROOT
HETATM    1  C   UNK N   1      21.449  16.929   3.106  0.00  0.00     0.105 C 
HETATM    2  C   UNK N   1      20.706  18.259   3.091  0.00  0.00     0.146 C 
HETATM    3  S   UNK N   1      21.850  16.497   4.827  0.00  0.00    -0.155 SA
HETATM    4  N   UNK N   1      21.520  19.474   3.027  0.00  0.00    -0.339 N 
HETATM    5  C   UNK N   1      23.060  17.830   5.097  0.00  0.00     0.109 C 
HETATM    6  C   UNK N   1      22.866  19.547   3.327  0.00  0.00     0.243 C 
HETATM    7  C   UNK N   1      23.675  18.355   3.809  0.00  0.00     0.179 C 
HETATM    8  O   UNK N   1      23.436  20.630   3.240  0.00  0.00    -0.271 OA
ENDROOT
BRANCH   7   9
HETATM    9  N   UNK N   1      25.044  18.744   4.125  0.00  0.00    -0.396 N 
HETATM   10  H   UNK N   1      25.338  19.713   4.246  0.00  0.00     0.155 HD
BRANCH   9  11
HETATM   11  C   UNK N   1      25.957  17.600   4.252  0.00  0.00     0.178 C 
BRANCH  11  12
HETATM   12  C   UNK N   1      25.712  16.698   3.043  0.00  0.00     0.039 C 
BRANCH  12  13
HETATM   13  C   UNK N   1      25.778  15.226   3.449  0.00  0.00     0.041 C 
BRANCH  13  14
HETATM   14  C   UNK N   1      25.246  14.326   2.396  0.00  0.00    -0.058 A 
HETATM   15  C   UNK N   1      25.712  13.012   2.288  0.00  0.00     0.007 A 
HETATM   16  C   UNK N   1      25.172  12.157   1.323  0.00  0.00     0.001 A 
HETATM   17  C   UNK N   1      24.163  12.615   0.471  0.00  0.00     0.000 A 
HETATM   18  C   UNK N   1      23.694  13.928   0.582  0.00  0.00     0.001 A 
HETATM   19  C   UNK N   1      24.232  14.782   1.549  0.00  0.00     0.007 A 
ENDBRANCH  13  14
ENDBRANCH  12  13
ENDBRANCH  11  12
BRANCH  11  20
HETATM   20  C   UNK N   1      27.416  18.013   4.544  0.00  0.00     0.281 C 
HETATM   21  O   UNK N   1      27.765  19.130   4.200  0.00  0.00    -0.263 OA
BRANCH  20  22
HETATM   22  O   UNK N   1      28.340  17.249   5.197  0.00  0.00    -0.320 OA
BRANCH  22  23
HETATM   23  C   UNK N   1      28.996  17.544   6.368  0.00  0.00     0.174 C 
HETATM   24  C   UNK N   1      28.075  17.279   7.544  0.00  0.00     0.034 C 
ENDBRANCH  22  23
ENDBRANCH  20  22
ENDBRANCH  11  20
ENDBRANCH   9  11
ENDBRANCH   7   9
BRANCH   4  25
HETATM   25  C   UNK N   1      20.815  20.707   2.724  0.00  0.00     0.235 C 
BRANCH  25  26
HETATM   26  C   UNK N   1      20.762  21.034   1.256  0.00  0.00     0.158 C 
HETATM   27  O   UNK N   1      20.991  20.155   0.442  0.00  0.00    -0.649 OA
BRANCH  26  28
HETATM   28  O   UNK N   1      20.487  22.281   0.828  0.00  0.00    -0.775 OA
HETATM   29  H   UNK N   1      20.304  22.664  -0.007  0.00  0.00     0.167 HD
ENDBRANCH  26  28
ENDBRANCH  25  26
ENDBRANCH   4  25
BRANCH   1  30
HETATM   30  C   UNK N   1      20.639  15.823   2.500  0.00  0.00    -0.002 A 
HETATM   31  C   UNK N   1      20.476  15.594   1.134  0.00  0.00     0.016 A 
HETATM   32  C   UNK N   1      19.658  14.462   0.854  0.00  0.00     0.008 A 
HETATM   33  C   UNK N   1      19.175  13.807   1.997  0.00  0.00     0.050 A 
HETATM   34  S   UNK N   1      19.777  14.649   3.292  0.00  0.00    -0.105 SA
ENDBRANCH   1  30
TORSDOF 12
ENDMDL
MODEL 8
REMARK VINA RESULT:      -6.4      8.468     13.127
REMARK  12 active torsions:
REMARK  status: ('A' for Active; 'I' for Inactive)
REMARK    1  A    between atoms: C_1  and  C_2 
REMARK    2  A    between atoms: N_7  and  C_12 
REMARK    3  A    between atoms: C_12  and  C_15 
REMARK    4  A    between atoms: C_13  and  N_16 
REMARK    5  A    between atoms: C_15  and  O_17 
REMARK    6  A    between atoms: N_16  and  C_19 
REMARK    7  A    between atoms: C_19  and  C_20 
REMARK    8  A    between atoms: C_19  and  C_21 
REMARK    9  A    between atoms: C_20  and  C_22 
REMARK   10  A    between atoms: C_21  and  O_23 
REMARK   11  A    between atoms: C_22  and  C_25 
REMARK   12  A    between atoms: O_23  and  C_26 
ROOT
HETATM    1  C   UNK N   1      34.325  12.388   9.491  0.00  0.00     0.105 C 
HETATM    2  C   UNK N   1      35.403  12.392  10.567  0.00  0.00     0.146 C 
HETATM    3  S   UNK N   1      35.019  13.078   7.958  0.00  0.00    -0.155 SA
HETATM    4  N   UNK N   1      35.533  13.607  11.374  0.00  0.00    -0.339 N 
HETATM    5  C   UNK N   1      35.211  14.782   8.568  0.00  0.00     0.109 C 
HETATM    6  C   UNK N   1      35.027  14.846  11.033  0.00  0.00     0.243 C 
HETATM    7  C   UNK N   1      34.291  15.113   9.732  0.00  0.00     0.179 C 
HETATM    8  O   UNK N   1      35.208  15.791  11.795  0.00  0.00    -0.271 OA
ENDROOT
BRANCH   7   9
HETATM    9  N   UNK N   1      33.943  16.523   9.605  0.00  0.00    -0.396 N 
HETATM   10  H   UNK N   1      34.139  17.216  10.328  0.00  0.00     0.155 HD
BRANCH   9  11
HETATM   11  C   UNK N   1      33.283  16.847   8.334  0.00  0.00     0.178 C 
BRANCH  11  12
HETATM   12  C   UNK N   1      31.859  17.286   8.671  0.00  0.00     0.039 C 
BRANCH  12  13
HETATM   13  C   UNK N   1      30.851  16.585   7.761  0.00  0.00     0.041 C 
BRANCH  13  14
HETATM   14  C   UNK N   1      29.822  17.516   7.236  0.00  0.00    -0.058 A 
HETATM   15  C   UNK N   1      29.494  17.514   5.876  0.00  0.00     0.007 A 
HETATM   16  C   UNK N   1      28.490  18.362   5.399  0.00  0.00     0.001 A 
HETATM   17  C   UNK N   1      27.812  19.207   6.282  0.00  0.00     0.000 A 
HETATM   18  C   UNK N   1      28.137  19.206   7.642  0.00  0.00     0.001 A 
HETATM   19  C   UNK N   1      29.138  18.356   8.120  0.00  0.00     0.007 A 
ENDBRANCH  13  14
ENDBRANCH  12  13
ENDBRANCH  11  12
BRANCH  11  20
HETATM   20  C   UNK N   1      34.118  17.782   7.433  0.00  0.00     0.281 C 
HETATM   21  O   UNK N   1      34.650  18.744   7.959  0.00  0.00    -0.263 OA
BRANCH  20  22
HETATM   22  O   UNK N   1      34.352  17.596   6.101  0.00  0.00    -0.320 OA
BRANCH  22  23
HETATM   23  C   UNK N   1      33.655  16.793   5.231  0.00  0.00     0.174 C 
HETATM   24  C   UNK N   1      32.732  17.646   4.383  0.00  0.00     0.034 C 
ENDBRANCH  22  23
ENDBRANCH  20  22
ENDBRANCH  11  20
ENDBRANCH   9  11
ENDBRANCH   7   9
BRANCH   4  25
HETATM   25  C   UNK N   1      36.351  13.502  12.569  0.00  0.00     0.235 C 
BRANCH  25  26
HETATM   26  C   UNK N   1      35.660  12.828  13.723  0.00  0.00     0.158 C 
HETATM   27  O   UNK N   1      34.758  13.412  14.300  0.00  0.00    -0.649 OA
BRANCH  26  28
HETATM   28  O   UNK N   1      36.033  11.602  14.140  0.00  0.00    -0.775 OA
HETATM   29  H   UNK N   1      35.579  10.859  14.484  0.00  0.00     0.167 HD
ENDBRANCH  26  28
ENDBRANCH  25  26
ENDBRANCH   4  25
BRANCH   1  30
HETATM   30  C   UNK N   1      33.806  11.008   9.216  0.00  0.00    -0.002 A 
HETATM   31  C   UNK N   1      32.683  10.433   9.810  0.00  0.00     0.016 A 
HETATM   32  C   UNK N   1      32.426   9.111   9.346  0.00  0.00     0.008 A 
HETATM   33  C   UNK N   1      33.347   8.648   8.395  0.00  0.00     0.050 A 
HETATM   34  S   UNK N   1      34.429   9.884   8.171  0.00  0.00    -0.105 SA
ENDBRANCH   1  30
TORSDOF 12
ENDMDL
MODEL 9
REMARK VINA RESULT:      -6.4      5.656      8.125
REMARK  12 active torsions:
REMARK  status: ('A' for Active; 'I' for Inactive)
REMARK    1  A    between atoms: C_1  and  C_2 
REMARK    2  A    between atoms: N_7  and  C_12 
REMARK    3  A    between atoms: C_12  and  C_15 
REMARK    4  A    between atoms: C_13  and  N_16 
REMARK    5  A    between atoms: C_15  and  O_17 
REMARK    6  A    between atoms: N_16  and  C_19 
REMARK    7  A    between atoms: C_19  and  C_20 
REMARK    8  A    between atoms: C_19  and  C_21 
REMARK    9  A    between atoms: C_20  and  C_22 
REMARK   10  A    between atoms: C_21  and  O_23 
REMARK   11  A    between atoms: C_22  and  C_25 
REMARK   12  A    between atoms: O_23  and  C_26 
ROOT
HETATM    1  C   UNK N   1      21.739  14.383   8.014  0.00  0.00     0.105 C 
HETATM    2  C   UNK N   1      20.997  15.562   8.632  0.00  0.00     0.146 C 
HETATM    3  S   UNK N   1      22.949  15.015   6.811  0.00  0.00    -0.155 SA
HETATM    4  N   UNK N   1      19.800  16.034   7.933  0.00  0.00    -0.339 N 
HETATM    5  C   UNK N   1      21.735  15.625   5.599  0.00  0.00     0.109 C 
HETATM    6  C   UNK N   1      19.485  15.756   6.618  0.00  0.00     0.243 C 
HETATM    7  C   UNK N   1      20.382  14.939   5.705  0.00  0.00     0.179 C 
HETATM    8  O   UNK N   1      18.451  16.218   6.145  0.00  0.00    -0.271 OA
ENDROOT
BRANCH   7   9
HETATM    9  N   UNK N   1      19.837  14.876   4.353  0.00  0.00    -0.396 N 
HETATM   10  H   UNK N   1      19.825  15.672   3.716  0.00  0.00     0.155 HD
BRANCH   9  11
HETATM   11  C   UNK N   1      19.308  13.552   4.002  0.00  0.00     0.178 C 
BRANCH  11  12
HETATM   12  C   UNK N   1      19.166  13.519   2.480  0.00  0.00     0.039 C 
BRANCH  12  13
HETATM   13  C   UNK N   1      20.132  14.509   1.830  0.00  0.00     0.041 C 
BRANCH  13  14
HETATM   14  C   UNK N   1      21.321  13.838   1.250  0.00  0.00    -0.058 A 
HETATM   15  C   UNK N   1      21.243  12.511   0.815  0.00  0.00     0.007 A 
HETATM   16  C   UNK N   1      22.355  11.903   0.226  0.00  0.00     0.001 A 
HETATM   17  C   UNK N   1      23.543  12.622   0.070  0.00  0.00     0.000 A 
HETATM   18  C   UNK N   1      23.621  13.950   0.501  0.00  0.00     0.001 A 
HETATM   19  C   UNK N   1      22.507  14.560   1.086  0.00  0.00     0.007 A 
ENDBRANCH  13  14
ENDBRANCH  12  13
ENDBRANCH  11  12
BRANCH  11  20
HETATM   20  C   UNK N   1      20.077  12.390   4.667  0.00  0.00     0.281 C 
HETATM   21  O   UNK N   1      19.562  11.854   5.633  0.00  0.00    -0.263 OA
BRANCH  20  22
HETATM   22  O   UNK N   1      21.268  11.879   4.235  0.00  0.00    -0.320 OA
BRANCH  22  23
HETATM   23  C   UNK N   1      22.469  11.876   4.901  0.00  0.00     0.174 C 
HETATM   24  C   UNK N   1      23.555  12.409   3.987  0.00  0.00     0.034 C 
ENDBRANCH  22  23
ENDBRANCH  20  22
ENDBRANCH  11  20
ENDBRANCH   9  11
ENDBRANCH   7   9
BRANCH   4  25
HETATM   25  C   UNK N   1      18.946  16.951   8.667  0.00  0.00     0.235 C 
BRANCH  25  26
HETATM   26  C   UNK N   1      19.566  18.300   8.909  0.00  0.00     0.158 C 
HETATM   27  O   UNK N   1      20.383  18.731   8.113  0.00  0.00    -0.649 OA
BRANCH  26  28
HETATM   28  O   UNK N   1      19.249  19.029   9.997  0.00  0.00    -0.775 OA
HETATM   29  H   UNK N   1      19.723  19.335  10.745  0.00  0.00     0.167 HD
ENDBRANCH  26  28
ENDBRANCH  25  26
ENDBRANCH   4  25
BRANCH   1  30
HETATM   30  C   UNK N   1      22.456  13.563   9.044  0.00  0.00    -0.002 A 
HETATM   31  C   UNK N   1      21.890  13.062  10.216  0.00  0.00     0.016 A 
HETATM   32  C   UNK N   1      22.811  12.309  11.000  0.00  0.00     0.008 A 
HETATM   33  C   UNK N   1      24.097  12.225  10.448  0.00  0.00     0.050 A 
HETATM   34  S   UNK N   1      24.040  13.076   9.026  0.00  0.00    -0.105 SA
ENDBRANCH   1  30
TORSDOF 12
ENDMDL
