MODEL 1
REMARK VINA RESULT:      -3.9      0.000      0.000
REMARK  5 active torsions:
REMARK  status: ('A' for Active; 'I' for Inactive)
REMARK    1  A    between atoms: C_1  and  N_2 
REMARK    2  A    between atoms: C_1  and  C_3 
REMARK       I    between atoms: N_2  and  C_4 
REMARK    3  A    between atoms: C_3  and  C_5 
REMARK       I    between atoms: C_4  and  N_6 
REMARK    4  A    between atoms: C_5  and  C_9 
REMARK    5  A    between atoms: C_9  and  N_10 
ROOT
HETATM    1  N   UNK N   1      35.768  13.280  14.525  0.00  0.00    -0.227 N 
HETATM    2  C   UNK N   1      36.483  14.430  14.104  0.00  0.00     0.665 C 
HETATM    3  N   UNK N   1      36.381  14.873  12.770  0.00  0.00    -0.235 N 
HETATM    4  N   UNK N   1      37.226  15.074  14.932  0.00  0.00    -0.235 N 
ATOM      5  HN  UNK N   1      37.737  15.901  14.621  1.00  0.00     0.174 HD
HETATM    6  H   UNK N   1      35.202  12.794  13.881  0.00  0.00     0.177 HD
HETATM    7  H   UNK N   1      36.877  15.672  12.477  0.00  0.00     0.174 HD
HETATM    8  H   UNK N   1      35.813  14.385  12.130  0.00  0.00     0.174 HD
HETATM    9  H   UNK N   1      37.302  14.771  15.865  0.00  0.00     0.174 HD
ENDROOT
BRANCH   1  10
HETATM   10  C   UNK N   1      35.862  12.814  15.883  0.00  0.00     0.138 C 
BRANCH  10  11
HETATM   11  C   UNK N   1      34.661  13.241  16.696  0.00  0.00     0.022 C 
BRANCH  11  12
HETATM   12  C   UNK N   1      35.177  13.583  18.079  0.00  0.00     0.021 C 
BRANCH  12  13
HETATM   13  C   UNK N   1      35.284  12.352  18.947  0.00  0.00     0.111 C 
BRANCH  13  14
HETATM   14  N   UNK N   1      35.616  12.762  20.300  0.00  0.00    -0.430 N 
HETATM   15  H   UNK N   1      35.096  13.518  20.746  0.00  0.00     0.149 HD
HETATM   16  H   UNK N   1      36.369  12.294  20.803  0.00  0.00     0.149 HD
ENDBRANCH  13  14
ENDBRANCH  12  13
ENDBRANCH  11  12
ENDBRANCH  10  11
ENDBRANCH   1  10
TORSDOF 5
ENDMDL
MODEL 2
REMARK VINA RESULT:      -3.8      8.037      9.835
REMARK  5 active torsions:
REMARK  status: ('A' for Active; 'I' for Inactive)
REMARK    1  A    between atoms: C_1  and  N_2 
REMARK    2  A    between atoms: C_1  and  C_3 
REMARK       I    between atoms: N_2  and  C_4 
REMARK    3  A    between atoms: C_3  and  C_5 
REMARK       I    between atoms: C_4  and  N_6 
REMARK    4  A    between atoms: C_5  and  C_9 
REMARK    5  A    between atoms: C_9  and  N_10 
ROOT
HETATM    1  N   UNK N   1      32.952  16.868   9.004  0.00  0.00    -0.227 N 
HETATM    2  C   UNK N   1      34.217  17.447   9.284  0.00  0.00     0.665 C 
HETATM    3  N   UNK N   1      34.942  17.038  10.421  0.00  0.00    -0.235 N 
HETATM    4  N   UNK N   1      34.708  18.344   8.506  0.00  0.00    -0.235 N 
ATOM      5  HN  UNK N   1      35.619  18.756   8.714  1.00  0.00     0.174 HD
HETATM    6  H   UNK N   1      32.586  16.181   9.608  0.00  0.00     0.177 HD
HETATM    7  H   UNK N   1      35.820  17.439  10.616  0.00  0.00     0.174 HD
HETATM    8  H   UNK N   1      34.572  16.350  11.021  0.00  0.00     0.174 HD
HETATM    9  H   UNK N   1      34.208  18.635   7.710  0.00  0.00     0.174 HD
ENDROOT
BRANCH   1  10
HETATM   10  C   UNK N   1      32.199  17.275   7.849  0.00  0.00     0.138 C 
BRANCH  10  11
HETATM   11  C   UNK N   1      30.712  17.131   8.081  0.00  0.00     0.022 C 
BRANCH  11  12
HETATM   12  C   UNK N   1      30.269  18.377   8.821  0.00  0.00     0.021 C 
BRANCH  12  13
HETATM   13  C   UNK N   1      29.094  18.091   9.726  0.00  0.00     0.111 C 
BRANCH  13  14
HETATM   14  N   UNK N   1      27.878  18.535   9.069  0.00  0.00    -0.430 N 
HETATM   15  H   UNK N   1      27.393  19.368   9.402  0.00  0.00     0.149 HD
HETATM   16  H   UNK N   1      27.510  18.014   8.273  0.00  0.00     0.149 HD
ENDBRANCH  13  14
ENDBRANCH  12  13
ENDBRANCH  11  12
ENDBRANCH  10  11
ENDBRANCH   1  10
TORSDOF 5
ENDMDL
MODEL 3
REMARK VINA RESULT:      -3.7     21.346     22.002
REMARK  5 active torsions:
REMARK  status: ('A' for Active; 'I' for Inactive)
REMARK    1  A    between atoms: C_1  and  N_2 
REMARK    2  A    between atoms: C_1  and  C_3 
REMARK       I    between atoms: N_2  and  C_4 
REMARK    3  A    between atoms: C_3  and  C_5 
REMARK       I    between atoms: C_4  and  N_6 
REMARK    4  A    between atoms: C_5  and  C_9 
REMARK    5  A    between atoms: C_9  and  N_10 
ROOT
HETATM    1  N   UNK N   1      20.124  19.197   1.653  0.00  0.00    -0.227 N 
HETATM    2  C   UNK N   1      20.575  20.537   1.528  0.00  0.00     0.665 C 
HETATM    3  N   UNK N   1      20.440  21.213   0.298  0.00  0.00    -0.235 N 
HETATM    4  N   UNK N   1      21.106  21.142   2.530  0.00  0.00    -0.235 N 
ATOM      5  HN  UNK N   1      21.427  22.105   2.432  1.00  0.00     0.174 HD
HETATM    6  H   UNK N   1      19.719  18.744   0.878  0.00  0.00     0.177 HD
HETATM    7  H   UNK N   1      20.752  22.142   0.211  0.00  0.00     0.174 HD
HETATM    8  H   UNK N   1      20.033  20.755  -0.473  0.00  0.00     0.174 HD
HETATM    9  H   UNK N   1      21.203  20.676   3.392  0.00  0.00     0.174 HD
ENDROOT
BRANCH   1  10
HETATM   10  C   UNK N   1      20.256  18.494   2.901  0.00  0.00     0.138 C 
BRANCH  10  11
HETATM   11  C   UNK N   1      20.108  17.001   2.710  0.00  0.00     0.022 C 
BRANCH  11  12
HETATM   12  C   UNK N   1      20.223  16.744   1.222  0.00  0.00     0.021 C 
BRANCH  12  13
HETATM   13  C   UNK N   1      19.937  15.298   0.889  0.00  0.00     0.111 C 
BRANCH  13  14
HETATM   14  N   UNK N   1      19.197  14.704   1.987  0.00  0.00    -0.430 N 
HETATM   15  H   UNK N   1      18.262  15.043   2.214  0.00  0.00     0.149 HD
HETATM   16  H   UNK N   1      19.612  13.947   2.531  0.00  0.00     0.149 HD
ENDBRANCH  13  14
ENDBRANCH  12  13
ENDBRANCH  11  12
ENDBRANCH  10  11
ENDBRANCH   1  10
TORSDOF 5
ENDMDL
MODEL 4
REMARK VINA RESULT:      -3.7     11.461     13.510
REMARK  5 active torsions:
REMARK  status: ('A' for Active; 'I' for Inactive)
REMARK    1  A    between atoms: C_1  and  N_2 
REMARK    2  A    between atoms: C_1  and  C_3 
REMARK       I    between atoms: N_2  and  C_4 
REMARK    3  A    between atoms: C_3  and  C_5 
REMARK       I    between atoms: C_4  and  N_6 
REMARK    4  A    between atoms: C_5  and  C_9 
REMARK    5  A    between atoms: C_9  and  N_10 
ROOT
HETATM    1  N   UNK N   1      29.359  18.048   7.620  0.00  0.00    -0.227 N 
HETATM    2  C   UNK N   1      28.909  18.358   8.929  0.00  0.00     0.665 C 
HETATM    3  N   UNK N   1      29.841  18.676   9.938  0.00  0.00    -0.235 N 
HETATM    4  N   UNK N   1      27.653  18.353   9.204  0.00  0.00    -0.235 N 
ATOM      5  HN  UNK N   1      27.337  18.577  10.148  1.00  0.00     0.174 HD
HETATM    6  H   UNK N   1      30.324  18.055   7.422  0.00  0.00     0.177 HD
HETATM    7  H   UNK N   1      29.529  18.891  10.846  0.00  0.00     0.174 HD
HETATM    8  H   UNK N   1      30.804  18.683   9.734  0.00  0.00     0.174 HD
HETATM    9  H   UNK N   1      26.997  18.133   8.505  0.00  0.00     0.174 HD
ENDROOT
BRANCH   1  10
HETATM   10  C   UNK N   1      28.421  17.721   6.580  0.00  0.00     0.138 C 
BRANCH  10  11
HETATM   11  C   UNK N   1      28.396  18.786   5.506  0.00  0.00     0.022 C 
BRANCH  11  12
HETATM   12  C   UNK N   1      27.087  19.530   5.667  0.00  0.00     0.021 C 
BRANCH  12  13
HETATM   13  C   UNK N   1      27.277  20.821   6.428  0.00  0.00     0.111 C 
BRANCH  13  14
HETATM   14  N   UNK N   1      26.197  20.961   7.388  0.00  0.00    -0.430 N 
HETATM   15  H   UNK N   1      26.239  20.466   8.279  0.00  0.00     0.149 HD
HETATM   16  H   UNK N   1      25.396  21.554   7.170  0.00  0.00     0.149 HD
ENDBRANCH  13  14
ENDBRANCH  12  13
ENDBRANCH  11  12
ENDBRANCH  10  11
ENDBRANCH   1  10
TORSDOF 5
ENDMDL
MODEL 5
REMARK VINA RESULT:      -3.6     13.677     14.893
REMARK  5 active torsions:
REMARK  status: ('A' for Active; 'I' for Inactive)
REMARK    1  A    between atoms: C_1  and  N_2 
REMARK    2  A    between atoms: C_1  and  C_3 
REMARK       I    between atoms: N_2  and  C_4 
REMARK    3  A    between atoms: C_3  and  C_5 
REMARK       I    between atoms: C_4  and  N_6 
REMARK    4  A    between atoms: C_5  and  C_9 
REMARK    5  A    between atoms: C_9  and  N_10 
ROOT
HETATM    1  N   UNK N   1      24.144  12.283  11.551  0.00  0.00    -0.227 N 
HETATM    2  C   UNK N   1      23.254  12.064  12.634  0.00  0.00     0.665 C 
HETATM    3  N   UNK N   1      23.643  12.403  13.946  0.00  0.00    -0.235 N 
HETATM    4  N   UNK N   1      22.091  11.557  12.428  0.00  0.00    -0.235 N 
ATOM      5  HN  UNK N   1      21.456  11.403  13.213  1.00  0.00     0.174 HD
HETATM    6  H   UNK N   1      25.033  12.672  11.722  0.00  0.00     0.177 HD
HETATM    7  H   UNK N   1      23.026  12.251  14.698  0.00  0.00     0.174 HD
HETATM    8  H   UNK N   1      24.533  12.792  14.110  0.00  0.00     0.174 HD
HETATM    9  H   UNK N   1      21.811  11.318  11.516  0.00  0.00     0.174 HD
ENDROOT
BRANCH   1  10
HETATM   10  C   UNK N   1      23.761  11.941  10.207  0.00  0.00     0.138 C 
BRANCH  10  11
HETATM   11  C   UNK N   1      23.435  13.176   9.397  0.00  0.00     0.022 C 
BRANCH  11  12
HETATM   12  C   UNK N   1      21.989  13.038   8.966  0.00  0.00     0.021 C 
BRANCH  12  13
HETATM   13  C   UNK N   1      21.080  13.905   9.806  0.00  0.00     0.111 C 
BRANCH  13  14
HETATM   14  N   UNK N   1      20.889  15.175   9.130  0.00  0.00    -0.430 N 
HETATM   15  H   UNK N   1      19.961  15.595   9.086  0.00  0.00     0.149 HD
HETATM   16  H   UNK N   1      21.684  15.646   8.698  0.00  0.00     0.149 HD
ENDBRANCH  13  14
ENDBRANCH  12  13
ENDBRANCH  11  12
ENDBRANCH  10  11
ENDBRANCH   1  10
TORSDOF 5
ENDMDL
MODEL 6
REMARK VINA RESULT:      -3.6     14.696     15.844
REMARK  5 active torsions:
REMARK  status: ('A' for Active; 'I' for Inactive)
REMARK    1  A    between atoms: C_1  and  N_2 
REMARK    2  A    between atoms: C_1  and  C_3 
REMARK       I    between atoms: N_2  and  C_4 
REMARK    3  A    between atoms: C_3  and  C_5 
REMARK       I    between atoms: C_4  and  N_6 
REMARK    4  A    between atoms: C_5  and  C_9 
REMARK    5  A    between atoms: C_9  and  N_10 
ROOT
HETATM    1  N   UNK N   1      22.475  12.814  10.432  0.00  0.00    -0.227 N 
HETATM    2  C   UNK N   1      23.320  12.228  11.409  0.00  0.00     0.665 C 
HETATM    3  N   UNK N   1      24.718  12.379  11.313  0.00  0.00    -0.235 N 
HETATM    4  N   UNK N   1      22.820  11.560  12.386  0.00  0.00    -0.235 N 
ATOM      5  HN  UNK N   1      23.435  11.142  13.086  1.00  0.00     0.174 HD
HETATM    6  H   UNK N   1      22.871  13.324   9.687  0.00  0.00     0.177 HD
HETATM    7  H   UNK N   1      25.306  11.973  11.991  0.00  0.00     0.174 HD
HETATM    8  H   UNK N   1      25.108  12.891  10.567  0.00  0.00     0.174 HD
HETATM    9  H   UNK N   1      21.845  11.451  12.461  0.00  0.00     0.174 HD
ENDROOT
BRANCH   1  10
HETATM   10  C   UNK N   1      21.047  12.668  10.516  0.00  0.00     0.138 C 
BRANCH  10  11
HETATM   11  C   UNK N   1      20.336  13.894   9.987  0.00  0.00     0.022 C 
BRANCH  11  12
HETATM   12  C   UNK N   1      21.244  14.498   8.936  0.00  0.00     0.021 C 
BRANCH  12  13
HETATM   13  C   UNK N   1      20.847  15.920   8.616  0.00  0.00     0.111 C 
BRANCH  13  14
HETATM   14  N   UNK N   1      19.424  16.073   8.858  0.00  0.00    -0.430 N 
HETATM   15  H   UNK N   1      19.063  16.945   9.246  0.00  0.00     0.149 HD
HETATM   16  H   UNK N   1      18.785  15.308   8.641  0.00  0.00     0.149 HD
ENDBRANCH  13  14
ENDBRANCH  12  13
ENDBRANCH  11  12
ENDBRANCH  10  11
ENDBRANCH   1  10
TORSDOF 5
ENDMDL
MODEL 7
REMARK VINA RESULT:      -3.6      8.683     10.792
REMARK  5 active torsions:
REMARK  status: ('A' for Active; 'I' for Inactive)
REMARK    1  A    between atoms: C_1  and  N_2 
REMARK    2  A    between atoms: C_1  and  C_3 
REMARK       I    between atoms: N_2  and  C_4 
REMARK    3  A    between atoms: C_3  and  C_5 
REMARK       I    between atoms: C_4  and  N_6 
REMARK    4  A    between atoms: C_5  and  C_9 
REMARK    5  A    between atoms: C_9  and  N_10 
ROOT
HETATM    1  N   UNK N   1      29.562  17.356   7.829  0.00  0.00    -0.227 N 
HETATM    2  C   UNK N   1      28.215  17.619   8.187  0.00  0.00     0.665 C 
HETATM    3  N   UNK N   1      27.163  17.082   7.417  0.00  0.00    -0.235 N 
HETATM    4  N   UNK N   1      27.944  18.346   9.212  0.00  0.00    -0.235 N 
ATOM      5  HN  UNK N   1      26.972  18.530   9.463  1.00  0.00     0.174 HD
HETATM    6  H   UNK N   1      29.757  16.798   7.041  0.00  0.00     0.177 HD
HETATM    7  H   UNK N   1      26.228  17.265   7.665  0.00  0.00     0.174 HD
HETATM    8  H   UNK N   1      27.364  16.524   6.630  0.00  0.00     0.174 HD
HETATM    9  H   UNK N   1      28.672  18.724   9.755  0.00  0.00     0.174 HD
ENDROOT
BRANCH   1  10
HETATM   10  C   UNK N   1      30.646  17.897   8.604  0.00  0.00     0.138 C 
BRANCH  10  11
HETATM   11  C   UNK N   1      31.924  17.120   8.381  0.00  0.00     0.022 C 
BRANCH  11  12
HETATM   12  C   UNK N   1      33.028  18.144   8.222  0.00  0.00     0.021 C 
BRANCH  12  13
HETATM   13  C   UNK N   1      34.386  17.535   8.483  0.00  0.00     0.111 C 
BRANCH  13  14
HETATM   14  N   UNK N   1      34.471  17.168   9.885  0.00  0.00    -0.430 N 
HETATM   15  H   UNK N   1      35.096  17.679  10.509  0.00  0.00     0.149 HD
HETATM   16  H   UNK N   1      33.906  16.398  10.245  0.00  0.00     0.149 HD
ENDBRANCH  13  14
ENDBRANCH  12  13
ENDBRANCH  11  12
ENDBRANCH  10  11
ENDBRANCH   1  10
TORSDOF 5
ENDMDL
MODEL 8
REMARK VINA RESULT:      -3.5      8.028      9.372
REMARK  5 active torsions:
REMARK  status: ('A' for Active; 'I' for Inactive)
REMARK    1  A    between atoms: C_1  and  N_2 
REMARK    2  A    between atoms: C_1  and  C_3 
REMARK       I    between atoms: N_2  and  C_4 
REMARK    3  A    between atoms: C_3  and  C_5 
REMARK       I    between atoms: C_4  and  N_6 
REMARK    4  A    between atoms: C_5  and  C_9 
REMARK    5  A    between atoms: C_9  and  N_10 
ROOT
HETATM    1  N   UNK N   1      32.235  14.985   7.783  0.00  0.00    -0.227 N 
HETATM    2  C   UNK N   1      32.393  14.475   9.097  0.00  0.00     0.665 C 
HETATM    3  N   UNK N   1      33.040  13.238   9.299  0.00  0.00    -0.235 N 
HETATM    4  N   UNK N   1      31.950  15.131  10.109  0.00  0.00    -0.235 N 
ATOM      5  HN  UNK N   1      32.067  14.757  11.051  1.00  0.00     0.174 HD
HETATM    6  H   UNK N   1      32.579  14.472   7.015  0.00  0.00     0.177 HD
HETATM    7  H   UNK N   1      33.150  12.883  10.210  0.00  0.00     0.174 HD
HETATM    8  H   UNK N   1      33.383  12.730   8.528  0.00  0.00     0.174 HD
HETATM    9  H   UNK N   1      31.497  15.995   9.976  0.00  0.00     0.174 HD
ENDROOT
BRANCH   1  10
HETATM   10  C   UNK N   1      31.576  16.244   7.560  0.00  0.00     0.138 C 
BRANCH  10  11
HETATM   11  C   UNK N   1      32.529  17.272   6.992  0.00  0.00     0.022 C 
BRANCH  11  12
HETATM   12  C   UNK N   1      33.015  18.102   8.161  0.00  0.00     0.021 C 
BRANCH  12  13
HETATM   13  C   UNK N   1      34.476  17.846   8.450  0.00  0.00     0.111 C 
BRANCH  13  14
HETATM   14  N   UNK N   1      34.599  17.302   9.790  0.00  0.00    -0.430 N 
HETATM   15  H   UNK N   1      35.522  17.142  10.192  0.00  0.00     0.149 HD
HETATM   16  H   UNK N   1      33.761  17.080  10.328  0.00  0.00     0.149 HD
ENDBRANCH  13  14
ENDBRANCH  12  13
ENDBRANCH  11  12
ENDBRANCH  10  11
ENDBRANCH   1  10
TORSDOF 5
ENDMDL
MODEL 9
REMARK VINA RESULT:      -3.5     17.026     18.079
REMARK  5 active torsions:
REMARK  status: ('A' for Active; 'I' for Inactive)
REMARK    1  A    between atoms: C_1  and  N_2 
REMARK    2  A    between atoms: C_1  and  C_3 
REMARK       I    between atoms: N_2  and  C_4 
REMARK    3  A    between atoms: C_3  and  C_5 
REMARK       I    between atoms: C_4  and  N_6 
REMARK    4  A    between atoms: C_5  and  C_9 
REMARK    5  A    between atoms: C_9  and  N_10 
ROOT
HETATM    1  N   UNK N   1      47.952  27.792  18.517  0.00  0.00    -0.227 N 
HETATM    2  C   UNK N   1      47.205  28.818  17.882  0.00  0.00     0.665 C 
HETATM    3  N   UNK N   1      47.179  28.901  16.475  0.00  0.00    -0.235 N 
HETATM    4  N   UNK N   1      46.550  29.675  18.580  0.00  0.00    -0.235 N 
ATOM      5  HN  UNK N   1      46.015  30.410  18.116  1.00  0.00     0.174 HD
HETATM    6  H   UNK N   1      48.450  27.142  17.971  0.00  0.00     0.177 HD
HETATM    7  H   UNK N   1      46.661  29.613  16.033  0.00  0.00     0.174 HD
HETATM    8  H   UNK N   1      47.678  28.247  15.933  0.00  0.00     0.174 HD
HETATM    9  H   UNK N   1      46.563  29.623  19.563  0.00  0.00     0.174 HD
ENDROOT
BRANCH   1  10
HETATM   10  C   UNK N   1      47.989  27.695  19.952  0.00  0.00     0.138 C 
BRANCH  10  11
HETATM   11  C   UNK N   1      47.099  26.579  20.451  0.00  0.00     0.022 C 
BRANCH  11  12
HETATM   12  C   UNK N   1      47.912  25.304  20.355  0.00  0.00     0.021 C 
BRANCH  12  13
HETATM   13  C   UNK N   1      47.324  24.351  19.342  0.00  0.00     0.111 C 
BRANCH  13  14
HETATM   14  N   UNK N   1      48.102  23.126  19.346  0.00  0.00    -0.430 N 
HETATM   15  H   UNK N   1      48.866  23.004  18.681  0.00  0.00     0.149 HD
HETATM   16  H   UNK N   1      47.885  22.387  20.016  0.00  0.00     0.149 HD
ENDBRANCH  13  14
ENDBRANCH  12  13
ENDBRANCH  11  12
ENDBRANCH  10  11
ENDBRANCH   1  10
TORSDOF 5
ENDMDL
