MODEL 1
REMARK VINA RESULT:      -5.1      0.000      0.000
REMARK  6 active torsions:
REMARK  status: ('A' for Active; 'I' for Inactive)
REMARK    1  A    between atoms: C_8  and  C_5 
REMARK    2  A    between atoms: C_10  and  C_5 
REMARK    3  A    between atoms: C_8  and  C_6 
REMARK    4  A    between atoms: N_12  and  C_6 
REMARK    5  A    between atoms: C_8  and  C_7 
REMARK    6  A    between atoms: O_14  and  C_10 
ROOT
HETATM    1  C   UNK N   1      20.690  18.232   2.542  0.00  0.00     0.045 C 
ENDROOT
BRANCH   1   2
HETATM    2  C   UNK N   1      20.080  19.633   2.433  0.00  0.00     0.120 C 
BRANCH   2   3
HETATM    3  C   UNK N   1      21.036  20.632   1.856  0.00  0.00     0.140 C 
HETATM    4  O   UNK N   1      21.299  20.602   0.665  0.00  0.00    -0.650 OA
BRANCH   3   5
HETATM    5  O   UNK N   1      21.604  21.564   2.646  0.00  0.00    -0.776 OA
HETATM    6  H   UNK N   1      21.291  22.436   2.783  0.00  0.00     0.167 HD
ENDBRANCH   3   5
ENDBRANCH   2   3
ENDBRANCH   1   2
BRANCH   1   7
HETATM    7  C   UNK N   1      19.886  17.311   1.619  0.00  0.00     0.120 C 
BRANCH   7   8
HETATM    8  N   UNK N   1      20.075  17.666   0.222  0.00  0.00    -0.429 N 
HETATM    9  H   UNK N   1      20.826  18.145  -0.276  0.00  0.00     0.149 HD
HETATM   10  H   UNK N   1      19.303  17.380  -0.380  0.00  0.00     0.149 HD
ENDBRANCH   7   8
ENDBRANCH   1   7
BRANCH   1  11
HETATM   11  C   UNK N   1      20.699  17.801   3.997  0.00  0.00    -0.052 A 
HETATM   12  C   UNK N   1      19.949  16.680   4.385  0.00  0.00     0.009 A 
HETATM   13  C   UNK N   1      19.933  16.263   5.719  0.00  0.00     0.024 A 
HETATM   14  C   UNK N   1      20.656  16.972   6.681  0.00  0.00     0.034 A 
HETATM   15  C   UNK N   1      21.401  18.093   6.309  0.00  0.00     0.024 A 
HETATM   16 Cl   UNK N   1      20.629  16.453   8.352  0.00  0.00    -0.084 Cl
HETATM   17  C   UNK N   1      21.427  18.504   4.974  0.00  0.00     0.009 A 
ENDBRANCH   1  11
TORSDOF 6
ENDMDL
MODEL 2
REMARK VINA RESULT:      -5.1     11.380     12.565
REMARK  6 active torsions:
REMARK  status: ('A' for Active; 'I' for Inactive)
REMARK    1  A    between atoms: C_8  and  C_5 
REMARK    2  A    between atoms: C_10  and  C_5 
REMARK    3  A    between atoms: C_8  and  C_6 
REMARK    4  A    between atoms: N_12  and  C_6 
REMARK    5  A    between atoms: C_8  and  C_7 
REMARK    6  A    between atoms: O_14  and  C_10 
ROOT
HETATM    1  C   UNK N   1      32.252  16.993   8.688  0.00  0.00     0.045 C 
ENDROOT
BRANCH   1   2
HETATM    2  C   UNK N   1      33.460  17.396   7.835  0.00  0.00     0.120 C 
BRANCH   2   3
HETATM    3  C   UNK N   1      34.562  17.999   8.650  0.00  0.00     0.140 C 
HETATM    4  O   UNK N   1      35.055  19.063   8.312  0.00  0.00    -0.650 OA
BRANCH   3   5
HETATM    5  O   UNK N   1      35.010  17.373   9.756  0.00  0.00    -0.776 OA
HETATM    6  H   UNK N   1      34.519  16.782  10.292  0.00  0.00     0.167 HD
ENDBRANCH   3   5
ENDBRANCH   2   3
ENDBRANCH   1   2
BRANCH   1   7
HETATM    7  C   UNK N   1      32.330  15.477   8.902  0.00  0.00     0.120 C 
BRANCH   7   8
HETATM    8  N   UNK N   1      32.741  15.155  10.258  0.00  0.00    -0.429 N 
HETATM    9  H   UNK N   1      33.362  15.617  10.923  0.00  0.00     0.149 HD
HETATM   10  H   UNK N   1      32.326  14.295  10.616  0.00  0.00     0.149 HD
ENDBRANCH   7   8
ENDBRANCH   1   7
BRANCH   1  11
HETATM   11  C   UNK N   1      30.980  17.461   8.007  0.00  0.00    -0.052 A 
HETATM   12  C   UNK N   1      30.057  18.231   8.733  0.00  0.00     0.009 A 
HETATM   13  C   UNK N   1      28.873  18.671   8.134  0.00  0.00     0.024 A 
HETATM   14  C   UNK N   1      28.594  18.334   6.808  0.00  0.00     0.034 A 
HETATM   15  C   UNK N   1      29.501  17.563   6.077  0.00  0.00     0.024 A 
HETATM   16 Cl   UNK N   1      27.108  18.880   6.062  0.00  0.00    -0.084 Cl
HETATM   17  C   UNK N   1      30.689  17.132   6.671  0.00  0.00     0.009 A 
ENDBRANCH   1  11
TORSDOF 6
ENDMDL
MODEL 3
REMARK VINA RESULT:      -5.0     19.020     20.420
REMARK  6 active torsions:
REMARK  status: ('A' for Active; 'I' for Inactive)
REMARK    1  A    between atoms: C_8  and  C_5 
REMARK    2  A    between atoms: C_10  and  C_5 
REMARK    3  A    between atoms: C_8  and  C_6 
REMARK    4  A    between atoms: N_12  and  C_6 
REMARK    5  A    between atoms: C_8  and  C_7 
REMARK    6  A    between atoms: O_14  and  C_10 
ROOT
HETATM    1  C   UNK N   1      35.658  13.219  15.456  0.00  0.00     0.045 C 
ENDROOT
BRANCH   1   2
HETATM    2  C   UNK N   1      35.865  12.140  14.388  0.00  0.00     0.120 C 
BRANCH   2   3
HETATM    3  C   UNK N   1      34.745  12.095  13.393  0.00  0.00     0.140 C 
HETATM    4  O   UNK N   1      34.118  11.062  13.232  0.00  0.00    -0.650 OA
BRANCH   3   5
HETATM    5  O   UNK N   1      34.429  13.192  12.678  0.00  0.00    -0.776 OA
HETATM    6  H   UNK N   1      34.189  13.210  11.772  0.00  0.00     0.167 HD
ENDBRANCH   3   5
ENDBRANCH   2   3
ENDBRANCH   1   2
BRANCH   1   7
HETATM    7  C   UNK N   1      36.815  14.216  15.326  0.00  0.00     0.120 C 
BRANCH   7   8
HETATM    8  N   UNK N   1      36.793  14.888  14.038  0.00  0.00    -0.429 N 
HETATM    9  H   UNK N   1      37.224  14.676  13.137  0.00  0.00     0.149 HD
HETATM   10  H   UNK N   1      36.237  15.743  14.034  0.00  0.00     0.149 HD
ENDBRANCH   7   8
ENDBRANCH   1   7
BRANCH   1  11
HETATM   11  C   UNK N   1      35.552  12.562  16.819  0.00  0.00    -0.052 A 
HETATM   12  C   UNK N   1      35.755  11.177  16.929  0.00  0.00     0.009 A 
HETATM   13  C   UNK N   1      35.657  10.542  18.171  0.00  0.00     0.024 A 
HETATM   14  C   UNK N   1      35.342  11.284  19.312  0.00  0.00     0.034 A 
HETATM   15  C   UNK N   1      35.131  12.661  19.213  0.00  0.00     0.024 A 
HETATM   16 Cl   UNK N   1      35.213  10.486  20.864  0.00  0.00    -0.084 Cl
HETATM   17  C   UNK N   1      35.239  13.298  17.975  0.00  0.00     0.009 A 
ENDBRANCH   1  11
TORSDOF 6
ENDMDL
MODEL 4
REMARK VINA RESULT:      -5.0     16.981     18.243
REMARK  6 active torsions:
REMARK  status: ('A' for Active; 'I' for Inactive)
REMARK    1  A    between atoms: C_8  and  C_5 
REMARK    2  A    between atoms: C_10  and  C_5 
REMARK    3  A    between atoms: C_8  and  C_6 
REMARK    4  A    between atoms: N_12  and  C_6 
REMARK    5  A    between atoms: C_8  and  C_7 
REMARK    6  A    between atoms: O_14  and  C_10 
ROOT
HETATM    1  C   UNK N   1      35.898  13.756  12.049  0.00  0.00     0.045 C 
ENDROOT
BRANCH   1   2
HETATM    2  C   UNK N   1      35.001  14.923  11.621  0.00  0.00     0.120 C 
BRANCH   2   3
HETATM    3  C   UNK N   1      35.786  16.085  11.092  0.00  0.00     0.140 C 
HETATM    4  O   UNK N   1      35.221  17.139  10.851  0.00  0.00    -0.650 OA
BRANCH   3   5
HETATM    5  O   UNK N   1      37.112  15.971  10.883  0.00  0.00    -0.776 OA
HETATM    6  H   UNK N   1      37.682  15.348  11.288  0.00  0.00     0.167 HD
ENDBRANCH   3   5
ENDBRANCH   2   3
ENDBRANCH   1   2
BRANCH   1   7
HETATM    7  C   UNK N   1      35.551  12.562  11.153  0.00  0.00     0.120 C 
BRANCH   7   8
HETATM    8  N   UNK N   1      34.286  12.766  10.466  0.00  0.00    -0.429 N 
HETATM    9  H   UNK N   1      34.051  13.088   9.527  0.00  0.00     0.149 HD
HETATM   10  H   UNK N   1      33.471  12.545  11.037  0.00  0.00     0.149 HD
ENDBRANCH   7   8
ENDBRANCH   1   7
BRANCH   1  11
HETATM   11  C   UNK N   1      35.710  13.498  13.532  0.00  0.00    -0.052 A 
HETATM   12  C   UNK N   1      36.525  14.175  14.454  0.00  0.00     0.009 A 
HETATM   13  C   UNK N   1      36.379  13.953  15.826  0.00  0.00     0.024 A 
HETATM   14  C   UNK N   1      35.427  13.042  16.290  0.00  0.00     0.034 A 
HETATM   15  C   UNK N   1      34.615  12.358  15.381  0.00  0.00     0.024 A 
HETATM   16 Cl   UNK N   1      35.250  12.760  18.007  0.00  0.00    -0.084 Cl
HETATM   17  C   UNK N   1      34.753  12.587  14.010  0.00  0.00     0.009 A 
ENDBRANCH   1  11
TORSDOF 6
ENDMDL
MODEL 5
REMARK VINA RESULT:      -4.9      3.731      4.595
REMARK  6 active torsions:
REMARK  status: ('A' for Active; 'I' for Inactive)
REMARK    1  A    between atoms: C_8  and  C_5 
REMARK    2  A    between atoms: C_10  and  C_5 
REMARK    3  A    between atoms: C_8  and  C_6 
REMARK    4  A    between atoms: N_12  and  C_6 
REMARK    5  A    between atoms: C_8  and  C_7 
REMARK    6  A    between atoms: O_14  and  C_10 
ROOT
HETATM    1  C   UNK N   1      21.380  19.769   3.102  0.00  0.00     0.045 C 
ENDROOT
BRANCH   1   2
HETATM    2  C   UNK N   1      20.881  18.481   2.438  0.00  0.00     0.120 C 
BRANCH   2   3
HETATM    3  C   UNK N   1      19.547  18.046   2.963  0.00  0.00     0.140 C 
HETATM    4  O   UNK N   1      19.486  17.198   3.838  0.00  0.00    -0.650 OA
BRANCH   3   5
HETATM    5  O   UNK N   1      18.415  18.588   2.474  0.00  0.00    -0.776 OA
HETATM    6  H   UNK N   1      18.026  18.396   1.643  0.00  0.00     0.167 HD
ENDBRANCH   3   5
ENDBRANCH   2   3
ENDBRANCH   1   2
BRANCH   1   7
HETATM    7  C   UNK N   1      20.939  20.939   2.215  0.00  0.00     0.120 C 
BRANCH   7   8
HETATM    8  N   UNK N   1      20.563  20.483   0.887  0.00  0.00    -0.429 N 
HETATM    9  H   UNK N   1      20.017  20.909   0.137  0.00  0.00     0.149 HD
HETATM   10  H   UNK N   1      20.913  19.553   0.661  0.00  0.00     0.149 HD
ENDBRANCH   7   8
ENDBRANCH   1   7
BRANCH   1  11
HETATM   11  C   UNK N   1      22.880  19.676   3.310  0.00  0.00    -0.052 A 
HETATM   12  C   UNK N   1      23.401  18.632   4.090  0.00  0.00     0.009 A 
HETATM   13  C   UNK N   1      24.778  18.524   4.305  0.00  0.00     0.024 A 
HETATM   14  C   UNK N   1      25.647  19.468   3.752  0.00  0.00     0.034 A 
HETATM   15  C   UNK N   1      25.140  20.516   2.980  0.00  0.00     0.024 A 
HETATM   16 Cl   UNK N   1      27.370  19.336   4.028  0.00  0.00    -0.084 Cl
HETATM   17  C   UNK N   1      23.765  20.618   2.756  0.00  0.00     0.009 A 
ENDBRANCH   1  11
TORSDOF 6
ENDMDL
MODEL 6
REMARK VINA RESULT:      -4.9      7.177      9.001
REMARK  6 active torsions:
REMARK  status: ('A' for Active; 'I' for Inactive)
REMARK    1  A    between atoms: C_8  and  C_5 
REMARK    2  A    between atoms: C_10  and  C_5 
REMARK    3  A    between atoms: C_8  and  C_6 
REMARK    4  A    between atoms: N_12  and  C_6 
REMARK    5  A    between atoms: C_8  and  C_7 
REMARK    6  A    between atoms: O_14  and  C_10 
ROOT
HETATM    1  C   UNK N   1      22.193  13.104  10.290  0.00  0.00     0.045 C 
ENDROOT
BRANCH   1   2
HETATM    2  C   UNK N   1      23.362  12.229   9.827  0.00  0.00     0.120 C 
BRANCH   2   3
HETATM    3  C   UNK N   1      24.685  12.731  10.321  0.00  0.00     0.140 C 
HETATM    4  O   UNK N   1      25.343  13.489   9.628  0.00  0.00    -0.650 OA
BRANCH   3   5
HETATM    5  O   UNK N   1      25.148  12.350  11.527  0.00  0.00    -0.776 OA
HETATM    6  H   UNK N   1      25.973  11.941  11.697  0.00  0.00     0.167 HD
ENDBRANCH   3   5
ENDBRANCH   2   3
ENDBRANCH   1   2
BRANCH   1   7
HETATM    7  C   UNK N   1      21.282  12.228  11.156  0.00  0.00     0.120 C 
BRANCH   7   8
HETATM    8  N   UNK N   1      22.021  11.611  12.246  0.00  0.00    -0.429 N 
HETATM    9  H   UNK N   1      22.040  11.777  13.252  0.00  0.00     0.149 HD
HETATM   10  H   UNK N   1      22.646  10.865  11.943  0.00  0.00     0.149 HD
ENDBRANCH   7   8
ENDBRANCH   1   7
BRANCH   1  11
HETATM   11  C   UNK N   1      21.508  13.707   9.078  0.00  0.00    -0.052 A 
HETATM   12  C   UNK N   1      20.940  14.988   9.178  0.00  0.00     0.009 A 
HETATM   13  C   UNK N   1      20.297  15.566   8.080  0.00  0.00     0.024 A 
HETATM   14  C   UNK N   1      20.203  14.865   6.875  0.00  0.00     0.034 A 
HETATM   15  C   UNK N   1      20.757  13.587   6.767  0.00  0.00     0.024 A 
HETATM   16 Cl   UNK N   1      19.392  15.588   5.504  0.00  0.00    -0.084 Cl
HETATM   17  C   UNK N   1      21.410  13.013   7.860  0.00  0.00     0.009 A 
ENDBRANCH   1  11
TORSDOF 6
ENDMDL
MODEL 7
REMARK VINA RESULT:      -4.9      3.799      4.680
REMARK  6 active torsions:
REMARK  status: ('A' for Active; 'I' for Inactive)
REMARK    1  A    between atoms: C_8  and  C_5 
REMARK    2  A    between atoms: C_10  and  C_5 
REMARK    3  A    between atoms: C_8  and  C_6 
REMARK    4  A    between atoms: N_12  and  C_6 
REMARK    5  A    between atoms: C_8  and  C_7 
REMARK    6  A    between atoms: O_14  and  C_10 
ROOT
HETATM    1  C   UNK N   1      22.202  19.397   3.096  0.00  0.00     0.045 C 
ENDROOT
BRANCH   1   2
HETATM    2  C   UNK N   1      21.685  20.730   2.547  0.00  0.00     0.120 C 
BRANCH   2   3
HETATM    3  C   UNK N   1      20.961  20.572   1.244  0.00  0.00     0.140 C 
HETATM    4  O   UNK N   1      20.744  19.456   0.803  0.00  0.00    -0.650 OA
BRANCH   3   5
HETATM    5  O   UNK N   1      20.549  21.657   0.560  0.00  0.00    -0.776 OA
HETATM    6  H   UNK N   1      19.705  21.776   0.172  0.00  0.00     0.167 HD
ENDBRANCH   3   5
ENDBRANCH   2   3
ENDBRANCH   1   2
BRANCH   1   7
HETATM    7  C   UNK N   1      21.272  18.985   4.243  0.00  0.00     0.120 C 
BRANCH   7   8
HETATM    8  N   UNK N   1      20.270  18.032   3.795  0.00  0.00    -0.429 N 
HETATM    9  H   UNK N   1      19.349  18.142   3.370  0.00  0.00     0.149 HD
HETATM   10  H   UNK N   1      20.542  17.059   3.935  0.00  0.00     0.149 HD
ENDBRANCH   7   8
ENDBRANCH   1   7
BRANCH   1  11
HETATM   11  C   UNK N   1      23.656  19.551   3.498  0.00  0.00    -0.052 A 
HETATM   12  C   UNK N   1      24.472  20.447   2.790  0.00  0.00     0.009 A 
HETATM   13  C   UNK N   1      25.818  20.606   3.133  0.00  0.00     0.024 A 
HETATM   14  C   UNK N   1      26.364  19.860   4.180  0.00  0.00     0.034 A 
HETATM   15  C   UNK N   1      25.565  18.960   4.887  0.00  0.00     0.024 A 
HETATM   16 Cl   UNK N   1      28.051  20.054   4.604  0.00  0.00    -0.084 Cl
HETATM   17  C   UNK N   1      24.217  18.809   4.552  0.00  0.00     0.009 A 
ENDBRANCH   1  11
TORSDOF 6
ENDMDL
MODEL 8
REMARK VINA RESULT:      -4.8      4.780      6.174
REMARK  6 active torsions:
REMARK  status: ('A' for Active; 'I' for Inactive)
REMARK    1  A    between atoms: C_8  and  C_5 
REMARK    2  A    between atoms: C_10  and  C_5 
REMARK    3  A    between atoms: C_8  and  C_6 
REMARK    4  A    between atoms: N_12  and  C_6 
REMARK    5  A    between atoms: C_8  and  C_7 
REMARK    6  A    between atoms: O_14  and  C_10 
ROOT
HETATM    1  C   UNK N   1      20.436  16.259   7.789  0.00  0.00     0.045 C 
ENDROOT
BRANCH   1   2
HETATM    2  C   UNK N   1      19.400  16.887   8.727  0.00  0.00     0.120 C 
BRANCH   2   3
HETATM    3  C   UNK N   1      19.662  18.340   8.981  0.00  0.00     0.140 C 
HETATM    4  O   UNK N   1      20.408  18.960   8.241  0.00  0.00    -0.650 OA
BRANCH   3   5
HETATM    5  O   UNK N   1      19.078  18.964  10.022  0.00  0.00    -0.776 OA
HETATM    6  H   UNK N   1      18.191  19.263  10.058  0.00  0.00     0.167 HD
ENDBRANCH   3   5
ENDBRANCH   2   3
ENDBRANCH   1   2
BRANCH   1   7
HETATM    7  C   UNK N   1      19.733  15.970   6.459  0.00  0.00     0.120 C 
BRANCH   7   8
HETATM    8  N   UNK N   1      20.329  16.726   5.370  0.00  0.00    -0.429 N 
HETATM    9  H   UNK N   1      20.828  16.448   4.524  0.00  0.00     0.149 HD
HETATM   10  H   UNK N   1      20.230  17.736   5.472  0.00  0.00     0.149 HD
ENDBRANCH   7   8
ENDBRANCH   1   7
BRANCH   1  11
HETATM   11  C   UNK N   1      21.037  15.035   8.455  0.00  0.00    -0.052 A 
HETATM   12  C   UNK N   1      22.209  14.472   7.925  0.00  0.00     0.009 A 
HETATM   13  C   UNK N   1      22.782  13.341   8.513  0.00  0.00     0.024 A 
HETATM   14  C   UNK N   1      22.181  12.752   9.628  0.00  0.00     0.034 A 
HETATM   15  C   UNK N   1      21.010  13.298  10.159  0.00  0.00     0.024 A 
HETATM   16 Cl   UNK N   1      22.895  11.332  10.358  0.00  0.00    -0.084 Cl
HETATM   17  C   UNK N   1      20.443  14.436   9.579  0.00  0.00     0.009 A 
ENDBRANCH   1  11
TORSDOF 6
ENDMDL
MODEL 9
REMARK VINA RESULT:      -4.8      8.679     10.104
REMARK  6 active torsions:
REMARK  status: ('A' for Active; 'I' for Inactive)
REMARK    1  A    between atoms: C_8  and  C_5 
REMARK    2  A    between atoms: C_10  and  C_5 
REMARK    3  A    between atoms: C_8  and  C_6 
REMARK    4  A    between atoms: N_12  and  C_6 
REMARK    5  A    between atoms: C_8  and  C_7 
REMARK    6  A    between atoms: O_14  and  C_10 
ROOT
HETATM    1  C   UNK N   1      22.332  12.537  10.139  0.00  0.00     0.045 C 
ENDROOT
BRANCH   1   2
HETATM    2  C   UNK N   1      22.949  11.461  11.038  0.00  0.00     0.120 C 
BRANCH   2   3
HETATM    3  C   UNK N   1      23.927  12.027  12.022  0.00  0.00     0.140 C 
HETATM    4  O   UNK N   1      23.629  12.095  13.203  0.00  0.00    -0.650 OA
BRANCH   3   5
HETATM    5  O   UNK N   1      25.133  12.461  11.608  0.00  0.00    -0.776 OA
HETATM    6  H   UNK N   1      25.367  12.682  10.728  0.00  0.00     0.167 HD
ENDBRANCH   3   5
ENDBRANCH   2   3
ENDBRANCH   1   2
BRANCH   1   7
HETATM    7  C   UNK N   1      20.897  12.770  10.626  0.00  0.00     0.120 C 
BRANCH   7   8
HETATM    8  N   UNK N   1      20.590  11.944  11.781  0.00  0.00    -0.429 N 
HETATM    9  H   UNK N   1      19.713  11.606  12.179  0.00  0.00     0.149 HD
HETATM   10  H   UNK N   1      21.416  11.643  12.299  0.00  0.00     0.149 HD
ENDBRANCH   7   8
ENDBRANCH   1   7
BRANCH   1  11
HETATM   11  C   UNK N   1      22.433  12.098   8.690  0.00  0.00    -0.052 A 
HETATM   12  C   UNK N   1      21.448  12.509   7.779  0.00  0.00     0.009 A 
HETATM   13  C   UNK N   1      21.512  12.115   6.439  0.00  0.00     0.024 A 
HETATM   14  C   UNK N   1      22.554  11.295   6.001  0.00  0.00     0.034 A 
HETATM   15  C   UNK N   1      23.536  10.874   6.900  0.00  0.00     0.024 A 
HETATM   16 Cl   UNK N   1      22.629  10.797   4.325  0.00  0.00    -0.084 Cl
HETATM   17  C   UNK N   1      23.479  11.276   8.236  0.00  0.00     0.009 A 
ENDBRANCH   1  11
TORSDOF 6
ENDMDL
