MODEL 1
REMARK VINA RESULT:      -7.7      0.000      0.000
REMARK  18 active torsions:
REMARK  status: ('A' for Active; 'I' for Inactive)
REMARK    1  A    between atoms: C_12  and  O_43 
REMARK    2  A    between atoms: C_13  and  O_44 
REMARK    3  A    between atoms: C_15  and  O_70 
REMARK    4  A    between atoms: C_16  and  O_69 
REMARK    5  A    between atoms: C_19  and  O_73 
REMARK    6  A    between atoms: C_20  and  O_74 
REMARK    7  A    between atoms: C_26  and  O_75 
REMARK    8  A    between atoms: C_27  and  O_76 
REMARK    9  A    between atoms: C_39  and  O_56 
REMARK   10  A    between atoms: C_40  and  O_55 
REMARK   11  A    between atoms: C_54  and  O_43 
REMARK   12  A    between atoms: C_53  and  O_44 
REMARK   13  A    between atoms: C_45  and  N_66 
REMARK   14  A    between atoms: C_46  and  N_65 
REMARK   15  A    between atoms: C_47  and  O_56 
REMARK   16  A    between atoms: C_48  and  O_55 
REMARK   17  A    between atoms: C_77  and  C_102 
REMARK   18  A    between atoms: C_78  and  C_103 
ROOT
HETATM    1  C   UNK N   1      34.874   9.374  19.424  0.00  0.00    -0.010 C 
HETATM    2  C   UNK N   1      36.102  10.314  17.748  0.00  0.00     0.022 C 
HETATM    3  C   UNK N   1      35.347  10.618  20.082  0.00  0.00     0.039 C 
HETATM    4  C   UNK N   1      33.660   8.655  19.800  0.00  0.00     0.162 C 
HETATM    5  C   UNK N   1      35.443   9.118  18.277  0.00  0.00    -0.010 C 
HETATM    6  C   UNK N   1      36.038  11.363  18.914  0.00  0.00     0.025 C 
HETATM    7  C   UNK N   1      35.075  10.646  16.655  0.00  0.00     0.004 C 
HETATM    8  C   UNK N   1      33.385   7.288  19.207  0.00  0.00     0.085 C 
HETATM    9  C   UNK N   1      35.313  12.668  18.561  0.00  0.00    -0.024 C 
HETATM   10  C   UNK N   1      35.185  12.046  16.178  0.00  0.00     0.015 C 
HETATM   11  C   UNK N   1      35.848   9.312  22.271  0.00  0.00     0.259 C 
HETATM   12  C   UNK N   1      34.872  12.967  17.321  0.00  0.00    -0.025 C 
HETATM   13  C   UNK N   1      32.031   6.626  19.563  0.00  0.00     0.136 C 
HETATM   14  O   UNK N   1      35.004   8.269  22.030  0.00  0.00    -0.316 OA
HETATM   15  C   UNK N   1      36.398  10.133  21.118  0.00  0.00     0.121 C 
HETATM   16  C   UNK N   1      34.435  10.597  14.382  0.00  0.00     0.126 C 
HETATM   17  C   UNK N   1      35.182   9.784  15.419  0.00  0.00     0.038 C 
HETATM   18  C   UNK N   1      34.177  12.004  15.022  0.00  0.00     0.041 C 
HETATM   19  O   UNK N   1      32.897   9.184  20.594  0.00  0.00    -0.292 OA
HETATM   20  O   UNK N   1      36.183   9.588  23.412  0.00  0.00    -0.265 OA
HETATM   21  C   UNK N   1      34.370   7.476  22.970  0.00  0.00     0.131 C 
HETATM   22  C   UNK N   1      34.579   6.371  19.470  0.00  0.00     0.021 C 
HETATM   23  C   UNK N   1      31.371   7.097  20.868  0.00  0.00     0.033 C 
HETATM   24  C   UNK N   1      31.987   6.614  22.194  0.00  0.00     0.005 C 
HETATM   25  C   UNK N   1      33.513   6.397  22.261  0.00  0.00     0.032 C 
ENDROOT
BRANCH  16  26
HETATM   26  O   UNK N   1      35.124  10.540  13.134  0.00  0.00    -0.353 OA
BRANCH  26  27
HETATM   27  C   UNK N   1      35.255  11.816  12.536  0.00  0.00     0.292 C 
HETATM   28  C   UNK N   1      35.158  11.723  11.023  0.00  0.00     0.207 C 
HETATM   29  C   UNK N   1      34.721  13.127  10.618  0.00  0.00     0.185 C 
HETATM   30  C   UNK N   1      35.622  14.234  11.235  0.00  0.00     0.181 C 
HETATM   31  C   UNK N   1      36.465  13.810  12.496  0.00  0.00     0.152 C 
HETATM   32  O   UNK N   1      36.483  12.432  12.861  0.00  0.00    -0.351 OA
HETATM   33  C   UNK N   1      36.437  14.732  13.710  0.00  0.00     0.042 C 
BRANCH  28  34
HETATM   34  O   UNK N   1      34.316  10.693  10.532  0.00  0.00    -0.383 OA
HETATM   35  C   UNK N   1      35.036   9.783   9.742  0.00  0.00     0.202 C 
ENDBRANCH  28  34
BRANCH  29  36
HETATM   36  O   UNK N   1      34.478  13.254   9.262  0.00  0.00    -0.385 OA
HETATM   37  C   UNK N   1      35.756  13.314   8.692  0.00  0.00     0.202 C 
ENDBRANCH  29  36
BRANCH  30  38
HETATM   38  O   UNK N   1      34.934  15.456  11.414  0.00  0.00    -0.385 OA
HETATM   39  C   UNK N   1      35.532  16.437  10.598  0.00  0.00     0.202 C 
ENDBRANCH  30  38
ENDBRANCH  26  27
ENDBRANCH  16  26
BRANCH  13  40
HETATM   40  O   UNK N   1      32.111   5.222  19.575  0.00  0.00    -0.355 OA
BRANCH  40  41
HETATM   41  C   UNK N   1      30.964   4.626  19.011  0.00  0.00     0.260 C 
HETATM   42  O   UNK N   1      30.800   3.292  19.508  0.00  0.00    -0.354 OA
HETATM   43  C   UNK N   1      30.580   2.363  18.467  0.00  0.00     0.153 C 
HETATM   44  C   UNK N   1      31.837   2.290  17.580  0.00  0.00     0.250 C 
HETATM   45  C   UNK N   1      30.228   1.010  19.054  0.00  0.00     0.042 C 
HETATM   46  C   UNK N   1      32.261   3.702  17.116  0.00  0.00     0.043 C 
HETATM   47  C   UNK N   1      31.188   4.718  17.490  0.00  0.00     0.063 C 
BRANCH  44  48
HETATM   48  N   UNK N   1      31.675   1.347  16.465  0.00  0.00     0.087 N 
HETATM   49  C   UNK N   1      32.963   1.170  15.812  0.00  0.00     0.310 C 
HETATM   50  C   UNK N   1      30.729   1.845  15.473  0.00  0.00     0.310 C 
ENDBRANCH  44  48
ENDBRANCH  40  41
ENDBRANCH  13  40
BRANCH  21  51
HETATM   51  C   UNK N   1      33.572   8.308  23.973  0.00  0.00     0.028 C 
HETATM   52  C   UNK N   1      33.778   7.784  25.381  0.00  0.00     0.007 C 
ENDBRANCH  21  51
TORSDOF 18
ENDMDL
MODEL 2
REMARK VINA RESULT:      -7.6     10.958     15.678
REMARK  18 active torsions:
REMARK  status: ('A' for Active; 'I' for Inactive)
REMARK    1  A    between atoms: C_12  and  O_43 
REMARK    2  A    between atoms: C_13  and  O_44 
REMARK    3  A    between atoms: C_15  and  O_70 
REMARK    4  A    between atoms: C_16  and  O_69 
REMARK    5  A    between atoms: C_19  and  O_73 
REMARK    6  A    between atoms: C_20  and  O_74 
REMARK    7  A    between atoms: C_26  and  O_75 
REMARK    8  A    between atoms: C_27  and  O_76 
REMARK    9  A    between atoms: C_39  and  O_56 
REMARK   10  A    between atoms: C_40  and  O_55 
REMARK   11  A    between atoms: C_54  and  O_43 
REMARK   12  A    between atoms: C_53  and  O_44 
REMARK   13  A    between atoms: C_45  and  N_66 
REMARK   14  A    between atoms: C_46  and  N_65 
REMARK   15  A    between atoms: C_47  and  O_56 
REMARK   16  A    between atoms: C_48  and  O_55 
REMARK   17  A    between atoms: C_77  and  C_102 
REMARK   18  A    between atoms: C_78  and  C_103 
ROOT
HETATM    1  C   UNK N   1      28.898  16.867   4.894  0.00  0.00    -0.010 C 
HETATM    2  C   UNK N   1      31.004  16.461   5.669  0.00  0.00     0.022 C 
HETATM    3  C   UNK N   1      29.668  17.923   4.189  0.00  0.00     0.039 C 
HETATM    4  C   UNK N   1      27.640  16.305   4.411  0.00  0.00     0.162 C 
HETATM    5  C   UNK N   1      29.565  16.241   5.826  0.00  0.00    -0.010 C 
HETATM    6  C   UNK N   1      31.128  17.563   4.559  0.00  0.00     0.025 C 
HETATM    7  C   UNK N   1      31.362  15.076   5.110  0.00  0.00     0.004 C 
HETATM    8  C   UNK N   1      26.834  15.389   5.309  0.00  0.00     0.085 C 
HETATM    9  C   UNK N   1      31.941  17.142   3.327  0.00  0.00    -0.024 C 
HETATM   10  C   UNK N   1      32.680  15.062   4.428  0.00  0.00     0.015 C 
HETATM   11  C   UNK N   1      27.794  19.657   4.665  0.00  0.00     0.259 C 
HETATM   12  C   UNK N   1      32.612  15.974   3.239  0.00  0.00    -0.025 C 
HETATM   13  C   UNK N   1      25.566  14.742   4.699  0.00  0.00     0.136 C 
HETATM   14  O   UNK N   1      26.788  18.757   4.849  0.00  0.00    -0.316 OA
HETATM   15  C   UNK N   1      29.238  19.244   4.884  0.00  0.00     0.121 C 
HETATM   16  C   UNK N   1      32.234  12.907   5.451  0.00  0.00     0.126 C 
HETATM   17  C   UNK N   1      31.430  13.983   6.151  0.00  0.00     0.038 C 
HETATM   18  C   UNK N   1      32.808  13.559   4.147  0.00  0.00     0.041 C 
HETATM   19  O   UNK N   1      27.271  16.598   3.284  0.00  0.00    -0.292 OA
HETATM   20  O   UNK N   1      27.546  20.807   4.340  0.00  0.00    -0.265 OA
HETATM   21  C   UNK N   1      25.437  18.959   4.624  0.00  0.00     0.131 C 
HETATM   22  C   UNK N   1      26.558  16.094   6.637  0.00  0.00     0.021 C 
HETATM   23  C   UNK N   1      24.933  15.486   3.513  0.00  0.00     0.033 C 
HETATM   24  C   UNK N   1      24.160  16.783   3.813  0.00  0.00     0.005 C 
HETATM   25  C   UNK N   1      24.643  17.675   4.976  0.00  0.00     0.032 C 
ENDROOT
BRANCH  16  26
HETATM   26  O   UNK N   1      33.151  12.314   6.368  0.00  0.00    -0.353 OA
BRANCH  26  27
HETATM   27  C   UNK N   1      33.640  13.245   7.316  0.00  0.00     0.292 C 
HETATM   28  C   UNK N   1      35.100  12.983   7.636  0.00  0.00     0.207 C 
HETATM   29  C   UNK N   1      35.592  14.336   8.139  0.00  0.00     0.185 C 
HETATM   30  C   UNK N   1      34.684  14.926   9.254  0.00  0.00     0.181 C 
HETATM   31  C   UNK N   1      33.225  14.336   9.335  0.00  0.00     0.152 C 
HETATM   32  O   UNK N   1      32.909  13.207   8.523  0.00  0.00    -0.351 OA
HETATM   33  C   UNK N   1      32.067  15.323   9.435  0.00  0.00     0.042 C 
BRANCH  28  34
HETATM   34  O   UNK N   1      35.869  12.449   6.571  0.00  0.00    -0.383 OA
HETATM   35  C   UNK N   1      36.310  11.149   6.865  0.00  0.00     0.202 C 
ENDBRANCH  28  34
BRANCH  29  36
HETATM   36  O   UNK N   1      36.949  14.358   8.411  0.00  0.00    -0.385 OA
HETATM   37  C   UNK N   1      37.066  13.639   9.607  0.00  0.00     0.202 C 
ENDBRANCH  29  36
BRANCH  30  38
HETATM   38  O   UNK N   1      34.713  16.338   9.287  0.00  0.00    -0.385 OA
HETATM   39  C   UNK N   1      35.314  16.752  10.494  0.00  0.00     0.202 C 
ENDBRANCH  30  38
ENDBRANCH  26  27
ENDBRANCH  16  26
BRANCH  13  40
HETATM   40  O   UNK N   1      24.574  14.501   5.666  0.00  0.00    -0.355 OA
BRANCH  40  41
HETATM   41  C   UNK N   1      24.358  13.121   5.863  0.00  0.00     0.260 C 
HETATM   42  O   UNK N   1      22.971  12.804   5.691  0.00  0.00    -0.354 OA
HETATM   43  C   UNK N   1      22.471  12.024   6.757  0.00  0.00     0.153 C 
HETATM   44  C   UNK N   1      22.517  12.853   8.056  0.00  0.00     0.250 C 
HETATM   45  C   UNK N   1      21.063  11.561   6.437  0.00  0.00     0.042 C 
HETATM   46  C   UNK N   1      23.931  13.437   8.280  0.00  0.00     0.043 C 
HETATM   47  C   UNK N   1      24.908  12.841   7.273  0.00  0.00     0.063 C 
BRANCH  44  48
HETATM   48  N   UNK N   1      22.020  12.098   9.213  0.00  0.00     0.087 N 
HETATM   49  C   UNK N   1      21.240  12.993  10.054  0.00  0.00     0.310 C 
HETATM   50  C   UNK N   1      23.114  11.562  10.015  0.00  0.00     0.310 C 
ENDBRANCH  44  48
ENDBRANCH  40  41
ENDBRANCH  13  40
BRANCH  21  51
HETATM   51  C   UNK N   1      25.164  19.461   3.207  0.00  0.00     0.028 C 
HETATM   52  C   UNK N   1      24.105  20.547   3.224  0.00  0.00     0.007 C 
ENDBRANCH  21  51
TORSDOF 18
ENDMDL
MODEL 3
REMARK VINA RESULT:      -7.6      8.604     13.457
REMARK  18 active torsions:
REMARK  status: ('A' for Active; 'I' for Inactive)
REMARK    1  A    between atoms: C_12  and  O_43 
REMARK    2  A    between atoms: C_13  and  O_44 
REMARK    3  A    between atoms: C_15  and  O_70 
REMARK    4  A    between atoms: C_16  and  O_69 
REMARK    5  A    between atoms: C_19  and  O_73 
REMARK    6  A    between atoms: C_20  and  O_74 
REMARK    7  A    between atoms: C_26  and  O_75 
REMARK    8  A    between atoms: C_27  and  O_76 
REMARK    9  A    between atoms: C_39  and  O_56 
REMARK   10  A    between atoms: C_40  and  O_55 
REMARK   11  A    between atoms: C_54  and  O_43 
REMARK   12  A    between atoms: C_53  and  O_44 
REMARK   13  A    between atoms: C_45  and  N_66 
REMARK   14  A    between atoms: C_46  and  N_65 
REMARK   15  A    between atoms: C_47  and  O_56 
REMARK   16  A    between atoms: C_48  and  O_55 
REMARK   17  A    between atoms: C_77  and  C_102 
REMARK   18  A    between atoms: C_78  and  C_103 
ROOT
HETATM    1  C   UNK N   1      32.384  15.901   7.781  0.00  0.00    -0.010 C 
HETATM    2  C   UNK N   1      31.054  17.236   6.497  0.00  0.00     0.022 C 
HETATM    3  C   UNK N   1      32.199  17.067   8.681  0.00  0.00     0.039 C 
HETATM    4  C   UNK N   1      32.686  14.548   8.239  0.00  0.00     0.162 C 
HETATM    5  C   UNK N   1      31.958  16.085   6.561  0.00  0.00    -0.010 C 
HETATM    6  C   UNK N   1      31.158  17.913   7.908  0.00  0.00     0.025 C 
HETATM    7  C   UNK N   1      29.739  16.454   6.359  0.00  0.00     0.004 C 
HETATM    8  C   UNK N   1      33.062  13.481   7.231  0.00  0.00     0.085 C 
HETATM    9  C   UNK N   1      29.829  18.015   8.668  0.00  0.00    -0.024 C 
HETATM   10  C   UNK N   1      28.551  17.277   6.692  0.00  0.00     0.015 C 
HETATM   11  C   UNK N   1      34.710  16.998   9.344  0.00  0.00     0.259 C 
HETATM   12  C   UNK N   1      28.635  17.677   8.136  0.00  0.00    -0.025 C 
HETATM   13  C   UNK N   1      33.266  12.043   7.769  0.00  0.00     0.136 C 
HETATM   14  O   UNK N   1      34.924  15.692   9.020  0.00  0.00    -0.316 OA
HETATM   15  C   UNK N   1      33.582  17.774   8.687  0.00  0.00     0.121 C 
HETATM   16  C   UNK N   1      27.993  15.635   4.995  0.00  0.00     0.126 C 
HETATM   17  C   UNK N   1      29.483  15.909   4.973  0.00  0.00     0.038 C 
HETATM   18  C   UNK N   1      27.439  16.293   6.305  0.00  0.00     0.041 C 
HETATM   19  O   UNK N   1      32.628  14.316   9.437  0.00  0.00    -0.292 OA
HETATM   20  O   UNK N   1      35.430  17.562  10.153  0.00  0.00    -0.265 OA
HETATM   21  C   UNK N   1      35.859  14.838   9.578  0.00  0.00     0.131 C 
HETATM   22  C   UNK N   1      34.242  13.971   6.392  0.00  0.00     0.021 C 
HETATM   23  C   UNK N   1      33.630  11.925   9.257  0.00  0.00     0.033 C 
HETATM   24  C   UNK N   1      35.061  12.312   9.674  0.00  0.00     0.005 C 
HETATM   25  C   UNK N   1      35.771  13.444   8.904  0.00  0.00     0.032 C 
ENDROOT
BRANCH  16  26
HETATM   26  O   UNK N   1      27.412  16.018   3.750  0.00  0.00    -0.353 OA
BRANCH  26  27
HETATM   27  C   UNK N   1      26.157  16.652   3.917  0.00  0.00     0.292 C 
HETATM   28  C   UNK N   1      25.062  15.901   3.181  0.00  0.00     0.207 C 
HETATM   29  C   UNK N   1      23.797  16.320   3.921  0.00  0.00     0.185 C 
HETATM   30  C   UNK N   1      23.670  17.863   4.062  0.00  0.00     0.181 C 
HETATM   31  C   UNK N   1      25.006  18.681   3.890  0.00  0.00     0.152 C 
HETATM   32  O   UNK N   1      26.169  17.984   3.450  0.00  0.00    -0.351 OA
HETATM   33  C   UNK N   1      25.326  19.742   4.937  0.00  0.00     0.042 C 
BRANCH  28  34
HETATM   34  O   UNK N   1      25.243  14.497   3.095  0.00  0.00    -0.383 OA
HETATM   35  C   UNK N   1      25.264  14.069   1.758  0.00  0.00     0.202 C 
ENDBRANCH  28  34
BRANCH  29  36
HETATM   36  O   UNK N   1      22.660  15.674   3.470  0.00  0.00    -0.385 OA
HETATM   37  C   UNK N   1      22.210  14.958   4.586  0.00  0.00     0.202 C 
ENDBRANCH  29  36
BRANCH  30  38
HETATM   38  O   UNK N   1      22.930  18.245   5.204  0.00  0.00    -0.385 OA
HETATM   39  C   UNK N   1      21.656  18.687   4.792  0.00  0.00     0.202 C 
ENDBRANCH  30  38
ENDBRANCH  26  27
ENDBRANCH  16  26
BRANCH  13  40
HETATM   40  O   UNK N   1      34.203  11.318   7.012  0.00  0.00    -0.355 OA
BRANCH  40  41
HETATM   41  C   UNK N   1      33.648  10.134   6.484  0.00  0.00     0.260 C 
HETATM   42  O   UNK N   1      32.447   9.789   7.185  0.00  0.00    -0.354 OA
HETATM   43  C   UNK N   1      32.441   8.436   7.588  0.00  0.00     0.153 C 
HETATM   44  C   UNK N   1      33.565   8.207   8.616  0.00  0.00     0.250 C 
HETATM   45  C   UNK N   1      31.081   8.077   8.155  0.00  0.00     0.042 C 
HETATM   46  C   UNK N   1      34.917   8.719   8.068  0.00  0.00     0.043 C 
HETATM   47  C   UNK N   1      34.777   9.093   6.597  0.00  0.00     0.063 C 
BRANCH  44  48
HETATM   48  N   UNK N   1      33.625   6.813   9.072  0.00  0.00     0.087 N 
HETATM   49  C   UNK N   1      33.645   6.798  10.527  0.00  0.00     0.310 C 
HETATM   50  C   UNK N   1      34.830   6.142   8.596  0.00  0.00     0.310 C 
ENDBRANCH  44  48
ENDBRANCH  40  41
ENDBRANCH  13  40
BRANCH  21  51
HETATM   51  C   UNK N   1      35.737  14.774  11.099  0.00  0.00     0.028 C 
HETATM   52  C   UNK N   1      36.867  13.951  11.688  0.00  0.00     0.007 C 
ENDBRANCH  21  51
TORSDOF 18
ENDMDL
MODEL 4
REMARK VINA RESULT:      -7.5     12.815     18.342
REMARK  18 active torsions:
REMARK  status: ('A' for Active; 'I' for Inactive)
REMARK    1  A    between atoms: C_12  and  O_43 
REMARK    2  A    between atoms: C_13  and  O_44 
REMARK    3  A    between atoms: C_15  and  O_70 
REMARK    4  A    between atoms: C_16  and  O_69 
REMARK    5  A    between atoms: C_19  and  O_73 
REMARK    6  A    between atoms: C_20  and  O_74 
REMARK    7  A    between atoms: C_26  and  O_75 
REMARK    8  A    between atoms: C_27  and  O_76 
REMARK    9  A    between atoms: C_39  and  O_56 
REMARK   10  A    between atoms: C_40  and  O_55 
REMARK   11  A    between atoms: C_54  and  O_43 
REMARK   12  A    between atoms: C_53  and  O_44 
REMARK   13  A    between atoms: C_45  and  N_66 
REMARK   14  A    between atoms: C_46  and  N_65 
REMARK   15  A    between atoms: C_47  and  O_56 
REMARK   16  A    between atoms: C_48  and  O_55 
REMARK   17  A    between atoms: C_77  and  C_102 
REMARK   18  A    between atoms: C_78  and  C_103 
ROOT
HETATM    1  C   UNK N   1      22.878  15.321   3.423  0.00  0.00    -0.010 C 
HETATM    2  C   UNK N   1      23.520  16.789   5.046  0.00  0.00     0.022 C 
HETATM    3  C   UNK N   1      21.743  16.278   3.404  0.00  0.00     0.039 C 
HETATM    4  C   UNK N   1      23.280  14.499   2.285  0.00  0.00     0.162 C 
HETATM    5  C   UNK N   1      23.701  15.474   4.425  0.00  0.00    -0.010 C 
HETATM    6  C   UNK N   1      22.233  17.382   4.373  0.00  0.00     0.025 C 
HETATM    7  C   UNK N   1      24.787  17.453   4.488  0.00  0.00     0.004 C 
HETATM    8  C   UNK N   1      24.313  13.407   2.475  0.00  0.00     0.085 C 
HETATM    9  C   UNK N   1      22.448  18.719   3.651  0.00  0.00    -0.024 C 
HETATM   10  C   UNK N   1      24.731  18.934   4.558  0.00  0.00     0.015 C 
HETATM   11  C   UNK N   1      20.049  14.319   3.207  0.00  0.00     0.259 C 
HETATM   12  C   UNK N   1      23.606  19.411   3.688  0.00  0.00    -0.025 C 
HETATM   13  C   UNK N   1      24.773  12.644   1.209  0.00  0.00     0.136 C 
HETATM   14  O   UNK N   1      20.921  13.406   2.695  0.00  0.00    -0.316 OA
HETATM   15  C   UNK N   1      20.561  15.488   4.029  0.00  0.00     0.121 C 
HETATM   16  C   UNK N   1      27.018  18.162   4.801  0.00  0.00     0.126 C 
HETATM   17  C   UNK N   1      26.060  17.059   5.199  0.00  0.00     0.038 C 
HETATM   18  C   UNK N   1      26.156  19.268   4.101  0.00  0.00     0.041 C 
HETATM   19  O   UNK N   1      22.760  14.719   1.201  0.00  0.00    -0.292 OA
HETATM   20  O   UNK N   1      18.848  14.200   3.024  0.00  0.00    -0.265 OA
HETATM   21  C   UNK N   1      20.618  12.334   1.875  0.00  0.00     0.131 C 
HETATM   22  C   UNK N   1      23.862  12.473   3.598  0.00  0.00     0.021 C 
HETATM   23  C   UNK N   1      23.789  12.639   0.029  0.00  0.00     0.033 C 
HETATM   24  C   UNK N   1      22.539  11.747   0.146  0.00  0.00     0.005 C 
HETATM   25  C   UNK N   1      21.908  11.543   1.539  0.00  0.00     0.032 C 
ENDROOT
BRANCH  16  26
HETATM   26  O   UNK N   1      27.817  18.538   5.921  0.00  0.00    -0.353 OA
BRANCH  26  27
HETATM   27  C   UNK N   1      28.899  17.650   6.130  0.00  0.00     0.292 C 
HETATM   28  C   UNK N   1      29.716  18.058   7.343  0.00  0.00     0.207 C 
HETATM   29  C   UNK N   1      30.394  16.757   7.758  0.00  0.00     0.185 C 
HETATM   30  C   UNK N   1      31.124  16.061   6.575  0.00  0.00     0.181 C 
HETATM   31  C   UNK N   1      30.663  16.494   5.132  0.00  0.00     0.152 C 
HETATM   32  O   UNK N   1      29.764  17.595   5.015  0.00  0.00    -0.351 OA
HETATM   33  C   UNK N   1      30.365  15.391   4.122  0.00  0.00     0.042 C 
BRANCH  28  34
HETATM   34  O   UNK N   1      28.983  18.683   8.384  0.00  0.00    -0.383 OA
HETATM   35  C   UNK N   1      28.155  17.762   9.046  0.00  0.00     0.202 C 
ENDBRANCH  28  34
BRANCH  29  36
HETATM   36  O   UNK N   1      31.135  16.872   8.920  0.00  0.00    -0.385 OA
HETATM   37  C   UNK N   1      32.268  17.596   8.530  0.00  0.00     0.202 C 
ENDBRANCH  29  36
BRANCH  30  38
HETATM   38  O   UNK N   1      31.200  14.658   6.734  0.00  0.00    -0.385 OA
HETATM   39  C   UNK N   1      32.552  14.293   6.903  0.00  0.00     0.202 C 
ENDBRANCH  30  38
ENDBRANCH  26  27
ENDBRANCH  16  26
BRANCH  13  40
HETATM   40  O   UNK N   1      25.149  11.319   1.493  0.00  0.00    -0.355 OA
BRANCH  40  41
HETATM   41  C   UNK N   1      26.372  10.978   0.879  0.00  0.00     0.260 C 
HETATM   42  O   UNK N   1      26.604   9.567   0.978  0.00  0.00    -0.354 OA
HETATM   43  C   UNK N   1      27.901   9.276   1.454  0.00  0.00     0.153 C 
HETATM   44  C   UNK N   1      28.037   9.790   2.900  0.00  0.00     0.250 C 
HETATM   45  C   UNK N   1      28.158   7.784   1.362  0.00  0.00     0.042 C 
HETATM   46  C   UNK N   1      27.626  11.278   2.992  0.00  0.00     0.043 C 
HETATM   47  C   UNK N   1      27.421  11.850   1.594  0.00  0.00     0.063 C 
BRANCH  44  48
HETATM   48  N   UNK N   1      29.371   9.531   3.458  0.00  0.00     0.087 N 
HETATM   49  C   UNK N   1      29.357   9.863   4.875  0.00  0.00     0.310 C 
HETATM   50  C   UNK N   1      30.392  10.347   2.811  0.00  0.00     0.310 C 
ENDBRANCH  44  48
ENDBRANCH  40  41
ENDBRANCH  13  40
BRANCH  21  51
HETATM   51  C   UNK N   1      19.843  12.768   0.631  0.00  0.00     0.028 C 
HETATM   52  C   UNK N   1      18.772  11.749   0.291  0.00  0.00     0.007 C 
ENDBRANCH  21  51
TORSDOF 18
ENDMDL
MODEL 5
REMARK VINA RESULT:      -7.5     10.690     17.047
REMARK  18 active torsions:
REMARK  status: ('A' for Active; 'I' for Inactive)
REMARK    1  A    between atoms: C_12  and  O_43 
REMARK    2  A    between atoms: C_13  and  O_44 
REMARK    3  A    between atoms: C_15  and  O_70 
REMARK    4  A    between atoms: C_16  and  O_69 
REMARK    5  A    between atoms: C_19  and  O_73 
REMARK    6  A    between atoms: C_20  and  O_74 
REMARK    7  A    between atoms: C_26  and  O_75 
REMARK    8  A    between atoms: C_27  and  O_76 
REMARK    9  A    between atoms: C_39  and  O_56 
REMARK   10  A    between atoms: C_40  and  O_55 
REMARK   11  A    between atoms: C_54  and  O_43 
REMARK   12  A    between atoms: C_53  and  O_44 
REMARK   13  A    between atoms: C_45  and  N_66 
REMARK   14  A    between atoms: C_46  and  N_65 
REMARK   15  A    between atoms: C_47  and  O_56 
REMARK   16  A    between atoms: C_48  and  O_55 
REMARK   17  A    between atoms: C_77  and  C_102 
REMARK   18  A    between atoms: C_78  and  C_103 
ROOT
HETATM    1  C   UNK N   1      29.473  13.501   3.631  0.00  0.00    -0.010 C 
HETATM    2  C   UNK N   1      30.183  14.811   5.357  0.00  0.00     0.022 C 
HETATM    3  C   UNK N   1      28.189  14.091   4.085  0.00  0.00     0.039 C 
HETATM    4  C   UNK N   1      29.723  13.017   2.276  0.00  0.00     0.162 C 
HETATM    5  C   UNK N   1      30.482  13.717   4.431  0.00  0.00    -0.010 C 
HETATM    6  C   UNK N   1      28.659  15.120   5.143  0.00  0.00     0.025 C 
HETATM    7  C   UNK N   1      31.058  15.885   4.693  0.00  0.00     0.004 C 
HETATM    8  C   UNK N   1      30.990  12.243   1.978  0.00  0.00     0.085 C 
HETATM    9  C   UNK N   1      28.352  16.561   4.712  0.00  0.00    -0.024 C 
HETATM   10  C   UNK N   1      30.684  17.259   5.108  0.00  0.00     0.015 C 
HETATM   11  C   UNK N   1      27.004  11.793   3.837  0.00  0.00     0.259 C 
HETATM   12  C   UNK N   1      29.285  17.535   4.643  0.00  0.00    -0.025 C 
HETATM   13  C   UNK N   1      31.246  11.851   0.502  0.00  0.00     0.136 C 
HETATM   14  O   UNK N   1      27.886  11.255   2.949  0.00  0.00    -0.316 OA
HETATM   15  C   UNK N   1      27.440  12.912   4.765  0.00  0.00     0.121 C 
HETATM   16  C   UNK N   1      33.064  17.132   4.649  0.00  0.00     0.126 C 
HETATM   17  C   UNK N   1      32.534  15.756   4.992  0.00  0.00     0.038 C 
HETATM   18  C   UNK N   1      31.811  18.048   4.429  0.00  0.00     0.041 C 
HETATM   19  O   UNK N   1      28.888  13.251   1.415  0.00  0.00    -0.292 OA
HETATM   20  O   UNK N   1      25.860  11.373   3.906  0.00  0.00    -0.265 OA
HETATM   21  C   UNK N   1      27.624  10.286   1.997  0.00  0.00     0.131 C 
HETATM   22  C   UNK N   1      31.095  11.053   2.932  0.00  0.00     0.021 C 
HETATM   23  C   UNK N   1      30.003  11.758  -0.396  0.00  0.00     0.033 C 
HETATM   24  C   UNK N   1      29.074  10.544  -0.207  0.00  0.00     0.005 C 
HETATM   25  C   UNK N   1      28.917   9.952   1.209  0.00  0.00     0.032 C 
ENDROOT
BRANCH  16  26
HETATM   26  O   UNK N   1      34.032  17.534   5.616  0.00  0.00    -0.353 OA
BRANCH  26  27
HETATM   27  C   UNK N   1      34.326  16.502   6.540  0.00  0.00     0.292 C 
HETATM   28  C   UNK N   1      34.480  17.055   7.945  0.00  0.00     0.207 C 
HETATM   29  C   UNK N   1      34.189  15.846   8.826  0.00  0.00     0.185 C 
HETATM   30  C   UNK N   1      35.028  14.599   8.426  0.00  0.00     0.181 C 
HETATM   31  C   UNK N   1      35.625  14.613   6.968  0.00  0.00     0.152 C 
HETATM   32  O   UNK N   1      35.512  15.813   6.205  0.00  0.00    -0.351 OA
HETATM   33  C   UNK N   1      35.441  13.363   6.115  0.00  0.00     0.042 C 
BRANCH  28  34
HETATM   34  O   UNK N   1      33.681  18.189   8.241  0.00  0.00    -0.383 OA
HETATM   35  C   UNK N   1      32.323  17.843   8.333  0.00  0.00     0.202 C 
ENDBRANCH  28  34
BRANCH  29  36
HETATM   36  O   UNK N   1      34.184  16.141  10.178  0.00  0.00    -0.385 OA
HETATM   37  C   UNK N   1      35.530  16.388  10.477  0.00  0.00     0.202 C 
ENDBRANCH  29  36
BRANCH  30  38
HETATM   38  O   UNK N   1      34.383  13.384   8.748  0.00  0.00    -0.385 OA
HETATM   39  C   UNK N   1      35.105  12.746   9.777  0.00  0.00     0.202 C 
ENDBRANCH  30  38
ENDBRANCH  26  27
ENDBRANCH  16  26
BRANCH  13  40
HETATM   40  O   UNK N   1      31.980  10.657   0.387  0.00  0.00    -0.355 OA
BRANCH  40  41
HETATM   41  C   UNK N   1      33.267  10.882  -0.144  0.00  0.00     0.260 C 
HETATM   42  O   UNK N   1      33.294  12.106  -0.888  0.00  0.00    -0.354 OA
HETATM   43  C   UNK N   1      33.880  11.939  -2.162  0.00  0.00     0.153 C 
HETATM   44  C   UNK N   1      33.000  10.996  -3.005  0.00  0.00     0.250 C 
HETATM   45  C   UNK N   1      34.053  13.290  -2.828  0.00  0.00     0.042 C 
HETATM   46  C   UNK N   1      32.716   9.684  -2.238  0.00  0.00     0.043 C 
HETATM   47  C   UNK N   1      33.569   9.622  -0.976  0.00  0.00     0.063 C 
BRANCH  44  48
HETATM   48  N   UNK N   1      33.558  10.766  -4.344  0.00  0.00     0.087 N 
HETATM   49  C   UNK N   1      32.656   9.895  -5.082  0.00  0.00     0.310 C 
HETATM   50  C   UNK N   1      34.863  10.118  -4.279  0.00  0.00     0.310 C 
ENDBRANCH  44  48
ENDBRANCH  40  41
ENDBRANCH  13  40
BRANCH  21  51
HETATM   51  C   UNK N   1      26.457  10.677   1.091  0.00  0.00     0.028 C 
HETATM   52  C   UNK N   1      25.598   9.467   0.780  0.00  0.00     0.007 C 
ENDBRANCH  21  51
TORSDOF 18
ENDMDL
MODEL 6
REMARK VINA RESULT:      -7.3     11.354     15.688
REMARK  18 active torsions:
REMARK  status: ('A' for Active; 'I' for Inactive)
REMARK    1  A    between atoms: C_12  and  O_43 
REMARK    2  A    between atoms: C_13  and  O_44 
REMARK    3  A    between atoms: C_15  and  O_70 
REMARK    4  A    between atoms: C_16  and  O_69 
REMARK    5  A    between atoms: C_19  and  O_73 
REMARK    6  A    between atoms: C_20  and  O_74 
REMARK    7  A    between atoms: C_26  and  O_75 
REMARK    8  A    between atoms: C_27  and  O_76 
REMARK    9  A    between atoms: C_39  and  O_56 
REMARK   10  A    between atoms: C_40  and  O_55 
REMARK   11  A    between atoms: C_54  and  O_43 
REMARK   12  A    between atoms: C_53  and  O_44 
REMARK   13  A    between atoms: C_45  and  N_66 
REMARK   14  A    between atoms: C_46  and  N_65 
REMARK   15  A    between atoms: C_47  and  O_56 
REMARK   16  A    between atoms: C_48  and  O_55 
REMARK   17  A    between atoms: C_77  and  C_102 
REMARK   18  A    between atoms: C_78  and  C_103 
ROOT
HETATM    1  C   UNK N   1      31.598  16.225   7.227  0.00  0.00    -0.010 C 
HETATM    2  C   UNK N   1      29.945  17.697   6.678  0.00  0.00     0.022 C 
HETATM    3  C   UNK N   1      31.449  16.973   8.501  0.00  0.00     0.039 C 
HETATM    4  C   UNK N   1      32.106  14.859   7.130  0.00  0.00     0.162 C 
HETATM    5  C   UNK N   1      30.957  16.745   6.215  0.00  0.00    -0.010 C 
HETATM    6  C   UNK N   1      30.214  17.862   8.215  0.00  0.00     0.025 C 
HETATM    7  C   UNK N   1      28.710  16.817   6.429  0.00  0.00     0.004 C 
HETATM    8  C   UNK N   1      32.414  14.270   5.769  0.00  0.00     0.085 C 
HETATM    9  C   UNK N   1      29.027  17.495   9.115  0.00  0.00    -0.024 C 
HETATM   10  C   UNK N   1      27.518  17.286   7.176  0.00  0.00     0.015 C 
HETATM   11  C   UNK N   1      34.029  17.068   8.787  0.00  0.00     0.259 C 
HETATM   12  C   UNK N   1      27.801  17.180   8.645  0.00  0.00    -0.025 C 
HETATM   13  C   UNK N   1      32.848  12.783   5.727  0.00  0.00     0.136 C 
HETATM   14  O   UNK N   1      34.316  15.999   7.993  0.00  0.00    -0.316 OA
HETATM   15  C   UNK N   1      32.735  17.839   8.594  0.00  0.00     0.121 C 
HETATM   16  C   UNK N   1      26.852  16.253   5.083  0.00  0.00     0.126 C 
HETATM   17  C   UNK N   1      28.282  16.742   4.982  0.00  0.00     0.038 C 
HETATM   18  C   UNK N   1      26.462  16.335   6.599  0.00  0.00     0.041 C 
HETATM   19  O   UNK N   1      32.272  14.229   8.163  0.00  0.00    -0.292 OA
HETATM   20  O   UNK N   1      34.813  17.427   9.651  0.00  0.00    -0.265 OA
HETATM   21  C   UNK N   1      35.412  15.159   8.090  0.00  0.00     0.131 C 
HETATM   22  C   UNK N   1      33.382  15.189   5.025  0.00  0.00     0.021 C 
HETATM   23  C   UNK N   1      33.466  12.224   7.018  0.00  0.00     0.033 C 
HETATM   24  C   UNK N   1      34.900  12.660   7.371  0.00  0.00     0.005 C 
HETATM   25  C   UNK N   1      35.354  14.081   6.977  0.00  0.00     0.032 C 
ENDROOT
BRANCH  16  26
HETATM   26  O   UNK N   1      26.036  16.942   4.138  0.00  0.00    -0.353 OA
BRANCH  26  27
HETATM   27  C   UNK N   1      24.669  16.594   4.258  0.00  0.00     0.292 C 
HETATM   28  C   UNK N   1      24.252  15.632   3.160  0.00  0.00     0.207 C 
HETATM   29  C   UNK N   1      23.036  14.932   3.757  0.00  0.00     0.185 C 
HETATM   30  C   UNK N   1      21.980  15.932   4.305  0.00  0.00     0.181 C 
HETATM   31  C   UNK N   1      22.503  17.387   4.607  0.00  0.00     0.152 C 
HETATM   32  O   UNK N   1      23.826  17.725   4.196  0.00  0.00    -0.351 OA
HETATM   33  C   UNK N   1      22.136  18.007   5.950  0.00  0.00     0.042 C 
BRANCH  28  34
HETATM   34  O   UNK N   1      25.265  14.747   2.712  0.00  0.00    -0.383 OA
HETATM   35  C   UNK N   1      25.575  14.971   1.361  0.00  0.00     0.202 C 
ENDBRANCH  28  34
BRANCH  29  36
HETATM   36  O   UNK N   1      22.532  13.927   2.950  0.00  0.00    -0.385 OA
HETATM   37  C   UNK N   1      21.879  14.615   1.919  0.00  0.00     0.202 C 
ENDBRANCH  29  36
BRANCH  30  38
HETATM   38  O   UNK N   1      21.214  15.388   5.361  0.00  0.00    -0.385 OA
HETATM   39  C   UNK N   1      19.868  15.306   4.950  0.00  0.00     0.202 C 
ENDBRANCH  30  38
ENDBRANCH  26  27
ENDBRANCH  16  26
BRANCH  13  40
HETATM   40  O   UNK N   1      33.713  12.511   4.653  0.00  0.00    -0.355 OA
BRANCH  40  41
HETATM   41  C   UNK N   1      33.328  11.351   3.950  0.00  0.00     0.260 C 
HETATM   42  O   UNK N   1      34.448  10.798   3.248  0.00  0.00    -0.354 OA
HETATM   43  C   UNK N   1      34.140  10.518   1.898  0.00  0.00     0.153 C 
HETATM   44  C   UNK N   1      33.839  11.837   1.162  0.00  0.00     0.250 C 
HETATM   45  C   UNK N   1      35.291   9.767   1.256  0.00  0.00     0.042 C 
HETATM   46  C   UNK N   1      32.767  12.653   1.921  0.00  0.00     0.043 C 
HETATM   47  C   UNK N   1      32.171  11.813   3.045  0.00  0.00     0.063 C 
BRANCH  44  48
HETATM   48  N   UNK N   1      33.498  11.620  -0.250  0.00  0.00     0.087 N 
HETATM   49  C   UNK N   1      34.255  12.560  -1.062  0.00  0.00     0.310 C 
HETATM   50  C   UNK N   1      32.078  11.844  -0.500  0.00  0.00     0.310 C 
ENDBRANCH  44  48
ENDBRANCH  40  41
ENDBRANCH  13  40
BRANCH  21  51
HETATM   51  C   UNK N   1      35.553  14.565   9.491  0.00  0.00     0.028 C 
HETATM   52  C   UNK N   1      37.015  14.468   9.881  0.00  0.00     0.007 C 
ENDBRANCH  21  51
TORSDOF 18
ENDMDL
MODEL 7
REMARK VINA RESULT:      -7.2     11.301     15.641
REMARK  18 active torsions:
REMARK  status: ('A' for Active; 'I' for Inactive)
REMARK    1  A    between atoms: C_12  and  O_43 
REMARK    2  A    between atoms: C_13  and  O_44 
REMARK    3  A    between atoms: C_15  and  O_70 
REMARK    4  A    between atoms: C_16  and  O_69 
REMARK    5  A    between atoms: C_19  and  O_73 
REMARK    6  A    between atoms: C_20  and  O_74 
REMARK    7  A    between atoms: C_26  and  O_75 
REMARK    8  A    between atoms: C_27  and  O_76 
REMARK    9  A    between atoms: C_39  and  O_56 
REMARK   10  A    between atoms: C_40  and  O_55 
REMARK   11  A    between atoms: C_54  and  O_43 
REMARK   12  A    between atoms: C_53  and  O_44 
REMARK   13  A    between atoms: C_45  and  N_66 
REMARK   14  A    between atoms: C_46  and  N_65 
REMARK   15  A    between atoms: C_47  and  O_56 
REMARK   16  A    between atoms: C_48  and  O_55 
REMARK   17  A    between atoms: C_77  and  C_102 
REMARK   18  A    between atoms: C_78  and  C_103 
ROOT
HETATM    1  C   UNK N   1      31.528  16.079   7.077  0.00  0.00    -0.010 C 
HETATM    2  C   UNK N   1      29.850  17.456   6.379  0.00  0.00     0.022 C 
HETATM    3  C   UNK N   1      31.335  16.925   8.282  0.00  0.00     0.039 C 
HETATM    4  C   UNK N   1      32.072  14.724   7.101  0.00  0.00     0.162 C 
HETATM    5  C   UNK N   1      30.895  16.497   6.014  0.00  0.00    -0.010 C 
HETATM    6  C   UNK N   1      30.084  17.754   7.901  0.00  0.00     0.025 C 
HETATM    7  C   UNK N   1      28.644  16.526   6.181  0.00  0.00     0.004 C 
HETATM    8  C   UNK N   1      32.423  14.033   5.800  0.00  0.00     0.085 C 
HETATM    9  C   UNK N   1      28.889  17.430   8.808  0.00  0.00    -0.024 C 
HETATM   10  C   UNK N   1      27.425  17.023   6.865  0.00  0.00     0.015 C 
HETATM   11  C   UNK N   1      33.906  17.111   8.606  0.00  0.00     0.259 C 
HETATM   12  C   UNK N   1      27.681  17.045   8.343  0.00  0.00    -0.025 C 
HETATM   13  C   UNK N   1      32.894  12.560   5.888  0.00  0.00     0.136 C 
HETATM   14  O   UNK N   1      34.236  15.989   7.907  0.00  0.00    -0.316 OA
HETATM   15  C   UNK N   1      32.597  17.829   8.326  0.00  0.00     0.121 C 
HETATM   16  C   UNK N   1      26.828  15.805   4.854  0.00  0.00     0.126 C 
HETATM   17  C   UNK N   1      28.246  16.322   4.738  0.00  0.00     0.038 C 
HETATM   18  C   UNK N   1      26.405  16.000   6.350  0.00  0.00     0.041 C 
HETATM   19  O   UNK N   1      32.233  14.185   8.186  0.00  0.00    -0.292 OA
HETATM   20  O   UNK N   1      34.664  17.561   9.451  0.00  0.00    -0.265 OA
HETATM   21  C   UNK N   1      35.350  15.189   8.093  0.00  0.00     0.131 C 
HETATM   22  C   UNK N   1      33.382  14.914   5.000  0.00  0.00     0.021 C 
HETATM   23  C   UNK N   1      33.500  12.126   7.231  0.00  0.00     0.033 C 
HETATM   24  C   UNK N   1      34.915  12.627   7.572  0.00  0.00     0.005 C 
HETATM   25  C   UNK N   1      35.341  14.023   7.072  0.00  0.00     0.032 C 
ENDROOT
BRANCH  16  26
HETATM   26  O   UNK N   1      26.013  16.392   3.840  0.00  0.00    -0.353 OA
BRANCH  26  27
HETATM   27  C   UNK N   1      25.112  15.461   3.271  0.00  0.00     0.292 C 
HETATM   28  C   UNK N   1      23.705  15.666   3.804  0.00  0.00     0.207 C 
HETATM   29  C   UNK N   1      22.830  15.056   2.714  0.00  0.00     0.185 C 
HETATM   30  C   UNK N   1      23.273  13.616   2.328  0.00  0.00     0.181 C 
HETATM   31  C   UNK N   1      24.749  13.225   2.716  0.00  0.00     0.152 C 
HETATM   32  O   UNK N   1      25.493  14.126   3.532  0.00  0.00    -0.351 OA
HETATM   33  C   UNK N   1      25.611  12.565   1.645  0.00  0.00     0.042 C 
BRANCH  28  34
HETATM   34  O   UNK N   1      23.370  17.004   4.131  0.00  0.00    -0.383 OA
HETATM   35  C   UNK N   1      22.919  17.105   5.457  0.00  0.00     0.202 C 
ENDBRANCH  28  34
BRANCH  29  36
HETATM   36  O   UNK N   1      21.476  15.212   2.948  0.00  0.00    -0.385 OA
HETATM   37  C   UNK N   1      21.021  15.937   1.840  0.00  0.00     0.202 C 
ENDBRANCH  29  36
BRANCH  30  38
HETATM   38  O   UNK N   1      22.945  13.287   0.993  0.00  0.00    -0.385 OA
HETATM   39  C   UNK N   1      21.916  12.324   1.002  0.00  0.00     0.202 C 
ENDBRANCH  30  38
ENDBRANCH  26  27
ENDBRANCH  16  26
BRANCH  13  40
HETATM   40  O   UNK N   1      33.788  12.224   4.856  0.00  0.00    -0.355 OA
BRANCH  40  41
HETATM   41  C   UNK N   1      33.454  10.994   4.252  0.00  0.00     0.260 C 
HETATM   42  O   UNK N   1      34.591  10.446   3.574  0.00  0.00    -0.354 OA
HETATM   43  C   UNK N   1      34.278  10.045   2.257  0.00  0.00     0.153 C 
HETATM   44  C   UNK N   1      33.896  11.285   1.426  0.00  0.00     0.250 C 
HETATM   45  C   UNK N   1      35.457   9.306   1.653  0.00  0.00     0.042 C 
HETATM   46  C   UNK N   1      32.794  12.102   2.140  0.00  0.00     0.043 C 
HETATM   47  C   UNK N   1      32.260  11.323   3.337  0.00  0.00     0.063 C 
BRANCH  44  48
HETATM   48  N   UNK N   1      33.546  10.940   0.042  0.00  0.00     0.087 N 
HETATM   49  C   UNK N   1      33.510  12.161  -0.748  0.00  0.00     0.310 C 
HETATM   50  C   UNK N   1      32.234  10.308  -0.039  0.00  0.00     0.310 C 
ENDBRANCH  44  48
ENDBRANCH  40  41
ENDBRANCH  13  40
BRANCH  21  51
HETATM   51  C   UNK N   1      35.478  14.715   9.540  0.00  0.00     0.028 C 
HETATM   52  C   UNK N   1      36.938  14.616   9.938  0.00  0.00     0.007 C 
ENDBRANCH  21  51
TORSDOF 18
ENDMDL
MODEL 8
REMARK VINA RESULT:      -7.2     11.133     16.300
REMARK  18 active torsions:
REMARK  status: ('A' for Active; 'I' for Inactive)
REMARK    1  A    between atoms: C_12  and  O_43 
REMARK    2  A    between atoms: C_13  and  O_44 
REMARK    3  A    between atoms: C_15  and  O_70 
REMARK    4  A    between atoms: C_16  and  O_69 
REMARK    5  A    between atoms: C_19  and  O_73 
REMARK    6  A    between atoms: C_20  and  O_74 
REMARK    7  A    between atoms: C_26  and  O_75 
REMARK    8  A    between atoms: C_27  and  O_76 
REMARK    9  A    between atoms: C_39  and  O_56 
REMARK   10  A    between atoms: C_40  and  O_55 
REMARK   11  A    between atoms: C_54  and  O_43 
REMARK   12  A    between atoms: C_53  and  O_44 
REMARK   13  A    between atoms: C_45  and  N_66 
REMARK   14  A    between atoms: C_46  and  N_65 
REMARK   15  A    between atoms: C_47  and  O_56 
REMARK   16  A    between atoms: C_48  and  O_55 
REMARK   17  A    between atoms: C_77  and  C_102 
REMARK   18  A    between atoms: C_78  and  C_103 
ROOT
HETATM    1  C   UNK N   1      28.972  16.571   4.982  0.00  0.00    -0.010 C 
HETATM    2  C   UNK N   1      30.998  16.247   5.980  0.00  0.00     0.022 C 
HETATM    3  C   UNK N   1      29.657  17.848   4.656  0.00  0.00     0.039 C 
HETATM    4  C   UNK N   1      27.889  15.994   4.193  0.00  0.00     0.162 C 
HETATM    5  C   UNK N   1      29.601  15.826   5.851  0.00  0.00    -0.010 C 
HETATM    6  C   UNK N   1      31.094  17.588   5.170  0.00  0.00     0.025 C 
HETATM    7  C   UNK N   1      31.633  15.087   5.198  0.00  0.00     0.004 C 
HETATM    8  C   UNK N   1      27.123  14.802   4.729  0.00  0.00     0.085 C 
HETATM    9  C   UNK N   1      32.114  17.570   4.023  0.00  0.00    -0.024 C 
HETATM   10  C   UNK N   1      33.014  15.392   4.751  0.00  0.00     0.015 C 
HETATM   11  C   UNK N   1      27.493  19.183   5.189  0.00  0.00     0.259 C 
HETATM   12  C   UNK N   1      32.962  16.546   3.793  0.00  0.00    -0.025 C 
HETATM   13  C   UNK N   1      26.058  14.171   3.798  0.00  0.00     0.136 C 
HETATM   14  O   UNK N   1      26.621  18.152   5.008  0.00  0.00    -0.316 OA
HETATM   15  C   UNK N   1      28.943  18.906   5.542  0.00  0.00     0.121 C 
HETATM   16  C   UNK N   1      32.774  13.019   5.197  0.00  0.00     0.126 C 
HETATM   17  C   UNK N   1      31.732  13.795   5.975  0.00  0.00     0.038 C 
HETATM   18  C   UNK N   1      33.406  14.025   4.175  0.00  0.00     0.041 C 
HETATM   19  O   UNK N   1      27.628  16.499   3.111  0.00  0.00    -0.292 OA
HETATM   20  O   UNK N   1      27.116  20.340   5.085  0.00  0.00    -0.265 OA
HETATM   21  C   UNK N   1      25.297  18.239   4.618  0.00  0.00     0.131 C 
HETATM   22  C   UNK N   1      26.573  15.134   6.116  0.00  0.00     0.021 C 
HETATM   23  C   UNK N   1      25.478  15.094   2.715  0.00  0.00     0.033 C 
HETATM   24  C   UNK N   1      24.483  16.181   3.160  0.00  0.00     0.005 C 
HETATM   25  C   UNK N   1      24.670  16.823   4.551  0.00  0.00     0.032 C 
ENDROOT
BRANCH  16  26
HETATM   26  O   UNK N   1      33.645  12.339   6.099  0.00  0.00    -0.353 OA
BRANCH  26  27
HETATM   27  C   UNK N   1      34.084  13.176   7.154  0.00  0.00     0.292 C 
HETATM   28  C   UNK N   1      35.531  12.889   7.513  0.00  0.00     0.207 C 
HETATM   29  C   UNK N   1      35.989  14.188   8.166  0.00  0.00     0.185 C 
HETATM   30  C   UNK N   1      35.027  14.662   9.292  0.00  0.00     0.181 C 
HETATM   31  C   UNK N   1      33.571  14.062   9.249  0.00  0.00     0.152 C 
HETATM   32  O   UNK N   1      33.301  13.017   8.318  0.00  0.00    -0.351 OA
HETATM   33  C   UNK N   1      32.402  15.030   9.392  0.00  0.00     0.042 C 
BRANCH  28  34
HETATM   34  O   UNK N   1      36.350  12.464   6.436  0.00  0.00    -0.383 OA
HETATM   35  C   UNK N   1      36.891  11.192   6.680  0.00  0.00     0.202 C 
ENDBRANCH  28  34
BRANCH  29  36
HETATM   36  O   UNK N   1      37.332  14.188   8.500  0.00  0.00    -0.385 OA
HETATM   37  C   UNK N   1      37.393  13.404   9.659  0.00  0.00     0.202 C 
ENDBRANCH  29  36
BRANCH  30  38
HETATM   38  O   UNK N   1      35.043  16.065   9.464  0.00  0.00    -0.385 OA
HETATM   39  C   UNK N   1      35.514  16.358  10.760  0.00  0.00     0.202 C 
ENDBRANCH  30  38
ENDBRANCH  26  27
ENDBRANCH  16  26
BRANCH  13  40
HETATM   40  O   UNK N   1      24.998  13.591   4.516  0.00  0.00    -0.355 OA
BRANCH  40  41
HETATM   41  C   UNK N   1      24.729  12.275   4.084  0.00  0.00     0.260 C 
HETATM   42  O   UNK N   1      25.167  12.095   2.732  0.00  0.00    -0.354 OA
HETATM   43  C   UNK N   1      24.168  11.504   1.927  0.00  0.00     0.153 C 
HETATM   44  C   UNK N   1      22.970  12.467   1.818  0.00  0.00     0.250 C 
HETATM   45  C   UNK N   1      24.742  11.165   0.565  0.00  0.00     0.042 C 
HETATM   46  C   UNK N   1      22.499  12.914   3.221  0.00  0.00     0.043 C 
HETATM   47  C   UNK N   1      23.214  12.101   4.294  0.00  0.00     0.063 C 
BRANCH  44  48
HETATM   48  N   UNK N   1      21.884  11.911   1.001  0.00  0.00     0.087 N 
HETATM   49  C   UNK N   1      20.944  12.976   0.687  0.00  0.00     0.310 C 
HETATM   50  C   UNK N   1      21.160  10.862   1.710  0.00  0.00     0.310 C 
ENDBRANCH  44  48
ENDBRANCH  40  41
ENDBRANCH  13  40
BRANCH  21  51
HETATM   51  C   UNK N   1      25.135  19.027   3.318  0.00  0.00     0.028 C 
HETATM   52  C   UNK N   1      24.030  20.056   3.456  0.00  0.00     0.007 C 
ENDBRANCH  21  51
TORSDOF 18
ENDMDL
MODEL 9
REMARK VINA RESULT:      -7.1      9.996     15.612
REMARK  18 active torsions:
REMARK  status: ('A' for Active; 'I' for Inactive)
REMARK    1  A    between atoms: C_12  and  O_43 
REMARK    2  A    between atoms: C_13  and  O_44 
REMARK    3  A    between atoms: C_15  and  O_70 
REMARK    4  A    between atoms: C_16  and  O_69 
REMARK    5  A    between atoms: C_19  and  O_73 
REMARK    6  A    between atoms: C_20  and  O_74 
REMARK    7  A    between atoms: C_26  and  O_75 
REMARK    8  A    between atoms: C_27  and  O_76 
REMARK    9  A    between atoms: C_39  and  O_56 
REMARK   10  A    between atoms: C_40  and  O_55 
REMARK   11  A    between atoms: C_54  and  O_43 
REMARK   12  A    between atoms: C_53  and  O_44 
REMARK   13  A    between atoms: C_45  and  N_66 
REMARK   14  A    between atoms: C_46  and  N_65 
REMARK   15  A    between atoms: C_47  and  O_56 
REMARK   16  A    between atoms: C_48  and  O_55 
REMARK   17  A    between atoms: C_77  and  C_102 
REMARK   18  A    between atoms: C_78  and  C_103 
ROOT
HETATM    1  C   UNK N   1      30.713  16.186   6.316  0.00  0.00    -0.010 C 
HETATM    2  C   UNK N   1      32.300  14.693   6.991  0.00  0.00     0.022 C 
HETATM    3  C   UNK N   1      31.594  17.058   7.134  0.00  0.00     0.039 C 
HETATM    4  C   UNK N   1      29.861  16.663   5.231  0.00  0.00     0.162 C 
HETATM    5  C   UNK N   1      30.970  14.910   6.417  0.00  0.00    -0.010 C 
HETATM    6  C   UNK N   1      32.775  16.112   7.462  0.00  0.00     0.025 C 
HETATM    7  C   UNK N   1      33.014  14.277   5.696  0.00  0.00     0.004 C 
HETATM    8  C   UNK N   1      28.849  15.726   4.604  0.00  0.00     0.085 C 
HETATM    9  C   UNK N   1      34.084  16.593   6.821  0.00  0.00    -0.024 C 
HETATM   10  C   UNK N   1      34.490  14.385   5.802  0.00  0.00     0.015 C 
HETATM   11  C   UNK N   1      29.524  18.208   8.201  0.00  0.00     0.259 C 
HETATM   12  C   UNK N   1      34.850  15.825   6.017  0.00  0.00    -0.025 C 
HETATM   13  C   UNK N   1      28.052  16.260   3.388  0.00  0.00     0.136 C 
HETATM   14  O   UNK N   1      28.642  17.903   7.207  0.00  0.00    -0.316 OA
HETATM   15  C   UNK N   1      30.763  17.357   8.412  0.00  0.00     0.121 C 
HETATM   16  C   UNK N   1      33.879  12.572   4.308  0.00  0.00     0.126 C 
HETATM   17  C   UNK N   1      32.739  12.855   5.264  0.00  0.00     0.038 C 
HETATM   18  C   UNK N   1      34.891  13.760   4.459  0.00  0.00     0.041 C 
HETATM   19  O   UNK N   1      29.992  17.820   4.859  0.00  0.00    -0.292 OA
HETATM   20  O   UNK N   1      29.319  19.157   8.941  0.00  0.00    -0.265 OA
HETATM   21  C   UNK N   1      27.513  18.616   6.847  0.00  0.00     0.131 C 
HETATM   22  C   UNK N   1      27.947  15.151   5.696  0.00  0.00     0.021 C 
HETATM   23  C   UNK N   1      27.924  17.788   3.284  0.00  0.00     0.033 C 
HETATM   24  C   UNK N   1      26.962  18.492   4.257  0.00  0.00     0.005 C 
HETATM   25  C   UNK N   1      26.789  17.906   5.674  0.00  0.00     0.032 C 
ENDROOT
BRANCH  16  26
HETATM   26  O   UNK N   1      34.363  11.245   4.509  0.00  0.00    -0.353 OA
BRANCH  26  27
HETATM   27  C   UNK N   1      33.706  10.593   5.581  0.00  0.00     0.292 C 
HETATM   28  C   UNK N   1      34.679  10.267   6.700  0.00  0.00     0.207 C 
HETATM   29  C   UNK N   1      33.774  10.154   7.922  0.00  0.00     0.185 C 
HETATM   30  C   UNK N   1      32.569   9.201   7.688  0.00  0.00     0.181 C 
HETATM   31  C   UNK N   1      32.201   8.916   6.182  0.00  0.00     0.152 C 
HETATM   32  O   UNK N   1      33.086   9.393   5.171  0.00  0.00    -0.351 OA
HETATM   33  C   UNK N   1      30.736   9.038   5.776  0.00  0.00     0.042 C 
BRANCH  28  34
HETATM   34  O   UNK N   1      35.750  11.182   6.858  0.00  0.00    -0.383 OA
HETATM   35  C   UNK N   1      36.990  10.545   6.690  0.00  0.00     0.202 C 
ENDBRANCH  28  34
BRANCH  29  36
HETATM   36  O   UNK N   1      34.469   9.945   9.100  0.00  0.00    -0.385 OA
HETATM   37  C   UNK N   1      34.824   8.591   9.049  0.00  0.00     0.202 C 
ENDBRANCH  29  36
BRANCH  30  38
HETATM   38  O   UNK N   1      31.447   9.539   8.478  0.00  0.00    -0.385 OA
HETATM   39  C   UNK N   1      31.131   8.446   9.310  0.00  0.00     0.202 C 
ENDBRANCH  30  38
ENDBRANCH  26  27
ENDBRANCH  16  26
BRANCH  13  40
HETATM   40  O   UNK N   1      26.771  15.689   3.298  0.00  0.00    -0.355 OA
BRANCH  40  41
HETATM   41  C   UNK N   1      26.530  15.138   2.022  0.00  0.00     0.260 C 
HETATM   42  O   UNK N   1      25.131  15.181   1.717  0.00  0.00    -0.354 OA
HETATM   43  C   UNK N   1      24.653  13.936   1.252  0.00  0.00     0.153 C 
HETATM   44  C   UNK N   1      24.768  12.895   2.383  0.00  0.00     0.250 C 
HETATM   45  C   UNK N   1      23.223  14.084   0.769  0.00  0.00     0.042 C 
HETATM   46  C   UNK N   1      26.202  12.871   2.958  0.00  0.00     0.043 C 
HETATM   47  C   UNK N   1      27.126  13.721   2.093  0.00  0.00     0.063 C 
BRANCH  44  48
HETATM   48  N   UNK N   1      24.297  11.568   1.965  0.00  0.00     0.087 N 
HETATM   49  C   UNK N   1      24.154  10.731   3.146  0.00  0.00     0.310 C 
HETATM   50  C   UNK N   1      25.243  10.922   1.063  0.00  0.00     0.310 C 
ENDBRANCH  44  48
ENDBRANCH  40  41
ENDBRANCH  13  40
BRANCH  21  51
HETATM   51  C   UNK N   1      27.832  20.081   6.552  0.00  0.00     0.028 C 
HETATM   52  C   UNK N   1      26.651  20.963   6.908  0.00  0.00     0.007 C 
ENDBRANCH  21  51
TORSDOF 18
ENDMDL
