REMARK  12 active torsions:
REMARK  status: ('A' for Active; 'I' for Inactive)
REMARK    1  A    between atoms: C_1  and  C_2 
REMARK    2  A    between atoms: N_7  and  C_12 
REMARK    3  A    between atoms: C_12  and  C_15 
REMARK    4  A    between atoms: C_13  and  N_16 
REMARK    5  A    between atoms: C_15  and  O_17 
REMARK    6  A    between atoms: N_16  and  C_19 
REMARK    7  A    between atoms: C_19  and  C_20 
REMARK    8  A    between atoms: C_19  and  C_21 
REMARK    9  A    between atoms: C_20  and  C_22 
REMARK   10  A    between atoms: C_21  and  O_23 
REMARK   11  A    between atoms: C_22  and  C_25 
REMARK   12  A    between atoms: O_23  and  C_26 
ROOT
HETATM    1  C   UNK N   1       2.896   1.171   0.234  0.00  0.00     0.105 C 
HETATM    2  C   UNK N   1       3.379  -0.214   0.646  0.00  0.00     0.146 C 
HETATM    3  S   UNK N   1       1.960   1.903   1.612  0.00  0.00    -0.155 SA
HETATM    4  N   UNK N   1       2.470  -1.335   0.400  0.00  0.00    -0.339 N 
HETATM    5  C   UNK N   1       0.547   0.758   1.531  0.00  0.00     0.109 C 
HETATM    6  C   UNK N   1       1.114  -1.223   0.163  0.00  0.00     0.243 C 
HETATM    7  C   UNK N   1       0.378   0.105   0.168  0.00  0.00     0.179 C 
HETATM    8  O   UNK N   1       0.458  -2.243  -0.024  0.00  0.00    -0.271 OA
ENDROOT
BRANCH   7   9
HETATM    9  N   UNK N   1      -1.054  -0.088  -0.030  0.00  0.00    -0.396 N 
HETATM   10  H   UNK N   1      -1.621  -0.709   0.547  0.00  0.00     0.155 HD
BRANCH   9  11
HETATM   11  C   UNK N   1      -1.598   0.701  -1.143  0.00  0.00     0.178 C 
BRANCH  11  12
HETATM   12  C   UNK N   1      -3.027   0.212  -1.378  0.00  0.00     0.039 C 
BRANCH  12  13
HETATM   13  C   UNK N   1      -3.846   0.310  -0.091  0.00  0.00     0.041 C 
BRANCH  13  14
HETATM   14  C   UNK N   1      -4.819  -0.802   0.044  0.00  0.00    -0.058 A 
HETATM   15  C   UNK N   1      -4.373  -2.109   0.269  0.00  0.00     0.007 A 
HETATM   16  C   UNK N   1      -5.298  -3.142   0.442  0.00  0.00     0.001 A 
HETATM   17  C   UNK N   1      -6.668  -2.868   0.394  0.00  0.00     0.000 A 
HETATM   18  C   UNK N   1      -7.114  -1.561   0.173  0.00  0.00     0.001 A 
HETATM   19  C   UNK N   1      -6.189  -0.527   0.004  0.00  0.00     0.007 A 
ENDBRANCH  13  14
ENDBRANCH  12  13
ENDBRANCH  11  12
BRANCH  11  20
HETATM   20  C   UNK N   1      -1.388   2.221  -0.974  0.00  0.00     0.281 C 
HETATM   21  O   UNK N   1      -0.243   2.621  -0.850  0.00  0.00    -0.263 OA
BRANCH  20  22
HETATM   22  O   UNK N   1      -2.375   3.164  -0.998  0.00  0.00    -0.320 OA
BRANCH  22  23
HETATM   23  C   UNK N   1      -3.706   2.978  -1.283  0.00  0.00     0.174 C 
HETATM   24  C   UNK N   1      -4.544   3.434  -0.104  0.00  0.00     0.034 C 
ENDBRANCH  22  23
ENDBRANCH  20  22
ENDBRANCH  11  20
ENDBRANCH   9  11
ENDBRANCH   7   9
BRANCH   4  25
HETATM   25  C   UNK N   1       3.040  -2.665   0.523  0.00  0.00     0.235 C 
BRANCH  25  26
HETATM   26  C   UNK N   1       4.186  -2.926  -0.416  0.00  0.00     0.158 C 
HETATM   27  O   UNK N   1       4.745  -4.009  -0.386  0.00  0.00    -0.649 OA
BRANCH  26  28
HETATM   28  O   UNK N   1       4.616  -1.979  -1.273  0.00  0.00    -0.775 OA
HETATM   29  H   UNK N   1       5.336  -1.909  -1.868  0.00  0.00     0.167 HD
ENDBRANCH  26  28
ENDBRANCH  25  26
ENDBRANCH   4  25
BRANCH   1  30
HETATM   30  C   UNK N   1       4.032   2.082  -0.124  0.00  0.00    -0.002 A 
HETATM   31  C   UNK N   1       3.906   3.408  -0.537  0.00  0.00     0.016 A 
HETATM   32  C   UNK N   1       5.161   4.029  -0.800  0.00  0.00     0.008 A 
HETATM   33  C   UNK N   1       6.268   3.192  -0.599  0.00  0.00     0.050 A 
HETATM   34  S   UNK N   1       5.652   1.733  -0.108  0.00  0.00    -0.105 SA
ENDBRANCH   1  30
TORSDOF 12
