MODEL 1
REMARK VINA RESULT:      -5.5      0.000      0.000
REMARK  15 active torsions:
REMARK  status: ('A' for Active; 'I' for Inactive)
REMARK    1  A    between atoms: O_1  and  C_7 
REMARK    2  A    between atoms: O_2  and  C_8 
REMARK    3  A    between atoms: N_3  and  C_4 
REMARK    4  A    between atoms: C_4  and  C_5 
REMARK    5  A    between atoms: C_4  and  C_7 
REMARK    6  A    between atoms: C_4  and  C_8 
REMARK    7  A    between atoms: C_5  and  C_6 
REMARK    8  A    between atoms: C_6  and  C_12 
REMARK    9  A    between atoms: C_9  and  C_10 
REMARK   10  A    between atoms: C_9  and  C_11 
REMARK   11  A    between atoms: C_10  and  C_13 
REMARK   12  A    between atoms: C_11  and  C_14 
REMARK   13  A    between atoms: C_13  and  C_15 
REMARK   14  A    between atoms: C_14  and  C_16 
REMARK   15  A    between atoms: C_16  and  C_21 
ROOT
HETATM    1  C   UNK N   1      30.382  17.584   7.611  0.00  0.00    -0.058 A 
HETATM    2  C   UNK N   1      28.370  17.029   5.745  0.00  0.00    -0.058 A 
HETATM    3  C   UNK N   1      29.047  17.849   7.925  0.00  0.00     0.007 A 
HETATM    4  C   UNK N   1      30.714  17.042   6.363  0.00  0.00     0.007 A 
HETATM    5  C   UNK N   1      28.042  17.560   6.999  0.00  0.00     0.007 A 
HETATM    6  C   UNK N   1      29.708  16.769   5.428  0.00  0.00     0.007 A 
ENDROOT
BRANCH   1   7
HETATM    7  C   UNK N   1      31.448  17.908   8.598  0.00  0.00     0.041 C 
BRANCH   7   8
HETATM    8  C   UNK N   1      32.405  16.733   8.769  0.00  0.00     0.039 C 
BRANCH   8   9
HETATM    9  C   UNK N   1      33.877  17.139   8.616  0.00  0.00     0.066 C 
BRANCH   9  10
HETATM   10  N   UNK N   1      34.522  17.065   9.917  0.00  0.00    -0.418 N 
HETATM   11  H   UNK N   1      34.510  16.585  10.817  0.00  0.00     0.150 HD
HETATM   12  H   UNK N   1      35.273  17.756   9.937  0.00  0.00     0.150 HD
ENDBRANCH   9  10
BRANCH   9  13
HETATM   13  C   UNK N   1      34.013  18.561   8.074  0.00  0.00     0.196 C 
BRANCH  13  14
HETATM   14  O   UNK N   1      35.235  19.127   8.446  0.00  0.00    -0.398 OA
HETATM   15  H   UNK N   1      35.424  19.886   9.019  0.00  0.00     0.209 HD
ENDBRANCH  13  14
ENDBRANCH   9  13
BRANCH   9  16
HETATM   16  C   UNK N   1      34.588  16.188   7.656  0.00  0.00     0.196 C 
BRANCH  16  17
HETATM   17  O   UNK N   1      34.796  16.797   6.415  0.00  0.00    -0.398 OA
HETATM   18  H   UNK N   1      35.320  17.584   6.198  0.00  0.00     0.209 HD
ENDBRANCH  16  17
ENDBRANCH   9  16
ENDBRANCH   8   9
ENDBRANCH   7   8
ENDBRANCH   1   7
BRANCH   2  19
HETATM   19  C   UNK N   1      27.297  16.706   4.748  0.00  0.00     0.038 C 
BRANCH  19  20
HETATM   20  C   UNK N   1      25.912  17.025   5.288  0.00  0.00     0.005 C 
BRANCH  20  21
HETATM   21  C   UNK N   1      25.215  17.961   4.312  0.00  0.00     0.000 C 
BRANCH  21  22
HETATM   22  C   UNK N   1      26.220  18.878   3.640  0.00  0.00     0.000 C 
BRANCH  22  23
HETATM   23  C   UNK N   1      26.267  20.215   4.348  0.00  0.00     0.000 C 
BRANCH  23  24
HETATM   24  C   UNK N   1      27.676  20.481   4.835  0.00  0.00    -0.000 C 
BRANCH  24  25
HETATM   25  C   UNK N   1      27.619  21.314   6.097  0.00  0.00    -0.005 C 
HETATM   26  C   UNK N   1      26.387  20.941   6.893  0.00  0.00     0.005 C 
ENDBRANCH  24  25
ENDBRANCH  23  24
ENDBRANCH  22  23
ENDBRANCH  21  22
ENDBRANCH  20  21
ENDBRANCH  19  20
ENDBRANCH   2  19
TORSDOF 15
ENDMDL
MODEL 2
REMARK VINA RESULT:      -5.5      2.031      3.021
REMARK  15 active torsions:
REMARK  status: ('A' for Active; 'I' for Inactive)
REMARK    1  A    between atoms: O_1  and  C_7 
REMARK    2  A    between atoms: O_2  and  C_8 
REMARK    3  A    between atoms: N_3  and  C_4 
REMARK    4  A    between atoms: C_4  and  C_5 
REMARK    5  A    between atoms: C_4  and  C_7 
REMARK    6  A    between atoms: C_4  and  C_8 
REMARK    7  A    between atoms: C_5  and  C_6 
REMARK    8  A    between atoms: C_6  and  C_12 
REMARK    9  A    between atoms: C_9  and  C_10 
REMARK   10  A    between atoms: C_9  and  C_11 
REMARK   11  A    between atoms: C_10  and  C_13 
REMARK   12  A    between atoms: C_11  and  C_14 
REMARK   13  A    between atoms: C_13  and  C_15 
REMARK   14  A    between atoms: C_14  and  C_16 
REMARK   15  A    between atoms: C_16  and  C_21 
ROOT
HETATM    1  C   UNK N   1      32.698  17.595   7.723  0.00  0.00    -0.058 A 
HETATM    2  C   UNK N   1      29.989  17.307   7.074  0.00  0.00    -0.058 A 
HETATM    3  C   UNK N   1      31.718  17.904   8.669  0.00  0.00     0.007 A 
HETATM    4  C   UNK N   1      32.327  17.144   6.451  0.00  0.00     0.007 A 
HETATM    5  C   UNK N   1      30.367  17.747   8.350  0.00  0.00     0.007 A 
HETATM    6  C   UNK N   1      30.972  17.004   6.125  0.00  0.00     0.007 A 
ENDROOT
BRANCH   1   7
HETATM    7  C   UNK N   1      34.134  17.779   8.066  0.00  0.00     0.041 C 
BRANCH   7   8
HETATM    8  C   UNK N   1      34.834  16.431   8.213  0.00  0.00     0.039 C 
BRANCH   8   9
HETATM    9  C   UNK N   1      34.906  15.954   9.669  0.00  0.00     0.066 C 
BRANCH   9  10
HETATM   10  N   UNK N   1      34.819  17.109  10.547  0.00  0.00    -0.418 N 
HETATM   11  H   UNK N   1      35.347  17.893  10.932  0.00  0.00     0.150 HD
HETATM   12  H   UNK N   1      33.870  17.155  10.918  0.00  0.00     0.150 HD
ENDBRANCH   9  10
BRANCH   9  13
HETATM   13  C   UNK N   1      36.211  15.212   9.953  0.00  0.00     0.196 C 
BRANCH  13  14
HETATM   14  O   UNK N   1      37.033  15.948  10.808  0.00  0.00    -0.398 OA
HETATM   15  H   UNK N   1      37.759  16.559  10.606  0.00  0.00     0.209 HD
ENDBRANCH  13  14
ENDBRANCH   9  13
BRANCH   9  16
HETATM   16  C   UNK N   1      33.742  15.013   9.972  0.00  0.00     0.196 C 
BRANCH  16  17
HETATM   17  O   UNK N   1      33.513  14.930  11.349  0.00  0.00    -0.398 OA
HETATM   18  H   UNK N   1      33.710  14.204  11.961  0.00  0.00     0.209 HD
ENDBRANCH  16  17
ENDBRANCH   9  16
ENDBRANCH   8   9
ENDBRANCH   7   8
ENDBRANCH   1   7
BRANCH   2  19
HETATM   19  C   UNK N   1      28.543  17.127   6.726  0.00  0.00     0.038 C 
BRANCH  19  20
HETATM   20  C   UNK N   1      28.043  18.228   5.805  0.00  0.00     0.005 C 
BRANCH  20  21
HETATM   21  C   UNK N   1      27.770  19.471   6.639  0.00  0.00     0.000 C 
BRANCH  21  22
HETATM   22  C   UNK N   1      27.653  20.696   5.752  0.00  0.00     0.000 C 
BRANCH  22  23
HETATM   23  C   UNK N   1      26.281  20.757   5.117  0.00  0.00     0.000 C 
BRANCH  23  24
HETATM   24  C   UNK N   1      26.406  20.564   3.620  0.00  0.00    -0.000 C 
BRANCH  24  25
HETATM   25  C   UNK N   1      25.252  19.717   3.128  0.00  0.00    -0.005 C 
HETATM   26  C   UNK N   1      24.019  20.582   2.977  0.00  0.00     0.005 C 
ENDBRANCH  24  25
ENDBRANCH  23  24
ENDBRANCH  22  23
ENDBRANCH  21  22
ENDBRANCH  20  21
ENDBRANCH  19  20
ENDBRANCH   2  19
TORSDOF 15
ENDMDL
MODEL 3
REMARK VINA RESULT:      -5.4     11.008     12.994
REMARK  15 active torsions:
REMARK  status: ('A' for Active; 'I' for Inactive)
REMARK    1  A    between atoms: O_1  and  C_7 
REMARK    2  A    between atoms: O_2  and  C_8 
REMARK    3  A    between atoms: N_3  and  C_4 
REMARK    4  A    between atoms: C_4  and  C_5 
REMARK    5  A    between atoms: C_4  and  C_7 
REMARK    6  A    between atoms: C_4  and  C_8 
REMARK    7  A    between atoms: C_5  and  C_6 
REMARK    8  A    between atoms: C_6  and  C_12 
REMARK    9  A    between atoms: C_9  and  C_10 
REMARK   10  A    between atoms: C_9  and  C_11 
REMARK   11  A    between atoms: C_10  and  C_13 
REMARK   12  A    between atoms: C_11  and  C_14 
REMARK   13  A    between atoms: C_13  and  C_15 
REMARK   14  A    between atoms: C_14  and  C_16 
REMARK   15  A    between atoms: C_16  and  C_21 
ROOT
HETATM    1  C   UNK N   1      29.189  23.534  -3.611  0.00  0.00    -0.058 A 
HETATM    2  C   UNK N   1      26.761  24.338  -4.749  0.00  0.00    -0.058 A 
HETATM    3  C   UNK N   1      28.111  23.868  -2.789  0.00  0.00     0.007 A 
HETATM    4  C   UNK N   1      29.057  23.603  -5.003  0.00  0.00     0.007 A 
HETATM    5  C   UNK N   1      26.895  24.256  -3.357  0.00  0.00     0.007 A 
HETATM    6  C   UNK N   1      27.844  24.009  -5.572  0.00  0.00     0.007 A 
ENDROOT
BRANCH   1   7
HETATM    7  C   UNK N   1      30.486  23.136  -2.997  0.00  0.00     0.041 C 
BRANCH   7   8
HETATM    8  C   UNK N   1      30.842  21.699  -3.366  0.00  0.00     0.039 C 
BRANCH   8   9
HETATM    9  C   UNK N   1      32.155  21.596  -4.152  0.00  0.00     0.066 C 
BRANCH   9  10
HETATM   10  N   UNK N   1      32.574  22.931  -4.544  0.00  0.00    -0.418 N 
HETATM   11  H   UNK N   1      32.400  23.690  -5.204  0.00  0.00     0.150 HD
HETATM   12  H   UNK N   1      33.329  23.222  -3.923  0.00  0.00     0.150 HD
ENDBRANCH   9  10
BRANCH   9  13
HETATM   13  C   UNK N   1      31.991  20.739  -5.407  0.00  0.00     0.196 C 
BRANCH  13  14
HETATM   14  O   UNK N   1      30.645  20.465  -5.656  0.00  0.00    -0.398 OA
HETATM   15  H   UNK N   1      30.234  19.914  -6.341  0.00  0.00     0.209 HD
ENDBRANCH  13  14
ENDBRANCH   9  13
BRANCH   9  16
HETATM   16  C   UNK N   1      33.243  20.970  -3.282  0.00  0.00     0.196 C 
BRANCH  16  17
HETATM   17  O   UNK N   1      32.913  21.064  -1.927  0.00  0.00    -0.398 OA
HETATM   18  H   UNK N   1      33.317  20.620  -1.165  0.00  0.00     0.209 HD
ENDBRANCH  16  17
ENDBRANCH   9  16
ENDBRANCH   8   9
ENDBRANCH   7   8
ENDBRANCH   1   7
BRANCH   2  19
HETATM   19  C   UNK N   1      25.457  24.744  -5.368  0.00  0.00     0.038 C 
BRANCH  19  20
HETATM   20  C   UNK N   1      25.620  25.941  -6.291  0.00  0.00     0.005 C 
BRANCH  20  21
HETATM   21  C   UNK N   1      24.775  27.086  -5.753  0.00  0.00     0.000 C 
BRANCH  21  22
HETATM   22  C   UNK N   1      25.404  27.675  -4.505  0.00  0.00     0.000 C 
BRANCH  22  23
HETATM   23  C   UNK N   1      26.728  28.326  -4.841  0.00  0.00     0.000 C 
BRANCH  23  24
HETATM   24  C   UNK N   1      27.784  27.861  -3.860  0.00  0.00    -0.000 C 
BRANCH  24  25
HETATM   25  C   UNK N   1      28.984  27.347  -4.627  0.00  0.00    -0.005 C 
HETATM   26  C   UNK N   1      30.132  27.111  -3.670  0.00  0.00     0.005 C 
ENDBRANCH  24  25
ENDBRANCH  23  24
ENDBRANCH  22  23
ENDBRANCH  21  22
ENDBRANCH  20  21
ENDBRANCH  19  20
ENDBRANCH   2  19
TORSDOF 15
ENDMDL
MODEL 4
REMARK VINA RESULT:      -5.4      8.027     12.571
REMARK  15 active torsions:
REMARK  status: ('A' for Active; 'I' for Inactive)
REMARK    1  A    between atoms: O_1  and  C_7 
REMARK    2  A    between atoms: O_2  and  C_8 
REMARK    3  A    between atoms: N_3  and  C_4 
REMARK    4  A    between atoms: C_4  and  C_5 
REMARK    5  A    between atoms: C_4  and  C_7 
REMARK    6  A    between atoms: C_4  and  C_8 
REMARK    7  A    between atoms: C_5  and  C_6 
REMARK    8  A    between atoms: C_6  and  C_12 
REMARK    9  A    between atoms: C_9  and  C_10 
REMARK   10  A    between atoms: C_9  and  C_11 
REMARK   11  A    between atoms: C_10  and  C_13 
REMARK   12  A    between atoms: C_11  and  C_14 
REMARK   13  A    between atoms: C_13  and  C_15 
REMARK   14  A    between atoms: C_14  and  C_16 
REMARK   15  A    between atoms: C_16  and  C_21 
ROOT
HETATM    1  C   UNK N   1      36.057  13.708  13.932  0.00  0.00    -0.058 A 
HETATM    2  C   UNK N   1      35.384  12.967  16.547  0.00  0.00    -0.058 A 
HETATM    3  C   UNK N   1      34.974  12.855  14.159  0.00  0.00     0.007 A 
HETATM    4  C   UNK N   1      36.806  14.190  15.012  0.00  0.00     0.007 A 
HETATM    5  C   UNK N   1      34.630  12.496  15.465  0.00  0.00     0.007 A 
HETATM    6  C   UNK N   1      36.473  13.816  16.319  0.00  0.00     0.007 A 
ENDROOT
BRANCH   1   7
HETATM    7  C   UNK N   1      36.425  14.073  12.537  0.00  0.00     0.041 C 
BRANCH   7   8
HETATM    8  C   UNK N   1      35.285  13.757  11.574  0.00  0.00     0.039 C 
BRANCH   8   9
HETATM    9  C   UNK N   1      35.104  14.832  10.495  0.00  0.00     0.066 C 
BRANCH   9  10
HETATM   10  N   UNK N   1      36.024  14.561   9.403  0.00  0.00    -0.418 N 
HETATM   11  H   UNK N   1      36.442  14.956   8.560  0.00  0.00     0.150 HD
HETATM   12  H   UNK N   1      36.394  13.618   9.527  0.00  0.00     0.150 HD
ENDBRANCH   9  10
BRANCH   9  13
HETATM   13  C   UNK N   1      35.382  16.230  11.044  0.00  0.00     0.196 C 
BRANCH  13  14
HETATM   14  O   UNK N   1      34.686  17.203  10.322  0.00  0.00    -0.398 OA
HETATM   15  H   UNK N   1      35.016  17.960   9.814  0.00  0.00     0.209 HD
ENDBRANCH  13  14
ENDBRANCH   9  13
BRANCH   9  16
HETATM   16  C   UNK N   1      33.675  14.803   9.958  0.00  0.00     0.196 C 
BRANCH  16  17
HETATM   17  O   UNK N   1      32.751  15.010  10.986  0.00  0.00    -0.398 OA
HETATM   18  H   UNK N   1      31.972  15.587  11.003  0.00  0.00     0.209 HD
ENDBRANCH  16  17
ENDBRANCH   9  16
ENDBRANCH   8   9
ENDBRANCH   7   8
ENDBRANCH   1   7
BRANCH   2  19
HETATM   19  C   UNK N   1      35.017  12.595  17.952  0.00  0.00     0.038 C 
BRANCH  19  20
HETATM   20  C   UNK N   1      35.695  11.307  18.390  0.00  0.00     0.005 C 
BRANCH  20  21
HETATM   21  C   UNK N   1      34.770  10.141  18.075  0.00  0.00     0.000 C 
BRANCH  21  22
HETATM   22  C   UNK N   1      35.442   9.164  17.129  0.00  0.00     0.000 C 
BRANCH  22  23
HETATM   23  C   UNK N   1      36.787   9.701  16.687  0.00  0.00     0.000 C 
BRANCH  23  24
HETATM   24  C   UNK N   1      36.956   9.481  15.199  0.00  0.00    -0.000 C 
BRANCH  24  25
HETATM   25  C   UNK N   1      37.948  10.486  14.655  0.00  0.00    -0.005 C 
HETATM   26  C   UNK N   1      37.771  10.612  13.158  0.00  0.00     0.005 C 
ENDBRANCH  24  25
ENDBRANCH  23  24
ENDBRANCH  22  23
ENDBRANCH  21  22
ENDBRANCH  20  21
ENDBRANCH  19  20
ENDBRANCH   2  19
TORSDOF 15
ENDMDL
MODEL 5
REMARK VINA RESULT:      -5.3     10.965     13.261
REMARK  15 active torsions:
REMARK  status: ('A' for Active; 'I' for Inactive)
REMARK    1  A    between atoms: O_1  and  C_7 
REMARK    2  A    between atoms: O_2  and  C_8 
REMARK    3  A    between atoms: N_3  and  C_4 
REMARK    4  A    between atoms: C_4  and  C_5 
REMARK    5  A    between atoms: C_4  and  C_7 
REMARK    6  A    between atoms: C_4  and  C_8 
REMARK    7  A    between atoms: C_5  and  C_6 
REMARK    8  A    between atoms: C_6  and  C_12 
REMARK    9  A    between atoms: C_9  and  C_10 
REMARK   10  A    between atoms: C_9  and  C_11 
REMARK   11  A    between atoms: C_10  and  C_13 
REMARK   12  A    between atoms: C_11  and  C_14 
REMARK   13  A    between atoms: C_13  and  C_15 
REMARK   14  A    between atoms: C_14  and  C_16 
REMARK   15  A    between atoms: C_16  and  C_21 
ROOT
HETATM    1  C   UNK N   1      28.798  23.904  -3.223  0.00  0.00    -0.058 A 
HETATM    2  C   UNK N   1      27.358  26.088  -4.220  0.00  0.00    -0.058 A 
HETATM    3  C   UNK N   1      29.470  24.952  -3.855  0.00  0.00     0.007 A 
HETATM    4  C   UNK N   1      27.405  23.944  -3.090  0.00  0.00     0.007 A 
HETATM    5  C   UNK N   1      28.753  26.049  -4.340  0.00  0.00     0.007 A 
HETATM    6  C   UNK N   1      26.685  25.035  -3.593  0.00  0.00     0.007 A 
ENDROOT
BRANCH   1   7
HETATM    7  C   UNK N   1      29.568  22.733  -2.721  0.00  0.00     0.041 C 
BRANCH   7   8
HETATM    8  C   UNK N   1      31.068  22.965  -2.872  0.00  0.00     0.039 C 
BRANCH   8   9
HETATM    9  C   UNK N   1      31.728  21.976  -3.842  0.00  0.00     0.066 C 
BRANCH   9  10
HETATM   10  N   UNK N   1      32.028  22.667  -5.085  0.00  0.00    -0.418 N 
HETATM   11  H   UNK N   1      32.333  22.533  -6.050  0.00  0.00     0.150 HD
HETATM   12  H   UNK N   1      31.875  23.665  -4.938  0.00  0.00     0.150 HD
ENDBRANCH   9  10
BRANCH   9  13
HETATM   13  C   UNK N   1      30.812  20.790  -4.142  0.00  0.00     0.196 C 
BRANCH  13  14
HETATM   14  O   UNK N   1      31.526  19.589  -4.140  0.00  0.00    -0.398 OA
HETATM   15  H   UNK N   1      31.252  18.699  -3.872  0.00  0.00     0.209 HD
ENDBRANCH  13  14
ENDBRANCH   9  13
BRANCH   9  16
HETATM   16  C   UNK N   1      33.027  21.440  -3.246  0.00  0.00     0.196 C 
BRANCH  16  17
HETATM   17  O   UNK N   1      32.863  21.126  -1.894  0.00  0.00    -0.398 OA
HETATM   18  H   UNK N   1      33.258  20.406  -1.379  0.00  0.00     0.209 HD
ENDBRANCH  16  17
ENDBRANCH   9  16
ENDBRANCH   8   9
ENDBRANCH   7   8
ENDBRANCH   1   7
BRANCH   2  19
HETATM   19  C   UNK N   1      26.581  27.265  -4.730  0.00  0.00     0.038 C 
BRANCH  19  20
HETATM   20  C   UNK N   1      26.813  27.493  -6.215  0.00  0.00     0.005 C 
BRANCH  20  21
HETATM   21  C   UNK N   1      25.816  26.649  -6.996  0.00  0.00     0.000 C 
BRANCH  21  22
HETATM   22  C   UNK N   1      26.496  25.427  -7.585  0.00  0.00     0.000 C 
BRANCH  22  23
HETATM   23  C   UNK N   1      25.645  24.195  -7.364  0.00  0.00     0.000 C 
BRANCH  23  24
HETATM   24  C   UNK N   1      26.459  23.140  -6.643  0.00  0.00    -0.000 C 
BRANCH  24  25
HETATM   25  C   UNK N   1      27.932  23.426  -6.841  0.00  0.00    -0.005 C 
HETATM   26  C   UNK N   1      28.718  22.139  -6.713  0.00  0.00     0.005 C 
ENDBRANCH  24  25
ENDBRANCH  23  24
ENDBRANCH  22  23
ENDBRANCH  21  22
ENDBRANCH  20  21
ENDBRANCH  19  20
ENDBRANCH   2  19
TORSDOF 15
ENDMDL
MODEL 6
REMARK VINA RESULT:      -5.2     11.136     14.798
REMARK  15 active torsions:
REMARK  status: ('A' for Active; 'I' for Inactive)
REMARK    1  A    between atoms: O_1  and  C_7 
REMARK    2  A    between atoms: O_2  and  C_8 
REMARK    3  A    between atoms: N_3  and  C_4 
REMARK    4  A    between atoms: C_4  and  C_5 
REMARK    5  A    between atoms: C_4  and  C_7 
REMARK    6  A    between atoms: C_4  and  C_8 
REMARK    7  A    between atoms: C_5  and  C_6 
REMARK    8  A    between atoms: C_6  and  C_12 
REMARK    9  A    between atoms: C_9  and  C_10 
REMARK   10  A    between atoms: C_9  and  C_11 
REMARK   11  A    between atoms: C_10  and  C_13 
REMARK   12  A    between atoms: C_11  and  C_14 
REMARK   13  A    between atoms: C_13  and  C_15 
REMARK   14  A    between atoms: C_14  and  C_16 
REMARK   15  A    between atoms: C_16  and  C_21 
ROOT
HETATM    1  C   UNK N   1      35.336  12.686  16.731  0.00  0.00    -0.058 A 
HETATM    2  C   UNK N   1      35.470  11.348  19.187  0.00  0.00    -0.058 A 
HETATM    3  C   UNK N   1      35.638  11.323  16.767  0.00  0.00     0.007 A 
HETATM    4  C   UNK N   1      35.103  13.383  17.922  0.00  0.00     0.007 A 
HETATM    5  C   UNK N   1      35.691  10.652  17.992  0.00  0.00     0.007 A 
HETATM    6  C   UNK N   1      35.174  12.715  19.151  0.00  0.00     0.007 A 
ENDROOT
BRANCH   1   7
HETATM    7  C   UNK N   1      35.295  13.395  15.423  0.00  0.00     0.041 C 
BRANCH   7   8
HETATM    8  C   UNK N   1      36.497  13.018  14.563  0.00  0.00     0.039 C 
BRANCH   8   9
HETATM    9  C   UNK N   1      36.342  13.456  13.101  0.00  0.00     0.066 C 
BRANCH   9  10
HETATM   10  N   UNK N   1      37.548  13.098  12.373  0.00  0.00    -0.418 N 
HETATM   11  H   UNK N   1      38.260  13.451  11.733  0.00  0.00     0.150 HD
HETATM   12  H   UNK N   1      37.767  12.124  12.583  0.00  0.00     0.150 HD
ENDBRANCH   9  10
BRANCH   9  13
HETATM   13  C   UNK N   1      36.124  14.965  12.988  0.00  0.00     0.196 C 
BRANCH  13  14
HETATM   14  O   UNK N   1      36.565  15.446  11.753  0.00  0.00    -0.398 OA
HETATM   15  H   UNK N   1      36.533  15.037  10.875  0.00  0.00     0.209 HD
ENDBRANCH  13  14
ENDBRANCH   9  13
BRANCH   9  16
HETATM   16  C   UNK N   1      35.149  12.749  12.463  0.00  0.00     0.196 C 
BRANCH  16  17
HETATM   17  O   UNK N   1      34.215  13.675  11.991  0.00  0.00    -0.398 OA
HETATM   18  H   UNK N   1      34.348  14.596  11.716  0.00  0.00     0.209 HD
ENDBRANCH  16  17
ENDBRANCH   9  16
ENDBRANCH   8   9
ENDBRANCH   7   8
ENDBRANCH   1   7
BRANCH   2  19
HETATM   19  C   UNK N   1      35.516  10.636  20.505  0.00  0.00     0.038 C 
BRANCH  19  20
HETATM   20  C   UNK N   1      34.130  10.217  20.969  0.00  0.00     0.005 C 
BRANCH  20  21
HETATM   21  C   UNK N   1      33.949   8.734  20.681  0.00  0.00     0.000 C 
BRANCH  21  22
HETATM   22  C   UNK N   1      32.960   8.525  19.550  0.00  0.00     0.000 C 
BRANCH  22  23
HETATM   23  C   UNK N   1      31.551   8.815  20.024  0.00  0.00     0.000 C 
BRANCH  23  24
HETATM   24  C   UNK N   1      30.991   7.595  20.724  0.00  0.00    -0.000 C 
BRANCH  24  25
HETATM   25  C   UNK N   1      31.211   6.376  19.854  0.00  0.00    -0.005 C 
HETATM   26  C   UNK N   1      31.158   5.128  20.709  0.00  0.00     0.005 C 
ENDBRANCH  24  25
ENDBRANCH  23  24
ENDBRANCH  22  23
ENDBRANCH  21  22
ENDBRANCH  20  21
ENDBRANCH  19  20
ENDBRANCH   2  19
TORSDOF 15
ENDMDL
MODEL 7
REMARK VINA RESULT:      -5.2     14.505     16.648
REMARK  15 active torsions:
REMARK  status: ('A' for Active; 'I' for Inactive)
REMARK    1  A    between atoms: O_1  and  C_7 
REMARK    2  A    between atoms: O_2  and  C_8 
REMARK    3  A    between atoms: N_3  and  C_4 
REMARK    4  A    between atoms: C_4  and  C_5 
REMARK    5  A    between atoms: C_4  and  C_7 
REMARK    6  A    between atoms: C_4  and  C_8 
REMARK    7  A    between atoms: C_5  and  C_6 
REMARK    8  A    between atoms: C_6  and  C_12 
REMARK    9  A    between atoms: C_9  and  C_10 
REMARK   10  A    between atoms: C_9  and  C_11 
REMARK   11  A    between atoms: C_10  and  C_13 
REMARK   12  A    between atoms: C_11  and  C_14 
REMARK   13  A    between atoms: C_13  and  C_15 
REMARK   14  A    between atoms: C_14  and  C_16 
REMARK   15  A    between atoms: C_16  and  C_21 
ROOT
HETATM    1  C   UNK N   1      25.861  24.662  -5.347  0.00  0.00    -0.058 A 
HETATM    2  C   UNK N   1      25.878  27.239  -4.254  0.00  0.00    -0.058 A 
HETATM    3  C   UNK N   1      26.463  24.889  -4.108  0.00  0.00     0.007 A 
HETATM    4  C   UNK N   1      25.268  25.722  -6.043  0.00  0.00     0.007 A 
HETATM    5  C   UNK N   1      26.460  26.173  -3.556  0.00  0.00     0.007 A 
HETATM    6  C   UNK N   1      25.280  27.012  -5.498  0.00  0.00     0.007 A 
ENDROOT
BRANCH   1   7
HETATM    7  C   UNK N   1      25.882  23.295  -5.935  0.00  0.00     0.041 C 
BRANCH   7   8
HETATM    8  C   UNK N   1      26.704  23.267  -7.219  0.00  0.00     0.039 C 
BRANCH   8   9
HETATM    9  C   UNK N   1      25.871  22.891  -8.451  0.00  0.00     0.066 C 
BRANCH   9  10
HETATM   10  N   UNK N   1      24.475  22.790  -8.060  0.00  0.00    -0.418 N 
HETATM   11  H   UNK N   1      23.799  22.213  -7.557  0.00  0.00     0.150 HD
HETATM   12  H   UNK N   1      23.983  23.605  -8.427  0.00  0.00     0.150 HD
ENDBRANCH   9  10
BRANCH   9  13
HETATM   13  C   UNK N   1      26.319  21.555  -9.043  0.00  0.00     0.196 C 
BRANCH  13  14
HETATM   14  O   UNK N   1      25.261  20.911  -9.688  0.00  0.00    -0.398 OA
HETATM   15  H   UNK N   1      24.701  21.208 -10.422  0.00  0.00     0.209 HD
ENDBRANCH  13  14
ENDBRANCH   9  13
BRANCH   9  16
HETATM   16  C   UNK N   1      26.008  23.964  -9.528  0.00  0.00     0.196 C 
BRANCH  16  17
HETATM   17  O   UNK N   1      24.755  24.451  -9.909  0.00  0.00    -0.398 OA
HETATM   18  H   UNK N   1      23.980  23.965 -10.231  0.00  0.00     0.209 HD
ENDBRANCH  16  17
ENDBRANCH   9  16
ENDBRANCH   8   9
ENDBRANCH   7   8
ENDBRANCH   1   7
BRANCH   2  19
HETATM   19  C   UNK N   1      25.861  28.618  -3.665  0.00  0.00     0.038 C 
BRANCH  19  20
HETATM   20  C   UNK N   1      27.246  29.246  -3.660  0.00  0.00     0.005 C 
BRANCH  20  21
HETATM   21  C   UNK N   1      27.460  29.956  -4.989  0.00  0.00     0.000 C 
BRANCH  21  22
HETATM   22  C   UNK N   1      28.610  29.327  -5.752  0.00  0.00     0.000 C 
BRANCH  22  23
HETATM   23  C   UNK N   1      28.130  28.801  -7.087  0.00  0.00     0.000 C 
BRANCH  23  24
HETATM   24  C   UNK N   1      28.443  27.323  -7.192  0.00  0.00    -0.000 C 
BRANCH  24  25
HETATM   25  C   UNK N   1      29.222  26.891  -5.968  0.00  0.00    -0.005 C 
HETATM   26  C   UNK N   1      29.533  25.413  -6.062  0.00  0.00     0.005 C 
ENDBRANCH  24  25
ENDBRANCH  23  24
ENDBRANCH  22  23
ENDBRANCH  21  22
ENDBRANCH  20  21
ENDBRANCH  19  20
ENDBRANCH   2  19
TORSDOF 15
ENDMDL
MODEL 8
REMARK VINA RESULT:      -5.2      4.042      6.148
REMARK  15 active torsions:
REMARK  status: ('A' for Active; 'I' for Inactive)
REMARK    1  A    between atoms: O_1  and  C_7 
REMARK    2  A    between atoms: O_2  and  C_8 
REMARK    3  A    between atoms: N_3  and  C_4 
REMARK    4  A    between atoms: C_4  and  C_5 
REMARK    5  A    between atoms: C_4  and  C_7 
REMARK    6  A    between atoms: C_4  and  C_8 
REMARK    7  A    between atoms: C_5  and  C_6 
REMARK    8  A    between atoms: C_6  and  C_12 
REMARK    9  A    between atoms: C_9  and  C_10 
REMARK   10  A    between atoms: C_9  and  C_11 
REMARK   11  A    between atoms: C_10  and  C_13 
REMARK   12  A    between atoms: C_11  and  C_14 
REMARK   13  A    between atoms: C_13  and  C_15 
REMARK   14  A    between atoms: C_14  and  C_16 
REMARK   15  A    between atoms: C_16  and  C_21 
ROOT
HETATM    1  C   UNK N   1      34.310  16.329   9.343  0.00  0.00    -0.058 A 
HETATM    2  C   UNK N   1      31.984  16.978   7.926  0.00  0.00    -0.058 A 
HETATM    3  C   UNK N   1      34.172  17.596   8.771  0.00  0.00     0.007 A 
HETATM    4  C   UNK N   1      33.288  15.383   9.205  0.00  0.00     0.007 A 
HETATM    5  C   UNK N   1      33.006  17.924   8.076  0.00  0.00     0.007 A 
HETATM    6  C   UNK N   1      32.126  15.707   8.493  0.00  0.00     0.007 A 
ENDROOT
BRANCH   1   7
HETATM    7  C   UNK N   1      35.562  15.983  10.069  0.00  0.00     0.041 C 
BRANCH   7   8
HETATM    8  C   UNK N   1      35.273  15.682  11.537  0.00  0.00     0.039 C 
BRANCH   8   9
HETATM    9  C   UNK N   1      35.956  14.398  12.026  0.00  0.00     0.066 C 
BRANCH   9  10
HETATM   10  N   UNK N   1      37.182  14.202  11.270  0.00  0.00    -0.418 N 
HETATM   11  H   UNK N   1      37.672  13.560  10.646  0.00  0.00     0.150 HD
HETATM   12  H   UNK N   1      37.781  15.014  11.420  0.00  0.00     0.150 HD
ENDBRANCH   9  10
BRANCH   9  13
HETATM   13  C   UNK N   1      35.056  13.178  11.838  0.00  0.00     0.196 C 
BRANCH  13  14
HETATM   14  O   UNK N   1      34.402  12.847  13.027  0.00  0.00    -0.398 OA
HETATM   15  H   UNK N   1      33.500  12.524  13.176  0.00  0.00     0.209 HD
ENDBRANCH  13  14
ENDBRANCH   9  13
BRANCH   9  16
HETATM   16  C   UNK N   1      36.301  14.517  13.508  0.00  0.00     0.196 C 
BRANCH  16  17
HETATM   17  O   UNK N   1      37.101  13.448  13.921  0.00  0.00    -0.398 OA
HETATM   18  H   UNK N   1      37.352  13.180  14.819  0.00  0.00     0.209 HD
ENDBRANCH  16  17
ENDBRANCH   9  16
ENDBRANCH   8   9
ENDBRANCH   7   8
ENDBRANCH   1   7
BRANCH   2  19
HETATM   19  C   UNK N   1      30.725  17.323   7.190  0.00  0.00     0.038 C 
BRANCH  19  20
HETATM   20  C   UNK N   1      30.582  16.518   5.908  0.00  0.00     0.005 C 
BRANCH  20  21
HETATM   21  C   UNK N   1      30.799  17.450   4.724  0.00  0.00     0.000 C 
BRANCH  21  22
HETATM   22  C   UNK N   1      32.279  17.606   4.431  0.00  0.00     0.000 C 
BRANCH  22  23
HETATM   23  C   UNK N   1      32.705  16.642   3.344  0.00  0.00     0.000 C 
BRANCH  23  24
HETATM   24  C   UNK N   1      33.582  15.562   3.941  0.00  0.00    -0.000 C 
BRANCH  24  25
HETATM   25  C   UNK N   1      34.207  16.077   5.219  0.00  0.00    -0.005 C 
HETATM   26  C   UNK N   1      34.970  14.959   5.895  0.00  0.00     0.005 C 
ENDBRANCH  24  25
ENDBRANCH  23  24
ENDBRANCH  22  23
ENDBRANCH  21  22
ENDBRANCH  20  21
ENDBRANCH  19  20
ENDBRANCH   2  19
TORSDOF 15
ENDMDL
MODEL 9
REMARK VINA RESULT:      -5.2      2.351      3.541
REMARK  15 active torsions:
REMARK  status: ('A' for Active; 'I' for Inactive)
REMARK    1  A    between atoms: O_1  and  C_7 
REMARK    2  A    between atoms: O_2  and  C_8 
REMARK    3  A    between atoms: N_3  and  C_4 
REMARK    4  A    between atoms: C_4  and  C_5 
REMARK    5  A    between atoms: C_4  and  C_7 
REMARK    6  A    between atoms: C_4  and  C_8 
REMARK    7  A    between atoms: C_5  and  C_6 
REMARK    8  A    between atoms: C_6  and  C_12 
REMARK    9  A    between atoms: C_9  and  C_10 
REMARK   10  A    between atoms: C_9  and  C_11 
REMARK   11  A    between atoms: C_10  and  C_13 
REMARK   12  A    between atoms: C_11  and  C_14 
REMARK   13  A    between atoms: C_13  and  C_15 
REMARK   14  A    between atoms: C_14  and  C_16 
REMARK   15  A    between atoms: C_16  and  C_21 
ROOT
HETATM    1  C   UNK N   1      33.268  16.798   6.695  0.00  0.00    -0.058 A 
HETATM    2  C   UNK N   1      31.172  16.762   4.840  0.00  0.00    -0.058 A 
HETATM    3  C   UNK N   1      32.132  16.024   6.942  0.00  0.00     0.007 A 
HETATM    4  C   UNK N   1      33.358  17.557   5.523  0.00  0.00     0.007 A 
HETATM    5  C   UNK N   1      31.092  15.995   6.010  0.00  0.00     0.007 A 
HETATM    6  C   UNK N   1      32.307  17.542   4.597  0.00  0.00     0.007 A 
ENDROOT
BRANCH   1   7
HETATM    7  C   UNK N   1      34.365  16.834   7.701  0.00  0.00     0.041 C 
BRANCH   7   8
HETATM    8  C   UNK N   1      34.469  15.504   8.440  0.00  0.00     0.039 C 
BRANCH   8   9
HETATM    9  C   UNK N   1      34.873  15.671   9.910  0.00  0.00     0.066 C 
BRANCH   9  10
HETATM   10  N   UNK N   1      34.797  17.079  10.261  0.00  0.00    -0.418 N 
HETATM   11  H   UNK N   1      34.965  18.025   9.916  0.00  0.00     0.150 HD
HETATM   12  H   UNK N   1      34.439  17.149  11.214  0.00  0.00     0.150 HD
ENDBRANCH   9  10
BRANCH   9  13
HETATM   13  C   UNK N   1      36.295  15.172  10.161  0.00  0.00     0.196 C 
BRANCH  13  14
HETATM   14  O   UNK N   1      37.050  16.127  10.846  0.00  0.00    -0.398 OA
HETATM   15  H   UNK N   1      36.849  16.618  11.658  0.00  0.00     0.209 HD
ENDBRANCH  13  14
ENDBRANCH   9  13
BRANCH   9  16
HETATM   16  C   UNK N   1      33.922  14.884  10.810  0.00  0.00     0.196 C 
BRANCH  16  17
HETATM   17  O   UNK N   1      32.593  15.081  10.425  0.00  0.00    -0.398 OA
HETATM   18  H   UNK N   1      31.969  14.453  10.028  0.00  0.00     0.209 HD
ENDBRANCH  16  17
ENDBRANCH   9  16
ENDBRANCH   8   9
ENDBRANCH   7   8
ENDBRANCH   1   7
BRANCH   2  19
HETATM   19  C   UNK N   1      30.065  16.730   3.830  0.00  0.00     0.038 C 
BRANCH  19  20
HETATM   20  C   UNK N   1      28.719  17.059   4.457  0.00  0.00     0.005 C 
BRANCH  20  21
HETATM   21  C   UNK N   1      28.679  18.548   4.764  0.00  0.00     0.000 C 
BRANCH  21  22
HETATM   22  C   UNK N   1      28.118  18.793   6.152  0.00  0.00     0.000 C 
BRANCH  22  23
HETATM   23  C   UNK N   1      27.733  17.482   6.803  0.00  0.00     0.000 C 
BRANCH  23  24
HETATM   24  C   UNK N   1      28.584  17.259   8.035  0.00  0.00    -0.000 C 
BRANCH  24  25
HETATM   25  C   UNK N   1      28.385  18.414   8.994  0.00  0.00    -0.005 C 
HETATM   26  C   UNK N   1      29.659  18.645   9.778  0.00  0.00     0.005 C 
ENDBRANCH  24  25
ENDBRANCH  23  24
ENDBRANCH  22  23
ENDBRANCH  21  22
ENDBRANCH  20  21
ENDBRANCH  19  20
ENDBRANCH   2  19
TORSDOF 15
ENDMDL
