MODEL 1
REMARK VINA RESULT:      -6.2      0.000      0.000
REMARK  12 active torsions:
REMARK  status: ('A' for Active; 'I' for Inactive)
REMARK    1  A    between atoms: C_2  and  C_4 
REMARK    2  A    between atoms: C_4  and  O_5 
REMARK    3  A    between atoms: C_4  and  O_11 
REMARK    4  A    between atoms: O_5  and  C_6 
REMARK    5  A    between atoms: C_6  and  C_8 
REMARK    6  A    between atoms: O_11  and  C_12 
REMARK       I    between atoms: C_12  and  N_14 
REMARK    7  A    between atoms: N_14  and  C_15 
REMARK    8  A    between atoms: C_16  and  C_15 
REMARK    9  A    between atoms: C_16  and  C_17 
REMARK   10  A    between atoms: C_16  and  C_21 
REMARK   11  A    between atoms: C_17  and  C_18 
REMARK   12  A    between atoms: C_18  and  O_20 
ROOT
HETATM    1  C   UNK N   1      26.760  25.229  -3.492  0.00  0.00     0.362 C 
HETATM    2  O   UNK N   1      25.773  24.647  -3.932  0.00  0.00    -0.238 OA
HETATM    3  N   UNK N   1      26.824  26.573  -3.525  0.00  0.00    -0.336 N 
HETATM    4  H   UNK N   1      27.631  27.020  -3.181  0.00  0.00     0.164 HD
ENDROOT
BRANCH   3   5
HETATM    5  C   UNK N   1      25.752  27.377  -4.046  0.00  0.00     0.135 C 
BRANCH   5   6
HETATM    6  C   UNK N   1      26.353  28.274  -5.106  0.00  0.00     0.046 C 
BRANCH   6   7
HETATM    7  C   UNK N   1      27.411  29.250  -4.583  0.00  0.00     0.120 C 
BRANCH   7   8
HETATM    8  C   UNK N   1      26.973  29.897  -3.300  0.00  0.00     0.140 C 
HETATM    9  O   UNK N   1      26.187  30.832  -3.316  0.00  0.00    -0.650 OA
BRANCH   8  10
HETATM   10  O   UNK N   1      27.449  29.446  -2.125  0.00  0.00    -0.776 OA
HETATM   11  H   UNK N   1      27.267  29.294  -1.219  0.00  0.00     0.167 HD
ENDBRANCH   8  10
ENDBRANCH   7   8
ENDBRANCH   6   7
BRANCH   6  12
HETATM   12  C   UNK N   1      26.634  27.571  -6.408  0.00  0.00    -0.052 A 
HETATM   13  C   UNK N   1      27.723  27.939  -7.212  0.00  0.00     0.009 A 
HETATM   14  C   UNK N   1      27.915  27.330  -8.457  0.00  0.00     0.024 A 
HETATM   15  C   UNK N   1      27.020  26.352  -8.905  0.00  0.00     0.034 A 
HETATM   16  C   UNK N   1      25.936  25.980  -8.109  0.00  0.00     0.024 A 
HETATM   17 Cl   UNK N   1      27.246  25.606 -10.471  0.00  0.00    -0.084 Cl
HETATM   18  C   UNK N   1      25.739  26.594  -6.873  0.00  0.00     0.009 A 
ENDBRANCH   6  12
ENDBRANCH   5   6
ENDBRANCH   3   5
BRANCH   1  19
HETATM   19  O   UNK N   1      27.825  24.530  -3.029  0.00  0.00    -0.272 OA
BRANCH  19  20
HETATM   20  C   UNK N   1      28.776  23.943  -3.845  0.00  0.00     0.284 C 
BRANCH  20  21
HETATM   21  C   UNK N   1      28.720  24.401  -5.304  0.00  0.00     0.034 C 
HETATM   22  C   UNK N   1      29.921  25.238  -5.704  0.00  0.00     0.014 C 
HETATM   23  C   UNK N   1      28.629  23.193  -6.218  0.00  0.00     0.014 C 
ENDBRANCH  20  21
BRANCH  20  24
HETATM   24  O   UNK N   1      30.033  24.055  -3.282  0.00  0.00    -0.288 OA
BRANCH  24  25
HETATM   25  C   UNK N   1      30.588  23.063  -2.549  0.00  0.00     0.264 C 
HETATM   26  O   UNK N   1      30.345  23.000  -1.353  0.00  0.00    -0.265 OA
BRANCH  25  27
HETATM   27  C   UNK N   1      31.489  22.040  -3.183  0.00  0.00     0.077 C 
HETATM   28  C   UNK N   1      30.668  20.955  -3.850  0.00  0.00     0.020 C 
HETATM   29  C   UNK N   1      32.417  22.685  -4.195  0.00  0.00     0.020 C 
ENDBRANCH  25  27
ENDBRANCH  24  25
ENDBRANCH  20  24
ENDBRANCH  19  20
ENDBRANCH   1  19
TORSDOF 12
ENDMDL
MODEL 2
REMARK VINA RESULT:      -6.2     17.399     21.218
REMARK  12 active torsions:
REMARK  status: ('A' for Active; 'I' for Inactive)
REMARK    1  A    between atoms: C_2  and  C_4 
REMARK    2  A    between atoms: C_4  and  O_5 
REMARK    3  A    between atoms: C_4  and  O_11 
REMARK    4  A    between atoms: O_5  and  C_6 
REMARK    5  A    between atoms: C_6  and  C_8 
REMARK    6  A    between atoms: O_11  and  C_12 
REMARK       I    between atoms: C_12  and  N_14 
REMARK    7  A    between atoms: N_14  and  C_15 
REMARK    8  A    between atoms: C_16  and  C_15 
REMARK    9  A    between atoms: C_16  and  C_17 
REMARK   10  A    between atoms: C_16  and  C_21 
REMARK   11  A    between atoms: C_17  and  C_18 
REMARK   12  A    between atoms: C_18  and  O_20 
ROOT
HETATM    1  C   UNK N   1      35.834  11.689  10.674  0.00  0.00     0.362 C 
HETATM    2  O   UNK N   1      36.600  11.322   9.787  0.00  0.00    -0.238 OA
HETATM    3  N   UNK N   1      35.163  12.849  10.551  0.00  0.00    -0.336 N 
HETATM    4  H   UNK N   1      34.565  13.134  11.280  0.00  0.00     0.164 HD
ENDROOT
BRANCH   3   5
HETATM    5  C   UNK N   1      35.290  13.687   9.390  0.00  0.00     0.135 C 
BRANCH   5   6
HETATM    6  C   UNK N   1      34.258  14.784   9.526  0.00  0.00     0.046 C 
BRANCH   6   7
HETATM    7  C   UNK N   1      34.446  15.680  10.754  0.00  0.00     0.120 C 
BRANCH   7   8
HETATM    8  C   UNK N   1      35.648  16.569  10.606  0.00  0.00     0.140 C 
HETATM    9  O   UNK N   1      35.531  17.697  10.152  0.00  0.00    -0.650 OA
BRANCH   8  10
HETATM   10  O   UNK N   1      36.862  16.121  10.973  0.00  0.00    -0.776 OA
HETATM   11  H   UNK N   1      37.680  15.767  10.686  0.00  0.00     0.167 HD
ENDBRANCH   8  10
ENDBRANCH   7   8
ENDBRANCH   6   7
BRANCH   6  12
HETATM   12  C   UNK N   1      33.905  15.452   8.223  0.00  0.00    -0.052 A 
HETATM   13  C   UNK N   1      34.703  15.286   7.082  0.00  0.00     0.009 A 
HETATM   14  C   UNK N   1      34.402  15.984   5.907  0.00  0.00     0.024 A 
HETATM   15  C   UNK N   1      33.305  16.850   5.866  0.00  0.00     0.034 A 
HETATM   16  C   UNK N   1      32.505  17.018   6.998  0.00  0.00     0.024 A 
HETATM   17 Cl   UNK N   1      32.941  17.740   4.405  0.00  0.00    -0.084 Cl
HETATM   18  C   UNK N   1      32.810  16.331   8.173  0.00  0.00     0.009 A 
ENDBRANCH   6  12
ENDBRANCH   5   6
ENDBRANCH   3   5
BRANCH   1  19
HETATM   19  O   UNK N   1      35.704  10.970  11.815  0.00  0.00    -0.272 OA
BRANCH  19  20
HETATM   20  C   UNK N   1      35.497  11.532  13.062  0.00  0.00     0.284 C 
BRANCH  20  21
HETATM   21  C   UNK N   1      35.058  10.534  14.136  0.00  0.00     0.034 C 
HETATM   22  C   UNK N   1      33.619  10.738  14.575  0.00  0.00     0.014 C 
HETATM   23  C   UNK N   1      35.225   9.118  13.619  0.00  0.00     0.014 C 
ENDBRANCH  20  21
BRANCH  20  24
HETATM   24  O   UNK N   1      36.587  12.295  13.436  0.00  0.00    -0.288 OA
BRANCH  24  25
HETATM   25  C   UNK N   1      36.454  13.510  14.016  0.00  0.00     0.264 C 
HETATM   26  O   UNK N   1      36.028  14.443  13.351  0.00  0.00    -0.265 OA
BRANCH  25  27
HETATM   27  C   UNK N   1      36.814  13.724  15.460  0.00  0.00     0.077 C 
HETATM   28  C   UNK N   1      37.267  15.152  15.686  0.00  0.00     0.020 C 
HETATM   29  C   UNK N   1      35.640  13.403  16.367  0.00  0.00     0.020 C 
ENDBRANCH  25  27
ENDBRANCH  24  25
ENDBRANCH  20  24
ENDBRANCH  19  20
ENDBRANCH   1  19
TORSDOF 12
ENDMDL
MODEL 3
REMARK VINA RESULT:      -6.1      3.104      7.274
REMARK  12 active torsions:
REMARK  status: ('A' for Active; 'I' for Inactive)
REMARK    1  A    between atoms: C_2  and  C_4 
REMARK    2  A    between atoms: C_4  and  O_5 
REMARK    3  A    between atoms: C_4  and  O_11 
REMARK    4  A    between atoms: O_5  and  C_6 
REMARK    5  A    between atoms: C_6  and  C_8 
REMARK    6  A    between atoms: O_11  and  C_12 
REMARK       I    between atoms: C_12  and  N_14 
REMARK    7  A    between atoms: N_14  and  C_15 
REMARK    8  A    between atoms: C_16  and  C_15 
REMARK    9  A    between atoms: C_16  and  C_17 
REMARK   10  A    between atoms: C_16  and  C_21 
REMARK   11  A    between atoms: C_17  and  C_18 
REMARK   12  A    between atoms: C_18  and  O_20 
ROOT
HETATM    1  C   UNK N   1      30.492  23.303  -2.915  0.00  0.00     0.362 C 
HETATM    2  O   UNK N   1      30.701  22.818  -1.807  0.00  0.00    -0.238 OA
HETATM    3  N   UNK N   1      30.431  22.509  -4.001  0.00  0.00    -0.336 N 
HETATM    4  H   UNK N   1      30.277  22.920  -4.883  0.00  0.00     0.164 HD
ENDROOT
BRANCH   3   5
HETATM    5  C   UNK N   1      30.581  21.083  -3.915  0.00  0.00     0.135 C 
BRANCH   5   6
HETATM    6  C   UNK N   1      31.720  20.706  -4.836  0.00  0.00     0.046 C 
BRANCH   6   7
HETATM    7  C   UNK N   1      32.830  19.889  -4.168  0.00  0.00     0.120 C 
BRANCH   7   8
HETATM    8  C   UNK N   1      33.636  20.732  -3.221  0.00  0.00     0.140 C 
HETATM    9  O   UNK N   1      34.753  21.115  -3.532  0.00  0.00    -0.650 OA
BRANCH   8  10
HETATM   10  O   UNK N   1      33.125  21.067  -2.022  0.00  0.00    -0.776 OA
HETATM   11  H   UNK N   1      33.311  21.274  -1.128  0.00  0.00     0.167 HD
ENDBRANCH   8  10
ENDBRANCH   7   8
ENDBRANCH   6   7
BRANCH   6  12
HETATM   12  C   UNK N   1      31.274  20.283  -6.211  0.00  0.00    -0.052 A 
HETATM   13  C   UNK N   1      29.915  20.248  -6.557  0.00  0.00     0.009 A 
HETATM   14  C   UNK N   1      29.521  19.771  -7.811  0.00  0.00     0.024 A 
HETATM   15  C   UNK N   1      30.481  19.326  -8.726  0.00  0.00     0.034 A 
HETATM   16  C   UNK N   1      31.835  19.360  -8.390  0.00  0.00     0.024 A 
HETATM   17 Cl   UNK N   1      29.988  18.708 -10.287  0.00  0.00    -0.084 Cl
HETATM   18  C   UNK N   1      32.228  19.826  -7.135  0.00  0.00     0.009 A 
ENDBRANCH   6  12
ENDBRANCH   5   6
ENDBRANCH   3   5
BRANCH   1  19
HETATM   19  O   UNK N   1      30.388  24.645  -3.074  0.00  0.00    -0.272 OA
BRANCH  19  20
HETATM   20  C   UNK N   1      29.259  25.279  -3.561  0.00  0.00     0.284 C 
BRANCH  20  21
HETATM   21  C   UNK N   1      29.553  26.481  -4.461  0.00  0.00     0.034 C 
HETATM   22  C   UNK N   1      29.384  26.167  -5.936  0.00  0.00     0.014 C 
HETATM   23  C   UNK N   1      28.643  27.636  -4.090  0.00  0.00     0.014 C 
ENDBRANCH  20  21
BRANCH  20  24
HETATM   24  O   UNK N   1      28.398  24.363  -4.134  0.00  0.00    -0.288 OA
BRANCH  24  25
HETATM   25  C   UNK N   1      27.095  24.276  -3.781  0.00  0.00     0.264 C 
HETATM   26  O   UNK N   1      26.804  24.195  -2.597  0.00  0.00    -0.265 OA
BRANCH  25  27
HETATM   27  C   UNK N   1      26.007  24.286  -4.819  0.00  0.00     0.077 C 
HETATM   28  C   UNK N   1      25.641  25.709  -5.187  0.00  0.00     0.020 C 
HETATM   29  C   UNK N   1      26.433  23.521  -6.059  0.00  0.00     0.020 C 
ENDBRANCH  25  27
ENDBRANCH  24  25
ENDBRANCH  20  24
ENDBRANCH  19  20
ENDBRANCH   1  19
TORSDOF 12
ENDMDL
MODEL 4
REMARK VINA RESULT:      -6.1     12.065     15.104
REMARK  12 active torsions:
REMARK  status: ('A' for Active; 'I' for Inactive)
REMARK    1  A    between atoms: C_2  and  C_4 
REMARK    2  A    between atoms: C_4  and  O_5 
REMARK    3  A    between atoms: C_4  and  O_11 
REMARK    4  A    between atoms: O_5  and  C_6 
REMARK    5  A    between atoms: C_6  and  C_8 
REMARK    6  A    between atoms: O_11  and  C_12 
REMARK       I    between atoms: C_12  and  N_14 
REMARK    7  A    between atoms: N_14  and  C_15 
REMARK    8  A    between atoms: C_16  and  C_15 
REMARK    9  A    between atoms: C_16  and  C_17 
REMARK   10  A    between atoms: C_16  and  C_21 
REMARK   11  A    between atoms: C_17  and  C_18 
REMARK   12  A    between atoms: C_18  and  O_20 
ROOT
HETATM    1  C   UNK N   1      28.638  18.528   8.245  0.00  0.00     0.362 C 
HETATM    2  O   UNK N   1      28.120  17.870   9.143  0.00  0.00    -0.238 OA
HETATM    3  N   UNK N   1      29.955  18.411   7.994  0.00  0.00    -0.336 N 
HETATM    4  H   UNK N   1      30.354  18.959   7.280  0.00  0.00     0.164 HD
ENDROOT
BRANCH   3   5
HETATM    5  C   UNK N   1      30.798  17.512   8.733  0.00  0.00     0.135 C 
BRANCH   5   6
HETATM    6  C   UNK N   1      32.054  17.314   7.913  0.00  0.00     0.046 C 
BRANCH   6   7
HETATM    7  C   UNK N   1      33.313  17.041   8.741  0.00  0.00     0.120 C 
BRANCH   7   8
HETATM    8  C   UNK N   1      34.435  17.961   8.353  0.00  0.00     0.140 C 
HETATM    9  O   UNK N   1      34.562  18.327   7.195  0.00  0.00    -0.650 OA
BRANCH   8  10
HETATM   10  O   UNK N   1      35.306  18.385   9.286  0.00  0.00    -0.776 OA
HETATM   11  H   UNK N   1      35.645  19.120   9.757  0.00  0.00     0.167 HD
ENDBRANCH   8  10
ENDBRANCH   7   8
ENDBRANCH   6   7
BRANCH   6  12
HETATM   12  C   UNK N   1      31.844  16.491   6.670  0.00  0.00    -0.052 A 
HETATM   13  C   UNK N   1      31.613  15.110   6.742  0.00  0.00     0.009 A 
HETATM   14  C   UNK N   1      31.506  14.352   5.571  0.00  0.00     0.024 A 
HETATM   15  C   UNK N   1      31.630  14.970   4.322  0.00  0.00     0.034 A 
HETATM   16  C   UNK N   1      31.857  16.345   4.242  0.00  0.00     0.024 A 
HETATM   17 Cl   UNK N   1      31.518  14.021   2.857  0.00  0.00    -0.084 Cl
HETATM   18  C   UNK N   1      31.975  17.099   5.410  0.00  0.00     0.009 A 
ENDBRANCH   6  12
ENDBRANCH   5   6
ENDBRANCH   3   5
BRANCH   1  19
HETATM   19  O   UNK N   1      27.910  19.429   7.541  0.00  0.00    -0.272 OA
BRANCH  19  20
HETATM   20  C   UNK N   1      27.637  19.312   6.190  0.00  0.00     0.284 C 
BRANCH  20  21
HETATM   21  C   UNK N   1      27.433  20.649   5.474  0.00  0.00     0.034 C 
HETATM   22  C   UNK N   1      26.540  20.532   4.252  0.00  0.00     0.014 C 
HETATM   23  C   UNK N   1      26.833  21.659   6.433  0.00  0.00     0.014 C 
ENDBRANCH  20  21
BRANCH  20  24
HETATM   24  O   UNK N   1      28.568  18.498   5.575  0.00  0.00    -0.288 OA
BRANCH  24  25
HETATM   25  C   UNK N   1      28.251  17.276   5.088  0.00  0.00     0.264 C 
HETATM   26  O   UNK N   1      28.393  16.295   5.803  0.00  0.00    -0.265 OA
BRANCH  25  27
HETATM   27  C   UNK N   1      27.723  17.111   3.690  0.00  0.00     0.077 C 
HETATM   28  C   UNK N   1      28.369  15.916   3.019  0.00  0.00     0.020 C 
HETATM   29  C   UNK N   1      26.214  16.952   3.694  0.00  0.00     0.020 C 
ENDBRANCH  25  27
ENDBRANCH  24  25
ENDBRANCH  20  24
ENDBRANCH  19  20
ENDBRANCH   1  19
TORSDOF 12
ENDMDL
MODEL 5
REMARK VINA RESULT:      -6.1     11.065     13.169
REMARK  12 active torsions:
REMARK  status: ('A' for Active; 'I' for Inactive)
REMARK    1  A    between atoms: C_2  and  C_4 
REMARK    2  A    between atoms: C_4  and  O_5 
REMARK    3  A    between atoms: C_4  and  O_11 
REMARK    4  A    between atoms: O_5  and  C_6 
REMARK    5  A    between atoms: C_6  and  C_8 
REMARK    6  A    between atoms: O_11  and  C_12 
REMARK       I    between atoms: C_12  and  N_14 
REMARK    7  A    between atoms: N_14  and  C_15 
REMARK    8  A    between atoms: C_16  and  C_15 
REMARK    9  A    between atoms: C_16  and  C_17 
REMARK   10  A    between atoms: C_16  and  C_21 
REMARK   11  A    between atoms: C_17  and  C_18 
REMARK   12  A    between atoms: C_18  and  O_20 
ROOT
HETATM    1  C   UNK N   1      29.482  16.210   3.878  0.00  0.00     0.362 C 
HETATM    2  O   UNK N   1      29.801  16.433   2.714  0.00  0.00    -0.238 OA
HETATM    3  N   UNK N   1      28.341  16.722   4.377  0.00  0.00    -0.336 N 
HETATM    4  H   UNK N   1      28.110  16.544   5.318  0.00  0.00     0.164 HD
ENDROOT
BRANCH   3   5
HETATM    5  C   UNK N   1      27.448  17.519   3.581  0.00  0.00     0.135 C 
BRANCH   5   6
HETATM    6  C   UNK N   1      26.907  18.605   4.484  0.00  0.00     0.046 C 
BRANCH   6   7
HETATM    7  C   UNK N   1      27.950  19.635   4.928  0.00  0.00     0.120 C 
BRANCH   7   8
HETATM    8  C   UNK N   1      27.592  20.241   6.256  0.00  0.00     0.140 C 
HETATM    9  O   UNK N   1      27.539  21.454   6.388  0.00  0.00    -0.650 OA
BRANCH   8  10
HETATM   10  O   UNK N   1      27.328  19.443   7.306  0.00  0.00    -0.776 OA
HETATM   11  H   UNK N   1      26.674  18.959   7.770  0.00  0.00     0.167 HD
ENDBRANCH   8  10
ENDBRANCH   7   8
ENDBRANCH   6   7
BRANCH   6  12
HETATM   12  C   UNK N   1      25.551  19.117   4.075  0.00  0.00    -0.052 A 
HETATM   13  C   UNK N   1      24.377  18.452   4.457  0.00  0.00     0.009 A 
HETATM   14  C   UNK N   1      23.134  18.897   3.993  0.00  0.00     0.024 A 
HETATM   15  C   UNK N   1      23.058  20.007   3.146  0.00  0.00     0.034 A 
HETATM   16  C   UNK N   1      24.222  20.676   2.764  0.00  0.00     0.024 A 
HETATM   17 Cl   UNK N   1      21.507  20.552   2.549  0.00  0.00    -0.084 Cl
HETATM   18  C   UNK N   1      25.462  20.226   3.217  0.00  0.00     0.009 A 
ENDBRANCH   6  12
ENDBRANCH   5   6
ENDBRANCH   3   5
BRANCH   1  19
HETATM   19  O   UNK N   1      30.301  15.506   4.697  0.00  0.00    -0.272 OA
BRANCH  19  20
HETATM   20  C   UNK N   1      31.274  16.080   5.495  0.00  0.00     0.284 C 
BRANCH  20  21
HETATM   21  C   UNK N   1      32.633  16.240   4.811  0.00  0.00     0.034 C 
HETATM   22  C   UNK N   1      32.969  17.687   4.500  0.00  0.00     0.014 C 
HETATM   23  C   UNK N   1      33.722  15.654   5.690  0.00  0.00     0.014 C 
ENDBRANCH  20  21
BRANCH  20  24
HETATM   24  O   UNK N   1      30.805  17.249   6.064  0.00  0.00    -0.288 OA
BRANCH  24  25
HETATM   25  C   UNK N   1      30.162  17.266   7.255  0.00  0.00     0.264 C 
HETATM   26  O   UNK N   1      28.970  16.999   7.290  0.00  0.00    -0.265 OA
BRANCH  25  27
HETATM   27  C   UNK N   1      30.892  17.601   8.526  0.00  0.00     0.077 C 
HETATM   28  C   UNK N   1      32.327  17.981   8.227  0.00  0.00     0.020 C 
HETATM   29  C   UNK N   1      30.200  18.729   9.269  0.00  0.00     0.020 C 
ENDBRANCH  25  27
ENDBRANCH  24  25
ENDBRANCH  20  24
ENDBRANCH  19  20
ENDBRANCH   1  19
TORSDOF 12
ENDMDL
MODEL 6
REMARK VINA RESULT:      -6.1     16.777     19.534
REMARK  12 active torsions:
REMARK  status: ('A' for Active; 'I' for Inactive)
REMARK    1  A    between atoms: C_2  and  C_4 
REMARK    2  A    between atoms: C_4  and  O_5 
REMARK    3  A    between atoms: C_4  and  O_11 
REMARK    4  A    between atoms: O_5  and  C_6 
REMARK    5  A    between atoms: C_6  and  C_8 
REMARK    6  A    between atoms: O_11  and  C_12 
REMARK       I    between atoms: C_12  and  N_14 
REMARK    7  A    between atoms: N_14  and  C_15 
REMARK    8  A    between atoms: C_16  and  C_15 
REMARK    9  A    between atoms: C_16  and  C_17 
REMARK   10  A    between atoms: C_16  and  C_21 
REMARK   11  A    between atoms: C_17  and  C_18 
REMARK   12  A    between atoms: C_18  and  O_20 
ROOT
HETATM    1  C   UNK N   1      19.965  15.108   8.995  0.00  0.00     0.362 C 
HETATM    2  O   UNK N   1      18.937  14.925   9.641  0.00  0.00    -0.238 OA
HETATM    3  N   UNK N   1      21.062  14.369   9.246  0.00  0.00    -0.336 N 
HETATM    4  H   UNK N   1      21.882  14.542   8.727  0.00  0.00     0.164 HD
ENDROOT
BRANCH   3   5
HETATM    5  C   UNK N   1      21.077  13.335  10.244  0.00  0.00     0.135 C 
BRANCH   5   6
HETATM    6  C   UNK N   1      22.495  12.814  10.314  0.00  0.00     0.046 C 
BRANCH   6   7
HETATM    7  C   UNK N   1      22.708  11.696  11.339  0.00  0.00     0.120 C 
BRANCH   7   8
HETATM    8  C   UNK N   1      23.796  12.045  12.314  0.00  0.00     0.140 C 
HETATM    9  O   UNK N   1      23.561  12.099  13.511  0.00  0.00    -0.650 OA
BRANCH   8  10
HETATM   10  O   UNK N   1      25.039  12.301  11.866  0.00  0.00    -0.776 OA
HETATM   11  H   UNK N   1      25.913  12.545  12.096  0.00  0.00     0.167 HD
ENDBRANCH   8  10
ENDBRANCH   7   8
ENDBRANCH   6   7
BRANCH   6  12
HETATM   12  C   UNK N   1      23.154  12.661   8.969  0.00  0.00    -0.052 A 
HETATM   13  C   UNK N   1      22.668  11.748   8.021  0.00  0.00     0.009 A 
HETATM   14  C   UNK N   1      23.346  11.563   6.812  0.00  0.00     0.024 A 
HETATM   15  C   UNK N   1      24.513  12.286   6.543  0.00  0.00     0.034 A 
HETATM   16  C   UNK N   1      25.001  13.197   7.481  0.00  0.00     0.024 A 
HETATM   17 Cl   UNK N   1      25.375  12.038   5.041  0.00  0.00    -0.084 Cl
HETATM   18  C   UNK N   1      24.331  13.375   8.691  0.00  0.00     0.009 A 
ENDBRANCH   6  12
ENDBRANCH   5   6
ENDBRANCH   3   5
BRANCH   1  19
HETATM   19  O   UNK N   1      20.034  16.097   8.072  0.00  0.00    -0.272 OA
BRANCH  19  20
HETATM   20  C   UNK N   1      20.104  15.876   6.708  0.00  0.00     0.284 C 
BRANCH  20  21
HETATM   21  C   UNK N   1      21.293  16.554   6.023  0.00  0.00     0.034 C 
HETATM   22  C   UNK N   1      21.390  18.035   6.340  0.00  0.00     0.014 C 
HETATM   23  C   UNK N   1      22.582  15.871   6.438  0.00  0.00     0.014 C 
ENDBRANCH  20  21
BRANCH  20  24
HETATM   24  O   UNK N   1      20.008  14.526   6.430  0.00  0.00    -0.288 OA
BRANCH  24  25
HETATM   25  C   UNK N   1      19.401  14.059   5.315  0.00  0.00     0.264 C 
HETATM   26  O   UNK N   1      18.347  14.563   4.957  0.00  0.00    -0.265 OA
BRANCH  25  27
HETATM   27  C   UNK N   1      20.006  12.940   4.513  0.00  0.00     0.077 C 
HETATM   28  C   UNK N   1      21.435  13.274   4.137  0.00  0.00     0.020 C 
HETATM   29  C   UNK N   1      19.963  11.634   5.283  0.00  0.00     0.020 C 
ENDBRANCH  25  27
ENDBRANCH  24  25
ENDBRANCH  20  24
ENDBRANCH  19  20
ENDBRANCH   1  19
TORSDOF 12
ENDMDL
MODEL 7
REMARK VINA RESULT:      -6.0      3.231      7.024
REMARK  12 active torsions:
REMARK  status: ('A' for Active; 'I' for Inactive)
REMARK    1  A    between atoms: C_2  and  C_4 
REMARK    2  A    between atoms: C_4  and  O_5 
REMARK    3  A    between atoms: C_4  and  O_11 
REMARK    4  A    between atoms: O_5  and  C_6 
REMARK    5  A    between atoms: C_6  and  C_8 
REMARK    6  A    between atoms: O_11  and  C_12 
REMARK       I    between atoms: C_12  and  N_14 
REMARK    7  A    between atoms: N_14  and  C_15 
REMARK    8  A    between atoms: C_16  and  C_15 
REMARK    9  A    between atoms: C_16  and  C_17 
REMARK   10  A    between atoms: C_16  and  C_21 
REMARK   11  A    between atoms: C_17  and  C_18 
REMARK   12  A    between atoms: C_18  and  O_20 
ROOT
HETATM    1  C   UNK N   1      30.989  22.337  -2.596  0.00  0.00     0.362 C 
HETATM    2  O   UNK N   1      32.128  21.993  -2.293  0.00  0.00    -0.238 OA
HETATM    3  N   UNK N   1      30.264  21.596  -3.456  0.00  0.00    -0.336 N 
HETATM    4  H   UNK N   1      29.359  21.897  -3.698  0.00  0.00     0.164 HD
ENDROOT
BRANCH   3   5
HETATM    5  C   UNK N   1      30.770  20.379  -4.031  0.00  0.00     0.135 C 
BRANCH   5   6
HETATM    6  C   UNK N   1      31.212  20.711  -5.439  0.00  0.00     0.046 C 
BRANCH   6   7
HETATM    7  C   UNK N   1      32.469  19.967  -5.898  0.00  0.00     0.120 C 
BRANCH   7   8
HETATM    8  C   UNK N   1      33.523  19.958  -4.827  0.00  0.00     0.140 C 
HETATM    9  O   UNK N   1      33.900  18.903  -4.340  0.00  0.00    -0.650 OA
BRANCH   8  10
HETATM   10  O   UNK N   1      34.055  21.118  -4.402  0.00  0.00    -0.776 OA
HETATM   11  H   UNK N   1      33.916  22.033  -4.264  0.00  0.00     0.167 HD
ENDBRANCH   8  10
ENDBRANCH   7   8
ENDBRANCH   6   7
BRANCH   6  12
HETATM   12  C   UNK N   1      30.076  20.833  -6.420  0.00  0.00    -0.052 A 
HETATM   13  C   UNK N   1      29.271  21.981  -6.462  0.00  0.00     0.009 A 
HETATM   14  C   UNK N   1      28.170  22.036  -7.323  0.00  0.00     0.024 A 
HETATM   15  C   UNK N   1      27.867  20.946  -8.145  0.00  0.00     0.034 A 
HETATM   16  C   UNK N   1      28.664  19.802  -8.110  0.00  0.00     0.024 A 
HETATM   17 Cl   UNK N   1      26.477  21.005  -9.206  0.00  0.00    -0.084 Cl
HETATM   18  C   UNK N   1      29.756  19.742  -7.245  0.00  0.00     0.009 A 
ENDBRANCH   6  12
ENDBRANCH   5   6
ENDBRANCH   3   5
BRANCH   1  19
HETATM   19  O   UNK N   1      30.469  23.497  -2.127  0.00  0.00    -0.272 OA
BRANCH  19  20
HETATM   20  C   UNK N   1      29.953  24.494  -2.935  0.00  0.00     0.284 C 
BRANCH  20  21
HETATM   21  C   UNK N   1      31.001  25.229  -3.772  0.00  0.00     0.034 C 
HETATM   22  C   UNK N   1      30.787  25.060  -5.265  0.00  0.00     0.014 C 
HETATM   23  C   UNK N   1      30.986  26.708  -3.431  0.00  0.00     0.014 C 
ENDBRANCH  20  21
BRANCH  20  24
HETATM   24  O   UNK N   1      28.894  24.013  -3.681  0.00  0.00    -0.288 OA
BRANCH  24  25
HETATM   25  C   UNK N   1      27.611  24.354  -3.419  0.00  0.00     0.264 C 
HETATM   26  O   UNK N   1      27.038  23.830  -2.475  0.00  0.00    -0.265 OA
BRANCH  25  27
HETATM   27  C   UNK N   1      26.889  25.366  -4.265  0.00  0.00     0.077 C 
HETATM   28  C   UNK N   1      25.732  24.715  -4.995  0.00  0.00     0.020 C 
HETATM   29  C   UNK N   1      26.385  26.521  -3.419  0.00  0.00     0.020 C 
ENDBRANCH  25  27
ENDBRANCH  24  25
ENDBRANCH  20  24
ENDBRANCH  19  20
ENDBRANCH   1  19
TORSDOF 12
ENDMDL
MODEL 8
REMARK VINA RESULT:      -6.0     17.098     20.883
REMARK  12 active torsions:
REMARK  status: ('A' for Active; 'I' for Inactive)
REMARK    1  A    between atoms: C_2  and  C_4 
REMARK    2  A    between atoms: C_4  and  O_5 
REMARK    3  A    between atoms: C_4  and  O_11 
REMARK    4  A    between atoms: O_5  and  C_6 
REMARK    5  A    between atoms: C_6  and  C_8 
REMARK    6  A    between atoms: O_11  and  C_12 
REMARK       I    between atoms: C_12  and  N_14 
REMARK    7  A    between atoms: N_14  and  C_15 
REMARK    8  A    between atoms: C_16  and  C_15 
REMARK    9  A    between atoms: C_16  and  C_17 
REMARK   10  A    between atoms: C_16  and  C_21 
REMARK   11  A    between atoms: C_17  and  C_18 
REMARK   12  A    between atoms: C_18  and  O_20 
ROOT
HETATM    1  C   UNK N   1      35.943  14.977  11.762  0.00  0.00     0.362 C 
HETATM    2  O   UNK N   1      36.750  14.348  11.083  0.00  0.00    -0.238 OA
HETATM    3  N   UNK N   1      35.213  15.962  11.206  0.00  0.00    -0.336 N 
HETATM    4  H   UNK N   1      34.582  16.464  11.771  0.00  0.00     0.164 HD
ENDROOT
BRANCH   3   5
HETATM    5  C   UNK N   1      35.323  16.304   9.814  0.00  0.00     0.135 C 
BRANCH   5   6
HETATM    6  C   UNK N   1      33.930  16.222   9.230  0.00  0.00     0.046 C 
BRANCH   6   7
HETATM    7  C   UNK N   1      33.369  17.561   8.745  0.00  0.00     0.120 C 
BRANCH   7   8
HETATM    8  C   UNK N   1      34.367  18.301   7.901  0.00  0.00     0.140 C 
HETATM    9  O   UNK N   1      34.491  18.036   6.715  0.00  0.00    -0.650 OA
BRANCH   8  10
HETATM   10  O   UNK N   1      35.130  19.262   8.454  0.00  0.00    -0.776 OA
HETATM   11  H   UNK N   1      35.177  20.156   8.728  0.00  0.00     0.167 HD
ENDBRANCH   8  10
ENDBRANCH   7   8
ENDBRANCH   6   7
BRANCH   6  12
HETATM   12  C   UNK N   1      33.708  15.014   8.358  0.00  0.00    -0.052 A 
HETATM   13  C   UNK N   1      34.644  13.972   8.306  0.00  0.00     0.009 A 
HETATM   14  C   UNK N   1      34.456  12.902   7.424  0.00  0.00     0.024 A 
HETATM   15  C   UNK N   1      33.333  12.868   6.590  0.00  0.00     0.034 A 
HETATM   16  C   UNK N   1      32.397  13.901   6.639  0.00  0.00     0.024 A 
HETATM   17 Cl   UNK N   1      33.109  11.542   5.472  0.00  0.00    -0.084 Cl
HETATM   18  C   UNK N   1      32.589  14.973   7.510  0.00  0.00     0.009 A 
ENDBRANCH   6  12
ENDBRANCH   5   6
ENDBRANCH   3   5
BRANCH   1  19
HETATM   19  O   UNK N   1      35.822  14.737  13.091  0.00  0.00    -0.272 OA
BRANCH  19  20
HETATM   20  C   UNK N   1      35.782  13.471  13.646  0.00  0.00     0.284 C 
BRANCH  20  21
HETATM   21  C   UNK N   1      36.123  13.428  15.137  0.00  0.00     0.034 C 
HETATM   22  C   UNK N   1      36.770  12.120  15.555  0.00  0.00     0.014 C 
HETATM   23  C   UNK N   1      37.052  14.576  15.484  0.00  0.00     0.014 C 
ENDBRANCH  20  21
BRANCH  20  24
HETATM   24  O   UNK N   1      34.589  12.845  13.338  0.00  0.00    -0.288 OA
BRANCH  24  25
HETATM   25  C   UNK N   1      34.542  11.651  12.704  0.00  0.00     0.264 C 
HETATM   26  O   UNK N   1      34.925  11.577  11.546  0.00  0.00    -0.265 OA
BRANCH  25  27
HETATM   27  C   UNK N   1      34.033  10.420  13.403  0.00  0.00     0.077 C 
HETATM   28  C   UNK N   1      35.144   9.401  13.553  0.00  0.00     0.020 C 
HETATM   29  C   UNK N   1      33.458  10.766  14.763  0.00  0.00     0.020 C 
ENDBRANCH  25  27
ENDBRANCH  24  25
ENDBRANCH  20  24
ENDBRANCH  19  20
ENDBRANCH   1  19
TORSDOF 12
ENDMDL
MODEL 9
REMARK VINA RESULT:      -5.9      2.537      6.252
REMARK  12 active torsions:
REMARK  status: ('A' for Active; 'I' for Inactive)
REMARK    1  A    between atoms: C_2  and  C_4 
REMARK    2  A    between atoms: C_4  and  O_5 
REMARK    3  A    between atoms: C_4  and  O_11 
REMARK    4  A    between atoms: O_5  and  C_6 
REMARK    5  A    between atoms: C_6  and  C_8 
REMARK    6  A    between atoms: O_11  and  C_12 
REMARK       I    between atoms: C_12  and  N_14 
REMARK    7  A    between atoms: N_14  and  C_15 
REMARK    8  A    between atoms: C_16  and  C_15 
REMARK    9  A    between atoms: C_16  and  C_17 
REMARK   10  A    between atoms: C_16  and  C_21 
REMARK   11  A    between atoms: C_17  and  C_18 
REMARK   12  A    between atoms: C_18  and  O_20 
ROOT
HETATM    1  C   UNK N   1      30.247  26.788  -4.858  0.00  0.00     0.362 C 
HETATM    2  O   UNK N   1      30.805  26.868  -5.949  0.00  0.00    -0.238 OA
HETATM    3  N   UNK N   1      30.299  25.642  -4.153  0.00  0.00    -0.336 N 
HETATM    4  H   UNK N   1      29.832  25.593  -3.288  0.00  0.00     0.164 HD
ENDROOT
BRANCH   3   5
HETATM    5  C   UNK N   1      31.015  24.487  -4.622  0.00  0.00     0.135 C 
BRANCH   5   6
HETATM    6  C   UNK N   1      30.223  23.274  -4.189  0.00  0.00     0.046 C 
BRANCH   6   7
HETATM    7  C   UNK N   1      28.973  23.597  -3.365  0.00  0.00     0.120 C 
BRANCH   7   8
HETATM    8  C   UNK N   1      29.116  23.127  -1.945  0.00  0.00     0.140 C 
HETATM    9  O   UNK N   1      28.126  22.875  -1.275  0.00  0.00    -0.650 OA
BRANCH   8  10
HETATM   10  O   UNK N   1      30.340  22.983  -1.407  0.00  0.00    -0.776 OA
HETATM   11  H   UNK N   1      31.040  23.399  -0.943  0.00  0.00     0.167 HD
ENDBRANCH   8  10
ENDBRANCH   7   8
ENDBRANCH   6   7
BRANCH   6  12
HETATM   12  C   UNK N   1      30.104  22.215  -5.252  0.00  0.00    -0.052 A 
HETATM   13  C   UNK N   1      29.100  22.275  -6.230  0.00  0.00     0.009 A 
HETATM   14  C   UNK N   1      28.957  21.236  -7.155  0.00  0.00     0.024 A 
HETATM   15  C   UNK N   1      29.814  20.131  -7.108  0.00  0.00     0.034 A 
HETATM   16  C   UNK N   1      30.816  20.065  -6.140  0.00  0.00     0.024 A 
HETATM   17 Cl   UNK N   1      29.621  18.820  -8.251  0.00  0.00    -0.084 Cl
HETATM   18  C   UNK N   1      30.953  21.096  -5.210  0.00  0.00     0.009 A 
ENDBRANCH   6  12
ENDBRANCH   5   6
ENDBRANCH   3   5
BRANCH   1  19
HETATM   19  O   UNK N   1      29.515  27.823  -4.379  0.00  0.00    -0.272 OA
BRANCH  19  20
HETATM   20  C   UNK N   1      28.135  27.889  -4.445  0.00  0.00     0.284 C 
BRANCH  20  21
HETATM   21  C   UNK N   1      27.601  29.064  -5.267  0.00  0.00     0.034 C 
HETATM   22  C   UNK N   1      28.221  30.391  -4.869  0.00  0.00     0.014 C 
HETATM   23  C   UNK N   1      27.858  28.817  -6.742  0.00  0.00     0.014 C 
ENDBRANCH  20  21
BRANCH  20  24
HETATM   24  O   UNK N   1      27.610  26.669  -4.827  0.00  0.00    -0.288 OA
BRANCH  24  25
HETATM   25  C   UNK N   1      26.482  26.164  -4.277  0.00  0.00     0.264 C 
HETATM   26  O   UNK N   1      26.328  26.232  -3.066  0.00  0.00    -0.265 OA
BRANCH  25  27
HETATM   27  C   UNK N   1      25.419  25.529  -5.131  0.00  0.00     0.077 C 
HETATM   28  C   UNK N   1      25.144  26.383  -6.352  0.00  0.00     0.020 C 
HETATM   29  C   UNK N   1      25.826  24.130  -5.556  0.00  0.00     0.020 C 
ENDBRANCH  25  27
ENDBRANCH  24  25
ENDBRANCH  20  24
ENDBRANCH  19  20
ENDBRANCH   1  19
TORSDOF 12
ENDMDL
